data_GULPIN_clean_PM
_symmetry_space_group_name_H-M	'P1'
_cell_length_a	12.605000
_cell_length_b	13.271100
_cell_length_c	13.271100
_cell_angle_alpha	85.312602
_cell_angle_beta	83.368100
_cell_angle_gamma	83.368102
_symmetry_Int_Tables_number 1

loop_
_symmetry_equiv_pos_as_xyz
'x,y,z'

loop_
_atom_site_label
_atom_site_type_symbol
_atom_site_fract_x
_atom_site_fract_y
_atom_site_fract_z
_atom_site_charge
Zn1	Zn	0.171230	0.172730	0.273030	1.088976
Zn2	Zn	0.328770	0.726970	0.827270	1.088976
Zn3	Zn	0.828770	0.827270	0.726970	1.088976
Zn4	Zn	0.671230	0.273030	0.172730	1.088976
H1	H	0.405700	0.186600	0.289400	0.137591
H2	H	0.541700	0.113700	0.376500	0.090003
H3	H	0.336900	0.952300	0.544700	0.094083
H4	H	0.204500	0.030300	0.454100	0.117066
H5	H	0.982100	0.231900	0.422100	0.101082
H6	H	0.914700	0.359500	0.520100	0.072253
H7	H	0.148000	0.521000	0.394000	0.072862
H8	H	0.209400	0.389200	0.296400	0.105917
H9	H	0.057900	0.868200	0.300000	0.120787
H10	H	0.957800	0.735800	0.298400	0.141637
H11	H	0.709800	0.927600	0.221000	0.132060
H12	H	0.094300	0.710600	0.813400	0.137591
H13	H	0.958300	0.623500	0.886300	0.090003
H14	H	0.163100	0.455300	0.047700	0.094083
H15	H	0.295500	0.545900	0.969700	0.117066
H16	H	0.517900	0.577900	0.768100	0.101082
H17	H	0.585300	0.479900	0.640500	0.072253
H18	H	0.352000	0.606000	0.479000	0.072862
H19	H	0.290600	0.703600	0.610800	0.105917
H20	H	0.442100	0.700000	0.131800	0.120787
H21	H	0.542200	0.701600	0.264200	0.141637
H22	H	0.790200	0.779000	0.072400	0.132060
H23	H	0.594300	0.813400	0.710600	0.137591
H24	H	0.458300	0.886300	0.623500	0.090003
H25	H	0.663100	0.047700	0.455300	0.094083
H26	H	0.795500	0.969700	0.545900	0.117066
H27	H	0.017900	0.768100	0.577900	0.101082
H28	H	0.085300	0.640500	0.479900	0.072253
H29	H	0.852000	0.479000	0.606000	0.072862
H30	H	0.790600	0.610800	0.703600	0.105917
H31	H	0.942100	0.131800	0.700000	0.120787
H32	H	0.042200	0.264200	0.701600	0.141637
H33	H	0.290200	0.072400	0.779000	0.132060
H34	H	0.905700	0.289400	0.186600	0.137591
H35	H	0.041700	0.376500	0.113700	0.090003
H36	H	0.836900	0.544700	0.952300	0.094083
H37	H	0.704500	0.454100	0.030300	0.117066
H38	H	0.482100	0.422100	0.231900	0.101082
H39	H	0.414700	0.520100	0.359500	0.072253
H40	H	0.648000	0.394000	0.521000	0.072862
H41	H	0.709400	0.296400	0.389200	0.105917
H42	H	0.557900	0.300000	0.868200	0.120787
H43	H	0.457800	0.298400	0.735800	0.141637
H44	H	0.209800	0.221000	0.927600	0.132060
C1	C	0.390800	0.137100	0.341100	0.119516
C2	C	0.473200	0.093700	0.393900	-0.004480
C3	C	0.457100	0.022900	0.470500	0.051260
C4	C	0.353700	0.000100	0.491700	-0.025759
C5	C	0.274300	0.046600	0.436200	0.114458
C6	C	0.016300	0.290900	0.415900	0.100713
C7	C	0.975300	0.367500	0.474300	-0.021204
C8	C	0.020900	0.457000	0.467800	0.075008
C9	C	0.112100	0.463000	0.400400	0.002946
C10	C	0.149000	0.383000	0.343000	0.104308
C11	C	0.014200	0.067500	0.261100	0.448803
C12	C	0.944600	0.982200	0.266800	0.065589
C13	C	0.986900	0.881700	0.285700	-0.102125
C14	C	0.927000	0.801700	0.283700	0.011965
C15	C	0.822800	0.817100	0.260700	0.044355
C16	C	0.779600	0.915300	0.238900	-0.063512
C17	C	0.839600	0.997300	0.243500	0.049307
C18	C	0.783400	0.102800	0.231600	0.454336
C19	C	0.813000	0.625500	0.265300	0.694209
C20	C	0.109200	0.658900	0.862900	0.119516
C21	C	0.026800	0.606100	0.906300	-0.004480
C22	C	0.042900	0.529500	0.977100	0.051260
C23	C	0.146300	0.508300	0.999900	-0.025759
C24	C	0.225700	0.563800	0.953400	0.114458
C25	C	0.483700	0.584100	0.709100	0.100713
C26	C	0.524700	0.525700	0.632500	-0.021204
C27	C	0.479100	0.532200	0.543000	0.075008
C28	C	0.387900	0.599600	0.537000	0.002946
C29	C	0.351000	0.657000	0.617000	0.104308
C30	C	0.485800	0.738900	0.932500	0.448803
C31	C	0.555400	0.733200	0.017800	0.065589
C32	C	0.513100	0.714300	0.118300	-0.102125
C33	C	0.573000	0.716300	0.198300	0.011965
C34	C	0.677200	0.739300	0.182900	0.044355
C35	C	0.720400	0.761100	0.084700	-0.063512
C36	C	0.660400	0.756500	0.002700	0.049307
C37	C	0.716600	0.768400	0.897200	0.454336
C38	C	0.687000	0.734700	0.374500	0.694209
C39	C	0.609200	0.862900	0.658900	0.119516
C40	C	0.526800	0.906300	0.606100	-0.004480
C41	C	0.542900	0.977100	0.529500	0.051260
C42	C	0.646300	0.999900	0.508300	-0.025759
C43	C	0.725700	0.953400	0.563800	0.114458
C44	C	0.983700	0.709100	0.584100	0.100713
C45	C	0.024700	0.632500	0.525700	-0.021204
C46	C	0.979100	0.543000	0.532200	0.075008
C47	C	0.887900	0.537000	0.599600	0.002946
C48	C	0.851000	0.617000	0.657000	0.104308
C49	C	0.985800	0.932500	0.738900	0.448803
C50	C	0.055400	0.017800	0.733200	0.065589
C51	C	0.013100	0.118300	0.714300	-0.102125
C52	C	0.073000	0.198300	0.716300	0.011965
C53	C	0.177200	0.182900	0.739300	0.044355
C54	C	0.220400	0.084700	0.761100	-0.063512
C55	C	0.160400	0.002700	0.756500	0.049307
C56	C	0.216600	0.897200	0.768400	0.454336
C57	C	0.187000	0.374500	0.734700	0.694209
C58	C	0.890800	0.341100	0.137100	0.119516
C59	C	0.973200	0.393900	0.093700	-0.004480
C60	C	0.957100	0.470500	0.022900	0.051260
C61	C	0.853700	0.491700	0.000100	-0.025759
C62	C	0.774300	0.436200	0.046600	0.114458
C63	C	0.516300	0.415900	0.290900	0.100713
C64	C	0.475300	0.474300	0.367500	-0.021204
C65	C	0.520900	0.467800	0.457000	0.075008
C66	C	0.612100	0.400400	0.463000	0.002946
C67	C	0.649000	0.343000	0.383000	0.104308
C68	C	0.514200	0.261100	0.067500	0.448803
C69	C	0.444600	0.266800	0.982200	0.065589
C70	C	0.486900	0.285700	0.881700	-0.102125
C71	C	0.427000	0.283700	0.801700	0.011965
C72	C	0.322800	0.260700	0.817100	0.044355
C73	C	0.279600	0.238900	0.915300	-0.063512
C74	C	0.339600	0.243500	0.997300	0.049307
C75	C	0.283400	0.231600	0.102800	0.454336
C76	C	0.313000	0.265300	0.625500	0.694209
C77	C	0.750000	0.730800	0.269200	0.048029
C78	C	0.250000	0.269200	0.730800	0.048029
N1	N	0.292200	0.113350	0.358650	-0.404670
N2	N	0.103700	0.295950	0.349550	-0.434091
N3	N	0.207800	0.641350	0.886650	-0.404670
N4	N	0.396300	0.650450	0.704050	-0.434091
N5	N	0.707800	0.886650	0.641350	-0.404670
N6	N	0.896300	0.704050	0.650450	-0.434091
N7	N	0.792200	0.358650	0.113350	-0.404670
N8	N	0.603700	0.349550	0.295950	-0.434091
O1	O	0.998900	0.142860	0.199960	-0.418797
O2	O	0.077600	0.058610	0.321270	-0.659548
O3	O	0.784400	0.161560	0.295940	-0.513637
O4	O	0.738600	0.127680	0.157840	-0.579134
O5	O	0.501100	0.800040	0.857140	-0.418797
O6	O	0.422400	0.678730	0.941390	-0.659548
O7	O	0.715600	0.704060	0.838440	-0.513637
O8	O	0.761400	0.842160	0.872320	-0.579134
O9	O	0.001100	0.857140	0.800040	-0.418797
O10	O	0.922400	0.941390	0.678730	-0.659548
O11	O	0.215600	0.838440	0.704060	-0.513637
O12	O	0.261400	0.872320	0.842160	-0.579134
O13	O	0.498900	0.199960	0.142860	-0.418797
O14	O	0.577600	0.321270	0.058610	-0.659548
O15	O	0.284400	0.295940	0.161560	-0.513637
O16	O	0.238600	0.157840	0.127680	-0.579134
F1	F	0.890780	0.624210	0.186330	-0.502699
F2	F	0.864100	0.596990	0.347570	-0.453675
F3	F	0.752120	0.554410	0.253350	-0.451774
F4	F	0.609220	0.813670	0.375790	-0.502699
F5	F	0.635900	0.652430	0.403010	-0.453675
F6	F	0.747880	0.746650	0.445590	-0.451774
F7	F	0.109220	0.375790	0.813670	-0.502699
F8	F	0.135900	0.403010	0.652430	-0.453675
F9	F	0.247880	0.445590	0.746650	-0.451774
F10	F	0.390780	0.186330	0.624210	-0.502699
F11	F	0.364100	0.347570	0.596990	-0.453675
F12	F	0.252120	0.253350	0.554410	-0.451774
