data_ABAVIJ_clean\(2)
_audit_creation_date              2014-07-02
_audit_creation_method            'Materials Studio'
_symmetry_space_group_name_H-M    'P1'
_symmetry_Int_Tables_number       1
_symmetry_cell_setting            triclinic
loop_
_symmetry_equiv_pos_as_xyz
  x,y,z
_cell_length_a                    9.8064
_cell_length_b                    10.6685
_cell_length_c                    13.9712
_cell_angle_alpha                 95.3024
_cell_angle_beta                  110.5460
_cell_angle_gamma                 74.7329
loop_
_atom_site_label
_atom_site_type_symbol
_atom_site_fract_x
_atom_site_fract_y
_atom_site_fract_z
_atom_site_U_iso_or_equiv
_atom_site_adp_type
_atom_site_occupancy
Co1    Co    0.62243   0.88012   0.24882   0.01267  Uiso   1.00
Co2    Co    0.87488   0.38395   0.74792   0.01267  Uiso   1.00
Co3    Co    0.37361   0.38012   0.75118   0.01267  Uiso   1.00
Co4    Co    0.12696   0.88395   0.25208   0.01267  Uiso   1.00
H1     H     0.83300   0.76730   0.12580   0.01267  Uiso   1.00
H2     H     0.84280   0.63980   0.98340   0.01267  Uiso   1.00
H3     H     0.41800   0.61460   0.93560   0.01267  Uiso   1.00
H4     H     0.42310   0.74200   0.08080   0.01267  Uiso   1.00
H5     H     0.90470   0.49070   0.56220   0.01267  Uiso   1.00
H6     H     0.76160   0.61190   0.41520   0.01267  Uiso   1.00
H7     H     0.39070   0.63690   0.48940   0.01267  Uiso   1.00
H8     H     0.54530   0.51100   0.63360   0.01267  Uiso   1.00
H9     H     0.50620   0.16690   0.30840   0.01267  Uiso   1.00
H10    H     0.50480   0.29630   0.45120   0.01267  Uiso   1.00
H11    H     0.74350   0.98270   0.62960   0.01267  Uiso   1.00
H12    H     0.72890   0.85810   0.48460   0.01267  Uiso   1.00
H13    H     0.97890   0.40650   0.98620   0.01267  Uiso   1.00
H14    H     0.11330   0.28220   0.13260   0.01267  Uiso   1.00
H15    H     0.22400   0.98020   0.95260   0.01267  Uiso   1.00
H16    H     0.06760   0.10740   0.81120   0.01267  Uiso   1.00
H17    H     0.70720   0.26730   0.87420   0.01267  Uiso   1.00
H18    H     0.85940   0.13980   0.01660   0.01267  Uiso   1.00
H19    H     0.48240   0.11460   0.06440   0.01267  Uiso   1.00
H20    H     0.34230   0.24200   0.91920   0.01267  Uiso   1.00
H21    H     0.34250   0.99070   0.43780   0.01267  Uiso   1.00
H22    H     0.34640   0.11190   0.58480   0.01267  Uiso   1.00
H23    H     0.90130   0.13690   0.51060   0.01267  Uiso   1.00
H24    H     0.91170   0.01100   0.36640   0.01267  Uiso   1.00
H25    H     0.19780   0.66690   0.69160   0.01267  Uiso   1.00
H26    H     0.05360   0.79630   0.54880   0.01267  Uiso   1.00
H27    H     0.11390   0.48270   0.37040   0.01267  Uiso   1.00
H28    H     0.24430   0.35810   0.51540   0.01267  Uiso   1.00
H29    H     0.99270   0.90650   0.01380   0.01267  Uiso   1.00
H30    H     0.98070   0.78220   0.86740   0.01267  Uiso   1.00
H31    H     0.27140   0.48020   0.04740   0.01267  Uiso   1.00
H32    H     0.25640   0.60740   0.18880   0.01267  Uiso   1.00
C1     C     0.74818   0.73530   0.08696   0.01267  Uiso   1.00
C2     C     0.75461   0.66020   0.00142   0.01267  Uiso   1.00
C3     C     0.62945   0.61520   0.94230   0.01267  Uiso   1.00
C4     C     0.50461   0.64510   0.97322   0.01267  Uiso   1.00
C5     C     0.50919   0.72060   0.06038   0.01267  Uiso   1.00
C6     C     0.63180   0.53350   0.84780   0.01267  Uiso   1.00
C7     C     0.79931   0.52100   0.54722   0.01267  Uiso   1.00
C8     C     0.71486   0.59400   0.45972   0.01267  Uiso   1.00
C9     C     0.56235   0.64040   0.43790   0.01267  Uiso   1.00
C10    C     0.49614   0.60830   0.50328   0.01267  Uiso   1.00
C11    C     0.58939   0.53340   0.58898   0.01267  Uiso   1.00
C12    C     0.46520   0.72610   0.34600   0.01267  Uiso   1.00
C13    C     0.55325   0.12850   0.37430   0.01267  Uiso   1.00
C14    C     0.55271   0.20620   0.45922   0.01267  Uiso   1.00
C15    C     0.62239   0.15190   0.55618   0.01267  Uiso   1.00
C16    C     0.69129   0.02200   0.56418   0.01267  Uiso   1.00
C17    C     0.68481   0.94890   0.47742   0.01267  Uiso   1.00
C18    C     0.61960   0.23330   0.65060   0.01267  Uiso   1.00
C19    C     0.02628   0.31790   0.97916   0.01267  Uiso   1.00
C20    C     0.10899   0.24480   0.06758   0.01267  Uiso   1.00
C21    C     0.18560   0.11620   0.06000   0.01267  Uiso   1.00
C22    C     0.17157   0.06650   0.96154   0.01267  Uiso   1.00
C23    C     0.08068   0.14440   0.87736   0.01267  Uiso   1.00
C24    C     0.28070   0.03230   0.15220   0.01267  Uiso   1.00
C25    C     0.66122   0.23530   0.91304   0.01267  Uiso   1.00
C26    C     0.75319   0.16020   0.99858   0.01267  Uiso   1.00
C27    C     0.68715   0.11520   0.05770   0.01267  Uiso   1.00
C28    C     0.53139   0.14510   0.02678   0.01267  Uiso   1.00
C29    C     0.44881   0.22060   0.93962   0.01267  Uiso   1.00
C30    C     0.78400   0.03350   0.15220   0.01267  Uiso   1.00
C31    C     0.25209   0.02100   0.45278   0.01267  Uiso   1.00
C32    C     0.25514   0.09400   0.54028   0.01267  Uiso   1.00
C33    C     0.12445   0.14040   0.56210   0.01267  Uiso   1.00
C34    C     0.99286   0.10830   0.49672   0.01267  Uiso   1.00
C35    C     0.00041   0.03340   0.41102   0.01267  Uiso   1.00
C36    C     0.11920   0.22610   0.65400   0.01267  Uiso   1.00
C37    C     0.17895   0.62850   0.62570   0.01267  Uiso   1.00
C38    C     0.09349   0.70620   0.54078   0.01267  Uiso   1.00
C39    C     0.06621   0.65190   0.44382   0.01267  Uiso   1.00
C40    C     0.12711   0.52200   0.43582   0.01267  Uiso   1.00
C41    C     0.20739   0.44890   0.52258   0.01267  Uiso   1.00
C42    C     0.96900   0.73330   0.34940   0.01267  Uiso   1.00
C43    C     0.04712   0.81790   0.02084   0.01267  Uiso   1.00
C44    C     0.04141   0.74480   0.93242   0.01267  Uiso   1.00
C45    C     0.12560   0.61620   0.94000   0.01267  Uiso   1.00
C46    C     0.21003   0.56650   0.03846   0.01267  Uiso   1.00
C47    C     0.20332   0.64440   0.12264   0.01267  Uiso   1.00
C48    C     0.12850   0.53230   0.84780   0.01267  Uiso   1.00
N1     N     0.62944   0.76470   0.11708   0.01267  Uiso   1.00
N2     N     0.73837   0.49130   0.61174   0.01267  Uiso   1.00
N3     N     0.61891   0.99930   0.38222   0.01267  Uiso   1.00
N4     N     0.00939   0.27050   0.88438   0.01267  Uiso   1.00
N5     N     0.51236   0.26470   0.88292   0.01267  Uiso   1.00
N6     N     0.12663   0.99130   0.38826   0.01267  Uiso   1.00
N7     N     0.23669   0.49930   0.61778   0.01267  Uiso   1.00
N8     N     0.12501   0.77050   0.11562   0.01267  Uiso   1.00
O1     O     0.75424   0.50320   0.83188   0.01267  Uiso   1.00
O2     O     0.50910   0.50880   0.79320   0.01267  Uiso   1.00
O3     O     0.52483   0.74940   0.28586   0.01267  Uiso   1.00
O4     O     0.32857   0.76720   0.33674   0.01267  Uiso   1.00
O5     O     0.73931   0.25120   0.71422   0.01267  Uiso   1.00
O6     O     0.49046   0.27300   0.65812   0.01267  Uiso   1.00
O7     O     0.21939   0.02230   0.21578   0.01267  Uiso   1.00
O8     O     0.41244   0.98540   0.15648   0.01267  Uiso   1.00
O9     O     0.92236   0.00320   0.16812   0.01267  Uiso   1.00
O10    O     0.71590   0.00880   0.20680   0.01267  Uiso   1.00
O11    O     0.23897   0.24940   0.71414   0.01267  Uiso   1.00
O12    O     0.99183   0.26720   0.66326   0.01267  Uiso   1.00
O13    O     0.02509   0.75120   0.28578   0.01267  Uiso   1.00
O14    O     0.83234   0.77300   0.34188   0.01267  Uiso   1.00
O15    O     0.00361   0.52230   0.78422   0.01267  Uiso   1.00
O16    O     0.25596   0.48540   0.84352   0.01267  Uiso   1.00
