data_image0
_cell_length_a       15.3873
_cell_length_b       15.3873
_cell_length_c       9.8379
_cell_angle_alpha    90
_cell_angle_beta     90
_cell_angle_gamma    90

_symmetry_space_group_name_H-M    "P 1"
_symmetry_int_tables_number       1

loop_
  _symmetry_equiv_pos_as_xyz
  'x, y, z'

loop_
  _atom_site_label
  _atom_site_occupancy
  _atom_site_fract_x
  _atom_site_fract_y
  _atom_site_fract_z
  _atom_site_thermal_displace_type
  _atom_site_B_iso_or_equiv
  _atom_site_type_symbol
  C1       1.0000 0.38697  0.24501  0.12220  Biso   1.000  C
  H1       1.0000 0.41160  0.26270  0.20400  Biso   1.000  H
  C2       1.0000 0.31227  0.19518  0.12190  Biso   1.000  C
  H2       1.0000 0.28760  0.17820  0.20400  Biso   1.000  H
  O1       1.0000 0.53184  0.37360  0.12230  Biso   1.000  O
  C3       1.0000 0.61303  0.75499  0.12220  Biso   1.000  C
  H3       1.0000 0.58840  0.73730  0.20400  Biso   1.000  H
  C4       1.0000 0.68773  0.80482  0.12190  Biso   1.000  C
  H4       1.0000 0.71240  0.82180  0.20400  Biso   1.000  H
  O2       1.0000 0.46816  0.62640  0.12230  Biso   1.000  O
  C5       1.0000 0.75499  0.38697  0.12220  Biso   1.000  C
  H5       1.0000 0.73730  0.41160  0.20400  Biso   1.000  H
  C6       1.0000 0.80482  0.31227  0.12190  Biso   1.000  C
  H6       1.0000 0.82180  0.28760  0.20400  Biso   1.000  H
  O3       1.0000 0.62640  0.53184  0.12230  Biso   1.000  O
  C7       1.0000 0.24501  0.61303  0.12220  Biso   1.000  C
  H7       1.0000 0.26270  0.58840  0.20400  Biso   1.000  H
  C8       1.0000 0.19518  0.68773  0.12190  Biso   1.000  C
  H8       1.0000 0.17820  0.71240  0.20400  Biso   1.000  H
  O4       1.0000 0.37360  0.46816  0.12230  Biso   1.000  O
  C9       1.0000 0.61303  0.24501  0.37780  Biso   1.000  C
  H9       1.0000 0.58840  0.26270  0.29600  Biso   1.000  H
  C10      1.0000 0.68773  0.19518  0.37810  Biso   1.000  C
  H10      1.0000 0.71240  0.17820  0.29600  Biso   1.000  H
  O5       1.0000 0.46816  0.37360  0.37770  Biso   1.000  O
  C11      1.0000 0.38697  0.75499  0.37780  Biso   1.000  C
  H11      1.0000 0.41160  0.73730  0.29600  Biso   1.000  H
  C12      1.0000 0.31227  0.80482  0.37810  Biso   1.000  C
  H12      1.0000 0.28760  0.82180  0.29600  Biso   1.000  H
  O6       1.0000 0.53184  0.62640  0.37770  Biso   1.000  O
  C13      1.0000 0.24501  0.38697  0.37780  Biso   1.000  C
  H13      1.0000 0.26270  0.41160  0.29600  Biso   1.000  H
  C14      1.0000 0.19518  0.31227  0.37810  Biso   1.000  C
  H14      1.0000 0.17820  0.28760  0.29600  Biso   1.000  H
  O7       1.0000 0.37360  0.53184  0.37770  Biso   1.000  O
  C15      1.0000 0.75499  0.61303  0.37780  Biso   1.000  C
  H15      1.0000 0.73730  0.58840  0.29600  Biso   1.000  H
  C16      1.0000 0.80482  0.68773  0.37810  Biso   1.000  C
  H16      1.0000 0.82180  0.71240  0.29600  Biso   1.000  H
  O8       1.0000 0.62640  0.46816  0.37770  Biso   1.000  O
  C17      1.0000 0.61303  0.75499  0.87780  Biso   1.000  C
  H17      1.0000 0.58840  0.73730  0.79600  Biso   1.000  H
  C18      1.0000 0.68773  0.80482  0.87810  Biso   1.000  C
  H18      1.0000 0.71240  0.82180  0.79600  Biso   1.000  H
  O9       1.0000 0.46816  0.62640  0.87770  Biso   1.000  O
  C19      1.0000 0.38697  0.24501  0.87780  Biso   1.000  C
  H19      1.0000 0.41160  0.26270  0.79600  Biso   1.000  H
  C20      1.0000 0.31227  0.19518  0.87810  Biso   1.000  C
  H20      1.0000 0.28760  0.17820  0.79600  Biso   1.000  H
  O10      1.0000 0.53184  0.37360  0.87770  Biso   1.000  O
  C21      1.0000 0.24501  0.61303  0.87780  Biso   1.000  C
  H21      1.0000 0.26270  0.58840  0.79600  Biso   1.000  H
  C22      1.0000 0.19518  0.68773  0.87810  Biso   1.000  C
  H22      1.0000 0.17820  0.71240  0.79600  Biso   1.000  H
  O11      1.0000 0.37360  0.46816  0.87770  Biso   1.000  O
  C23      1.0000 0.75499  0.38697  0.87780  Biso   1.000  C
  H23      1.0000 0.73730  0.41160  0.79600  Biso   1.000  H
  C24      1.0000 0.80482  0.31227  0.87810  Biso   1.000  C
  H24      1.0000 0.82180  0.28760  0.79600  Biso   1.000  H
  O12      1.0000 0.62640  0.53184  0.87770  Biso   1.000  O
  C25      1.0000 0.38697  0.75499  0.62220  Biso   1.000  C
  H25      1.0000 0.41160  0.73730  0.70400  Biso   1.000  H
  C26      1.0000 0.31227  0.80482  0.62190  Biso   1.000  C
  H26      1.0000 0.28760  0.82180  0.70400  Biso   1.000  H
  O13      1.0000 0.53184  0.62640  0.62230  Biso   1.000  O
  C27      1.0000 0.61303  0.24501  0.62220  Biso   1.000  C
  H27      1.0000 0.58840  0.26270  0.70400  Biso   1.000  H
  C28      1.0000 0.68773  0.19518  0.62190  Biso   1.000  C
  H28      1.0000 0.71240  0.17820  0.70400  Biso   1.000  H
  O14      1.0000 0.46816  0.37360  0.62230  Biso   1.000  O
  C29      1.0000 0.75499  0.61303  0.62220  Biso   1.000  C
  H29      1.0000 0.73730  0.58840  0.70400  Biso   1.000  H
  C30      1.0000 0.80482  0.68773  0.62190  Biso   1.000  C
  H30      1.0000 0.82180  0.71240  0.70400  Biso   1.000  H
  O15      1.0000 0.62640  0.46816  0.62230  Biso   1.000  O
  C31      1.0000 0.24501  0.38697  0.62220  Biso   1.000  C
  H31      1.0000 0.26270  0.41160  0.70400  Biso   1.000  H
  C32      1.0000 0.19518  0.31227  0.62190  Biso   1.000  C
  H32      1.0000 0.17820  0.28760  0.70400  Biso   1.000  H
  O16      1.0000 0.37360  0.53184  0.62230  Biso   1.000  O
  Tb1      1.0000 0.50000  0.50000  0.25000  Biso   1.000  Tb
  Tb2      1.0000 0.50000  0.50000  0.75000  Biso   1.000  Tb
  S1       1.0000 0.52674  0.32096  0.00000  Biso   1.000  S
  N1       1.0000 0.02990  0.12970  0.00000  Biso   1.000  N
  C33      1.0000 0.42500  0.26850  0.00000  Biso   1.000  C
  C34      1.0000 0.27350  0.17000  0.00000  Biso   1.000  C
  C35      1.0000 0.19150  0.11790  0.00000  Biso   1.000  C
  C36      1.0000 0.11270  0.16440  0.00000  Biso   1.000  C
  C37      1.0000 0.10580  0.25800  0.00000  Biso   1.000  C
  H33      1.0000 0.15160  0.29740  0.00000  Biso   1.000  H
  C38      1.0000 0.02070  0.27740  0.00000  Biso   1.000  C
  H34      1.0000 0.99720  0.33310  0.00000  Biso   1.000  H
  C39      1.0000 0.97200  0.19810  0.00000  Biso   1.000  C
  O17      1.0000 0.58954  0.25267  0.00000  Biso   1.000  O
  S2       1.0000 0.47326  0.67904  0.00000  Biso   1.000  S
  N2       1.0000 0.97010  0.87030  0.00000  Biso   1.000  N
  C40      1.0000 0.57500  0.73150  0.00000  Biso   1.000  C
  C41      1.0000 0.72650  0.83000  0.00000  Biso   1.000  C
  C42      1.0000 0.80850  0.88210  0.00000  Biso   1.000  C
  C43      1.0000 0.88730  0.83560  0.00000  Biso   1.000  C
  C44      1.0000 0.89420  0.74200  0.00000  Biso   1.000  C
  H35      1.0000 0.84840  0.70260  0.00000  Biso   1.000  H
  C45      1.0000 0.97930  0.72260  0.00000  Biso   1.000  C
  H36      1.0000 0.00280  0.66690  0.00000  Biso   1.000  H
  C46      1.0000 0.02800  0.80190  0.00000  Biso   1.000  C
  O18      1.0000 0.41046  0.74733  0.00000  Biso   1.000  O
  S3       1.0000 0.67904  0.52674  0.00000  Biso   1.000  S
  N3       1.0000 0.87030  0.02990  0.00000  Biso   1.000  N
  C47      1.0000 0.73150  0.42500  0.00000  Biso   1.000  C
  C48      1.0000 0.83000  0.27350  0.00000  Biso   1.000  C
  C49      1.0000 0.88210  0.19150  0.00000  Biso   1.000  C
  C50      1.0000 0.83560  0.11270  0.00000  Biso   1.000  C
  C51      1.0000 0.74200  0.10580  0.00000  Biso   1.000  C
  H37      1.0000 0.70260  0.15160  0.00000  Biso   1.000  H
  C52      1.0000 0.72260  0.02070  0.00000  Biso   1.000  C
  H38      1.0000 0.66690  0.99720  0.00000  Biso   1.000  H
  C53      1.0000 0.80190  0.97200  0.00000  Biso   1.000  C
  O19      1.0000 0.74733  0.58954  0.00000  Biso   1.000  O
  S4       1.0000 0.32096  0.47326  0.00000  Biso   1.000  S
  N4       1.0000 0.12970  0.97010  0.00000  Biso   1.000  N
  C54      1.0000 0.26850  0.57500  0.00000  Biso   1.000  C
  C55      1.0000 0.17000  0.72650  0.00000  Biso   1.000  C
  C56      1.0000 0.11790  0.80850  0.00000  Biso   1.000  C
  C57      1.0000 0.16440  0.88730  0.00000  Biso   1.000  C
  C58      1.0000 0.25800  0.89420  0.00000  Biso   1.000  C
  H39      1.0000 0.29740  0.84840  0.00000  Biso   1.000  H
  C59      1.0000 0.27740  0.97930  0.00000  Biso   1.000  C
  H40      1.0000 0.33310  0.00280  0.00000  Biso   1.000  H
  C60      1.0000 0.19810  0.02800  0.00000  Biso   1.000  C
  O20      1.0000 0.25267  0.41046  0.00000  Biso   1.000  O
  S5       1.0000 0.47326  0.32096  0.50000  Biso   1.000  S
  N5       1.0000 0.97010  0.12970  0.50000  Biso   1.000  N
  C61      1.0000 0.57500  0.26850  0.50000  Biso   1.000  C
  C62      1.0000 0.72650  0.17000  0.50000  Biso   1.000  C
  C63      1.0000 0.80850  0.11790  0.50000  Biso   1.000  C
  C64      1.0000 0.88730  0.16440  0.50000  Biso   1.000  C
  C65      1.0000 0.89420  0.25800  0.50000  Biso   1.000  C
  H41      1.0000 0.84840  0.29740  0.50000  Biso   1.000  H
  C66      1.0000 0.97930  0.27740  0.50000  Biso   1.000  C
  H42      1.0000 0.00280  0.33310  0.50000  Biso   1.000  H
  C67      1.0000 0.02800  0.19810  0.50000  Biso   1.000  C
  O21      1.0000 0.41046  0.25267  0.50000  Biso   1.000  O
  S6       1.0000 0.52674  0.67904  0.50000  Biso   1.000  S
  N6       1.0000 0.02990  0.87030  0.50000  Biso   1.000  N
  C68      1.0000 0.42500  0.73150  0.50000  Biso   1.000  C
  C69      1.0000 0.27350  0.83000  0.50000  Biso   1.000  C
  C70      1.0000 0.19150  0.88210  0.50000  Biso   1.000  C
  C71      1.0000 0.11270  0.83560  0.50000  Biso   1.000  C
  C72      1.0000 0.10580  0.74200  0.50000  Biso   1.000  C
  H43      1.0000 0.15160  0.70260  0.50000  Biso   1.000  H
  C73      1.0000 0.02070  0.72260  0.50000  Biso   1.000  C
  H44      1.0000 0.99720  0.66690  0.50000  Biso   1.000  H
  C74      1.0000 0.97200  0.80190  0.50000  Biso   1.000  C
  O22      1.0000 0.58954  0.74733  0.50000  Biso   1.000  O
  S7       1.0000 0.32096  0.52674  0.50000  Biso   1.000  S
  N7       1.0000 0.12970  0.02990  0.50000  Biso   1.000  N
  C75      1.0000 0.26850  0.42500  0.50000  Biso   1.000  C
  C76      1.0000 0.17000  0.27350  0.50000  Biso   1.000  C
  C77      1.0000 0.11790  0.19150  0.50000  Biso   1.000  C
  C78      1.0000 0.16440  0.11270  0.50000  Biso   1.000  C
  C79      1.0000 0.25800  0.10580  0.50000  Biso   1.000  C
  H45      1.0000 0.29740  0.15160  0.50000  Biso   1.000  H
  C80      1.0000 0.27740  0.02070  0.50000  Biso   1.000  C
  H46      1.0000 0.33310  0.99720  0.50000  Biso   1.000  H
  C81      1.0000 0.19810  0.97200  0.50000  Biso   1.000  C
  O23      1.0000 0.25267  0.58954  0.50000  Biso   1.000  O
  S8       1.0000 0.67904  0.47326  0.50000  Biso   1.000  S
  N8       1.0000 0.87030  0.97010  0.50000  Biso   1.000  N
  C82      1.0000 0.73150  0.57500  0.50000  Biso   1.000  C
  C83      1.0000 0.83000  0.72650  0.50000  Biso   1.000  C
  C84      1.0000 0.88210  0.80850  0.50000  Biso   1.000  C
  C85      1.0000 0.83560  0.88730  0.50000  Biso   1.000  C
  C86      1.0000 0.74200  0.89420  0.50000  Biso   1.000  C
  H47      1.0000 0.70260  0.84840  0.50000  Biso   1.000  H
  C87      1.0000 0.72260  0.97930  0.50000  Biso   1.000  C
  H48      1.0000 0.66690  0.00280  0.50000  Biso   1.000  H
  C88      1.0000 0.80190  0.02800  0.50000  Biso   1.000  C
  O24      1.0000 0.74733  0.41046  0.50000  Biso   1.000  O
