data_image0
_cell_length_a       15.512
_cell_length_b       13.7953
_cell_length_c       13.0199
_cell_angle_alpha    90
_cell_angle_beta     90
_cell_angle_gamma    90

_symmetry_space_group_name_H-M    "P 1"
_symmetry_int_tables_number       1

loop_
  _symmetry_equiv_pos_as_xyz
  'x, y, z'

loop_
  _atom_site_label
  _atom_site_occupancy
  _atom_site_fract_x
  _atom_site_fract_y
  _atom_site_fract_z
  _atom_site_thermal_displace_type
  _atom_site_B_iso_or_equiv
  _atom_site_type_symbol
  U1       1.0000 0.24452  0.49013  0.43733  Biso   1.000  U
  U2       1.0000 0.22309  0.23857  0.58577  Biso   1.000  U
  P1       1.0000 0.22270  0.01820  0.17570  Biso   1.000  P
  P2       1.0000 0.18670  0.24210  0.34450  Biso   1.000  P
  O1       1.0000 0.19750  0.32780  0.42050  Biso   1.000  O
  O2       1.0000 0.26730  0.09300  0.10270  Biso   1.000  O
  O3       1.0000 0.21090  0.93180  0.10110  Biso   1.000  O
  O4       1.0000 0.20900  0.15360  0.41410  Biso   1.000  O
  O5       1.0000 0.28150  0.99220  0.26410  Biso   1.000  O
  O6       1.0000 0.25410  0.25180  0.25680  Biso   1.000  O
  O7       1.0000 0.09520  0.23870  0.30600  Biso   1.000  O
  O8       1.0000 0.13740  0.05340  0.21350  Biso   1.000  O
  U3       1.0000 0.74452  0.99013  0.43733  Biso   1.000  U
  U4       1.0000 0.72309  0.73857  0.58577  Biso   1.000  U
  P3       1.0000 0.72270  0.51820  0.17570  Biso   1.000  P
  P4       1.0000 0.68670  0.74210  0.34450  Biso   1.000  P
  O9       1.0000 0.69750  0.82780  0.42050  Biso   1.000  O
  O10      1.0000 0.76730  0.59300  0.10270  Biso   1.000  O
  O11      1.0000 0.71090  0.43180  0.10110  Biso   1.000  O
  O12      1.0000 0.70900  0.65360  0.41410  Biso   1.000  O
  O13      1.0000 0.78150  0.49220  0.26410  Biso   1.000  O
  O14      1.0000 0.75410  0.75180  0.25680  Biso   1.000  O
  O15      1.0000 0.59520  0.73870  0.30600  Biso   1.000  O
  O16      1.0000 0.63740  0.55340  0.21350  Biso   1.000  O
  U5       1.0000 0.75548  0.50987  0.93733  Biso   1.000  U
  U6       1.0000 0.77691  0.76143  0.08577  Biso   1.000  U
  P5       1.0000 0.77730  0.98180  0.67570  Biso   1.000  P
  P6       1.0000 0.81330  0.75790  0.84450  Biso   1.000  P
  O17      1.0000 0.80250  0.67220  0.92050  Biso   1.000  O
  O18      1.0000 0.73270  0.90700  0.60270  Biso   1.000  O
  O19      1.0000 0.78910  0.06820  0.60110  Biso   1.000  O
  O20      1.0000 0.79100  0.84640  0.91410  Biso   1.000  O
  O21      1.0000 0.71850  0.00780  0.76410  Biso   1.000  O
  O22      1.0000 0.74590  0.74820  0.75680  Biso   1.000  O
  O23      1.0000 0.90480  0.76130  0.80600  Biso   1.000  O
  O24      1.0000 0.86260  0.94660  0.71350  Biso   1.000  O
  U7       1.0000 0.25548  0.00987  0.93733  Biso   1.000  U
  U8       1.0000 0.27691  0.26143  0.08577  Biso   1.000  U
  P7       1.0000 0.27730  0.48180  0.67570  Biso   1.000  P
  P8       1.0000 0.31330  0.25790  0.84450  Biso   1.000  P
  O25      1.0000 0.30250  0.17220  0.92050  Biso   1.000  O
  O26      1.0000 0.23270  0.40700  0.60270  Biso   1.000  O
  O27      1.0000 0.28910  0.56820  0.60110  Biso   1.000  O
  O28      1.0000 0.29100  0.34640  0.91410  Biso   1.000  O
  O29      1.0000 0.21850  0.50780  0.76410  Biso   1.000  O
  O30      1.0000 0.24590  0.24820  0.75680  Biso   1.000  O
  O31      1.0000 0.40480  0.26130  0.80600  Biso   1.000  O
  O32      1.0000 0.36260  0.44660  0.71350  Biso   1.000  O
  U9       1.0000 0.24452  0.50987  0.93733  Biso   1.000  U
  U10      1.0000 0.22309  0.76143  0.08577  Biso   1.000  U
  P9       1.0000 0.22270  0.98180  0.67570  Biso   1.000  P
  P10      1.0000 0.18670  0.75790  0.84450  Biso   1.000  P
  O33      1.0000 0.19750  0.67220  0.92050  Biso   1.000  O
  O34      1.0000 0.26730  0.90700  0.60270  Biso   1.000  O
  O35      1.0000 0.21090  0.06820  0.60110  Biso   1.000  O
  O36      1.0000 0.20900  0.84640  0.91410  Biso   1.000  O
  O37      1.0000 0.28150  0.00780  0.76410  Biso   1.000  O
  O38      1.0000 0.25410  0.74820  0.75680  Biso   1.000  O
  O39      1.0000 0.09520  0.76130  0.80600  Biso   1.000  O
  O40      1.0000 0.13740  0.94660  0.71350  Biso   1.000  O
  U11      1.0000 0.74452  0.00987  0.93733  Biso   1.000  U
  U12      1.0000 0.72309  0.26143  0.08577  Biso   1.000  U
  P11      1.0000 0.72270  0.48180  0.67570  Biso   1.000  P
  P12      1.0000 0.68670  0.25790  0.84450  Biso   1.000  P
  O41      1.0000 0.69750  0.17220  0.92050  Biso   1.000  O
  O42      1.0000 0.76730  0.40700  0.60270  Biso   1.000  O
  O43      1.0000 0.71090  0.56820  0.60110  Biso   1.000  O
  O44      1.0000 0.70900  0.34640  0.91410  Biso   1.000  O
  O45      1.0000 0.78150  0.50780  0.76410  Biso   1.000  O
  O46      1.0000 0.75410  0.24820  0.75680  Biso   1.000  O
  O47      1.0000 0.59520  0.26130  0.80600  Biso   1.000  O
  O48      1.0000 0.63740  0.44660  0.71350  Biso   1.000  O
  U13      1.0000 0.75548  0.49013  0.43733  Biso   1.000  U
  U14      1.0000 0.77691  0.23857  0.58577  Biso   1.000  U
  P13      1.0000 0.77730  0.01820  0.17570  Biso   1.000  P
  P14      1.0000 0.81330  0.24210  0.34450  Biso   1.000  P
  O49      1.0000 0.80250  0.32780  0.42050  Biso   1.000  O
  O50      1.0000 0.73270  0.09300  0.10270  Biso   1.000  O
  O51      1.0000 0.78910  0.93180  0.10110  Biso   1.000  O
  O52      1.0000 0.79100  0.15360  0.41410  Biso   1.000  O
  O53      1.0000 0.71850  0.99220  0.26410  Biso   1.000  O
  O54      1.0000 0.74590  0.25180  0.25680  Biso   1.000  O
  O55      1.0000 0.90480  0.23870  0.30600  Biso   1.000  O
  O56      1.0000 0.86260  0.05340  0.21350  Biso   1.000  O
  U15      1.0000 0.25548  0.99013  0.43733  Biso   1.000  U
  U16      1.0000 0.27691  0.73857  0.58577  Biso   1.000  U
  P15      1.0000 0.27730  0.51820  0.17570  Biso   1.000  P
  P16      1.0000 0.31330  0.74210  0.34450  Biso   1.000  P
  O57      1.0000 0.30250  0.82780  0.42050  Biso   1.000  O
  O58      1.0000 0.23270  0.59300  0.10270  Biso   1.000  O
  O59      1.0000 0.28910  0.43180  0.10110  Biso   1.000  O
  O60      1.0000 0.29100  0.65360  0.41410  Biso   1.000  O
  O61      1.0000 0.21850  0.49220  0.26410  Biso   1.000  O
  O62      1.0000 0.24590  0.75180  0.25680  Biso   1.000  O
  O63      1.0000 0.40480  0.73870  0.30600  Biso   1.000  O
  O64      1.0000 0.36260  0.55340  0.21350  Biso   1.000  O
  U17      1.0000 0.00000  0.11612  0.24394  Biso   1.000  U
  U18      1.0000 0.50000  0.61612  0.24394  Biso   1.000  U
  U19      1.0000 0.00000  0.88388  0.74394  Biso   1.000  U
  U20      1.0000 0.50000  0.38388  0.74394  Biso   1.000  U
