data_image0
_cell_length_a       15.52
_cell_length_b       13.89
_cell_length_c       13.0769
_cell_angle_alpha    90
_cell_angle_beta     90
_cell_angle_gamma    90

_symmetry_space_group_name_H-M    "P 1"
_symmetry_int_tables_number       1

loop_
  _symmetry_equiv_pos_as_xyz
  'x, y, z'

loop_
  _atom_site_label
  _atom_site_occupancy
  _atom_site_fract_x
  _atom_site_fract_y
  _atom_site_fract_z
  _atom_site_thermal_displace_type
  _atom_site_B_iso_or_equiv
  _atom_site_type_symbol
  U1       1.0000 0.26136  0.98959  0.43733  Biso   1.000  U
  U2       1.0000 0.27438  0.73750  0.58520  Biso   1.000  U
  P1       1.0000 0.27580  0.51870  0.17570  Biso   1.000  P
  P2       1.0000 0.31290  0.73950  0.34590  Biso   1.000  P
  O1       1.0000 0.30510  0.82500  0.42040  Biso   1.000  O
  O2       1.0000 0.23300  0.59360  0.10390  Biso   1.000  O
  O3       1.0000 0.27980  0.43140  0.10210  Biso   1.000  O
  O4       1.0000 0.28460  0.65370  0.41440  Biso   1.000  O
  O5       1.0000 0.21740  0.49460  0.26480  Biso   1.000  O
  O6       1.0000 0.24910  0.75210  0.25540  Biso   1.000  O
  O7       1.0000 0.40460  0.72760  0.30870  Biso   1.000  O
  O8       1.0000 0.36330  0.54970  0.20960  Biso   1.000  O
  U3       1.0000 0.76136  0.48959  0.43733  Biso   1.000  U
  U4       1.0000 0.77438  0.23750  0.58520  Biso   1.000  U
  P3       1.0000 0.77580  0.01870  0.17570  Biso   1.000  P
  P4       1.0000 0.81290  0.23950  0.34590  Biso   1.000  P
  O9       1.0000 0.80510  0.32500  0.42040  Biso   1.000  O
  O10      1.0000 0.73300  0.09360  0.10390  Biso   1.000  O
  O11      1.0000 0.77980  0.93140  0.10210  Biso   1.000  O
  O12      1.0000 0.78460  0.15370  0.41440  Biso   1.000  O
  O13      1.0000 0.71740  0.99460  0.26480  Biso   1.000  O
  O14      1.0000 0.74910  0.25210  0.25540  Biso   1.000  O
  O15      1.0000 0.90460  0.22760  0.30870  Biso   1.000  O
  O16      1.0000 0.86330  0.04970  0.20960  Biso   1.000  O
  U5       1.0000 0.73864  0.01041  0.93733  Biso   1.000  U
  U6       1.0000 0.72562  0.26250  0.08520  Biso   1.000  U
  P5       1.0000 0.72420  0.48130  0.67570  Biso   1.000  P
  P6       1.0000 0.68710  0.26050  0.84590  Biso   1.000  P
  O17      1.0000 0.69490  0.17500  0.92040  Biso   1.000  O
  O18      1.0000 0.76700  0.40640  0.60390  Biso   1.000  O
  O19      1.0000 0.72020  0.56860  0.60210  Biso   1.000  O
  O20      1.0000 0.71540  0.34630  0.91440  Biso   1.000  O
  O21      1.0000 0.78260  0.50540  0.76480  Biso   1.000  O
  O22      1.0000 0.75090  0.24790  0.75540  Biso   1.000  O
  O23      1.0000 0.59540  0.27240  0.80870  Biso   1.000  O
  O24      1.0000 0.63670  0.45030  0.70960  Biso   1.000  O
  U7       1.0000 0.23864  0.51041  0.93733  Biso   1.000  U
  U8       1.0000 0.22562  0.76250  0.08520  Biso   1.000  U
  P7       1.0000 0.22420  0.98130  0.67570  Biso   1.000  P
  P8       1.0000 0.18710  0.76050  0.84590  Biso   1.000  P
  O25      1.0000 0.19490  0.67500  0.92040  Biso   1.000  O
  O26      1.0000 0.26700  0.90640  0.60390  Biso   1.000  O
  O27      1.0000 0.22020  0.06860  0.60210  Biso   1.000  O
  O28      1.0000 0.21540  0.84630  0.91440  Biso   1.000  O
  O29      1.0000 0.28260  0.00540  0.76480  Biso   1.000  O
  O30      1.0000 0.25090  0.74790  0.75540  Biso   1.000  O
  O31      1.0000 0.09540  0.77240  0.80870  Biso   1.000  O
  O32      1.0000 0.13670  0.95030  0.70960  Biso   1.000  O
  U9       1.0000 0.26136  0.01041  0.93733  Biso   1.000  U
  U10      1.0000 0.27438  0.26250  0.08520  Biso   1.000  U
  P9       1.0000 0.27580  0.48130  0.67570  Biso   1.000  P
  P10      1.0000 0.31290  0.26050  0.84590  Biso   1.000  P
  O33      1.0000 0.30510  0.17500  0.92040  Biso   1.000  O
  O34      1.0000 0.23300  0.40640  0.60390  Biso   1.000  O
  O35      1.0000 0.27980  0.56860  0.60210  Biso   1.000  O
  O36      1.0000 0.28460  0.34630  0.91440  Biso   1.000  O
  O37      1.0000 0.21740  0.50540  0.76480  Biso   1.000  O
  O38      1.0000 0.24910  0.24790  0.75540  Biso   1.000  O
  O39      1.0000 0.40460  0.27240  0.80870  Biso   1.000  O
  O40      1.0000 0.36330  0.45030  0.70960  Biso   1.000  O
  U11      1.0000 0.76136  0.51041  0.93733  Biso   1.000  U
  U12      1.0000 0.77438  0.76250  0.08520  Biso   1.000  U
  P11      1.0000 0.77580  0.98130  0.67570  Biso   1.000  P
  P12      1.0000 0.81290  0.76050  0.84590  Biso   1.000  P
  O41      1.0000 0.80510  0.67500  0.92040  Biso   1.000  O
  O42      1.0000 0.73300  0.90640  0.60390  Biso   1.000  O
  O43      1.0000 0.77980  0.06860  0.60210  Biso   1.000  O
  O44      1.0000 0.78460  0.84630  0.91440  Biso   1.000  O
  O45      1.0000 0.71740  0.00540  0.76480  Biso   1.000  O
  O46      1.0000 0.74910  0.74790  0.75540  Biso   1.000  O
  O47      1.0000 0.90460  0.77240  0.80870  Biso   1.000  O
  O48      1.0000 0.86330  0.95030  0.70960  Biso   1.000  O
  U13      1.0000 0.73864  0.98959  0.43733  Biso   1.000  U
  U14      1.0000 0.72562  0.73750  0.58520  Biso   1.000  U
  P13      1.0000 0.72420  0.51870  0.17570  Biso   1.000  P
  P14      1.0000 0.68710  0.73950  0.34590  Biso   1.000  P
  O49      1.0000 0.69490  0.82500  0.42040  Biso   1.000  O
  O50      1.0000 0.76700  0.59360  0.10390  Biso   1.000  O
  O51      1.0000 0.72020  0.43140  0.10210  Biso   1.000  O
  O52      1.0000 0.71540  0.65370  0.41440  Biso   1.000  O
  O53      1.0000 0.78260  0.49460  0.26480  Biso   1.000  O
  O54      1.0000 0.75090  0.75210  0.25540  Biso   1.000  O
  O55      1.0000 0.59540  0.72760  0.30870  Biso   1.000  O
  O56      1.0000 0.63670  0.54970  0.20960  Biso   1.000  O
  U15      1.0000 0.23864  0.48959  0.43733  Biso   1.000  U
  U16      1.0000 0.22562  0.23750  0.58520  Biso   1.000  U
  P15      1.0000 0.22420  0.01870  0.17570  Biso   1.000  P
  P16      1.0000 0.18710  0.23950  0.34590  Biso   1.000  P
  O57      1.0000 0.19490  0.32500  0.42040  Biso   1.000  O
  O58      1.0000 0.26700  0.09360  0.10390  Biso   1.000  O
  O59      1.0000 0.22020  0.93140  0.10210  Biso   1.000  O
  O60      1.0000 0.21540  0.15370  0.41440  Biso   1.000  O
  O61      1.0000 0.28260  0.99460  0.26480  Biso   1.000  O
  O62      1.0000 0.25090  0.25210  0.25540  Biso   1.000  O
  O63      1.0000 0.09540  0.22760  0.30870  Biso   1.000  O
  O64      1.0000 0.13670  0.04970  0.20960  Biso   1.000  O
  U17      1.0000 0.50000  0.61003  0.24730  Biso   1.000  U
  U18      1.0000 0.00000  0.11003  0.24730  Biso   1.000  U
  U19      1.0000 0.50000  0.38997  0.74730  Biso   1.000  U
  U20      1.0000 0.00000  0.88997  0.74730  Biso   1.000  U
