data_image0
_cell_length_a       12.7846
_cell_length_b       12.8311
_cell_length_c       15.9937
_cell_angle_alpha    67.358
_cell_angle_beta     67.224
_cell_angle_gamma    63.053

_symmetry_space_group_name_H-M    "P 1"
_symmetry_int_tables_number       1

loop_
  _symmetry_equiv_pos_as_xyz
  'x, y, z'

loop_
  _atom_site_label
  _atom_site_occupancy
  _atom_site_fract_x
  _atom_site_fract_y
  _atom_site_fract_z
  _atom_site_thermal_displace_type
  _atom_site_B_iso_or_equiv
  _atom_site_type_symbol
  Mo1      1.0000 0.66155  0.70436  0.15697  Biso   1.000  Mo
  Mo2      1.0000 0.20636  0.15811  0.16284  Biso   1.000  Mo
  Mo3      1.0000 0.20000  0.96118  0.15867  Biso   1.000  Mo
  Mo4      1.0000 0.47623  0.16176  0.16503  Biso   1.000  Mo
  Mo5      1.0000 0.46194  0.70115  0.15402  Biso   1.000  Mo
  Mo6      1.0000 0.66947  0.96767  0.16436  Biso   1.000  Mo
  Co1      1.0000 0.03364  0.52729  0.38380  Biso   1.000  Co
  P1       1.0000 0.21071  0.28542  0.30999  Biso   1.000  P
  P2       1.0000 0.79428  0.69981  0.30515  Biso   1.000  P
  P3       1.0000 0.20704  0.70239  0.31838  Biso   1.000  P
  P4       1.0000 0.40718  0.90026  0.27181  Biso   1.000  P
  O1       1.0000 0.23490  0.72320  0.39750  Biso   1.000  O
  O2       1.0000 0.72650  0.67500  0.40830  Biso   1.000  O
  O3       1.0000 0.19010  0.21580  0.41350  Biso   1.000  O
  O4       1.0000 0.36400  0.85280  0.37520  Biso   1.000  O
  O5       1.0000 0.15680  0.42080  0.29590  Biso   1.000  O
  O6       1.0000 0.75480  0.64570  0.25530  Biso   1.000  O
  O7       1.0000 0.34900  0.24930  0.26540  Biso   1.000  O
  O8       1.0000 0.93140  0.64410  0.29020  Biso   1.000  O
  O9       1.0000 0.74630  0.83120  0.09420  Biso   1.000  O
  O10      1.0000 0.75760  0.83820  0.26270  Biso   1.000  O
  O11      1.0000 0.36050  0.04040  0.23830  Biso   1.000  O
  O12      1.0000 0.54730  0.85420  0.23460  Biso   1.000  O
  O13      1.0000 0.14000  0.82500  0.25950  Biso   1.000  O
  O14      1.0000 0.32740  0.63870  0.25520  Biso   1.000  O
  O15      1.0000 0.15180  0.24810  0.26280  Biso   1.000  O
  O16      1.0000 0.33500  0.24000  0.09910  Biso   1.000  O
  O17      1.0000 0.10710  0.39210  0.50270  Biso   1.000  O
  O18      1.0000 0.13050  0.62620  0.36990  Biso   1.000  O
  O19      1.0000 0.32000  0.82420  0.08850  Biso   1.000  O
  O20      1.0000 0.35770  0.85410  0.22270  Biso   1.000  O
  O21      1.0000 0.13210  0.04300  0.25770  Biso   1.000  O
  O22      1.0000 0.54780  0.62980  0.25170  Biso   1.000  O
  O23      1.0000 0.56250  0.05400  0.26120  Biso   1.000  O
  O24      1.0000 0.55730  0.05060  0.08190  Biso   1.000  O
  O25      1.0000 0.31010  0.05080  0.07680  Biso   1.000  O
  O26      1.0000 0.55190  0.81180  0.07310  Biso   1.000  O
  Mo7      1.0000 0.33845  0.29564  0.84303  Biso   1.000  Mo
  Mo8      1.0000 0.79364  0.84189  0.83716  Biso   1.000  Mo
  Mo9      1.0000 0.80000  0.03882  0.84133  Biso   1.000  Mo
  Mo10     1.0000 0.52377  0.83824  0.83497  Biso   1.000  Mo
  Mo11     1.0000 0.53806  0.29885  0.84598  Biso   1.000  Mo
  Mo12     1.0000 0.33053  0.03233  0.83564  Biso   1.000  Mo
  Co2      1.0000 0.96636  0.47271  0.61620  Biso   1.000  Co
  P5       1.0000 0.78929  0.71458  0.69001  Biso   1.000  P
  P6       1.0000 0.20572  0.30019  0.69485  Biso   1.000  P
  P7       1.0000 0.79296  0.29761  0.68162  Biso   1.000  P
  P8       1.0000 0.59282  0.09974  0.72819  Biso   1.000  P
  O27      1.0000 0.76510  0.27680  0.60250  Biso   1.000  O
  O28      1.0000 0.27350  0.32500  0.59170  Biso   1.000  O
  O29      1.0000 0.80990  0.78420  0.58650  Biso   1.000  O
  O30      1.0000 0.63600  0.14720  0.62480  Biso   1.000  O
  O31      1.0000 0.84320  0.57920  0.70410  Biso   1.000  O
  O32      1.0000 0.24520  0.35430  0.74470  Biso   1.000  O
  O33      1.0000 0.65100  0.75070  0.73460  Biso   1.000  O
  O34      1.0000 0.06860  0.35590  0.70980  Biso   1.000  O
  O35      1.0000 0.25370  0.16880  0.90580  Biso   1.000  O
  O36      1.0000 0.24240  0.16180  0.73730  Biso   1.000  O
  O37      1.0000 0.63950  0.95960  0.76170  Biso   1.000  O
  O38      1.0000 0.45270  0.14580  0.76540  Biso   1.000  O
  O39      1.0000 0.86000  0.17500  0.74050  Biso   1.000  O
  O40      1.0000 0.67260  0.36130  0.74480  Biso   1.000  O
  O41      1.0000 0.84820  0.75190  0.73720  Biso   1.000  O
  O42      1.0000 0.66500  0.76000  0.90090  Biso   1.000  O
  O43      1.0000 0.89290  0.60790  0.49730  Biso   1.000  O
  O44      1.0000 0.86950  0.37380  0.63010  Biso   1.000  O
  O45      1.0000 0.68000  0.17580  0.91150  Biso   1.000  O
  O46      1.0000 0.64230  0.14590  0.77730  Biso   1.000  O
  O47      1.0000 0.86790  0.95700  0.74230  Biso   1.000  O
  O48      1.0000 0.45220  0.37020  0.74830  Biso   1.000  O
  O49      1.0000 0.43750  0.94600  0.73880  Biso   1.000  O
  O50      1.0000 0.44270  0.94940  0.91810  Biso   1.000  O
  O51      1.0000 0.68990  0.94920  0.92320  Biso   1.000  O
  O52      1.0000 0.44810  0.18820  0.92690  Biso   1.000  O
  Co3      1.0000 0.50000  0.00000  0.00000  Biso   1.000  Co
