data_image0
_cell_length_a       8.5009
_cell_length_b       15.3652
_cell_length_c       13.374
_cell_angle_alpha    90
_cell_angle_beta     90
_cell_angle_gamma    90

_symmetry_space_group_name_H-M    "P 1"
_symmetry_int_tables_number       1

loop_
  _symmetry_equiv_pos_as_xyz
  'x, y, z'

loop_
  _atom_site_label
  _atom_site_occupancy
  _atom_site_fract_x
  _atom_site_fract_y
  _atom_site_fract_z
  _atom_site_thermal_displace_type
  _atom_site_B_iso_or_equiv
  _atom_site_type_symbol
  Be1      1.0000 0.53430  0.41127  0.39087  Biso   1.000  Be
  P1       1.0000 0.02744  0.09807  0.38781  Biso   1.000  P
  H1       1.0000 0.15770  0.09020  0.33780  Biso   1.000  H
  P2       1.0000 0.25290  0.36865  0.27254  Biso   1.000  P
  H2       1.0000 0.16690  0.43850  0.26060  Biso   1.000  H
  O1       1.0000 0.07181  0.12049  0.49494  Biso   1.000  O
  O2       1.0000 0.93683  0.01426  0.37758  Biso   1.000  O
  O3       1.0000 0.93716  0.17388  0.34073  Biso   1.000  O
  O4       1.0000 0.14200  0.29438  0.29409  Biso   1.000  O
  O5       1.0000 0.34447  0.35553  0.17718  Biso   1.000  O
  O6       1.0000 0.35271  0.38425  0.36507  Biso   1.000  O
  Be2      1.0000 0.96570  0.08873  0.89087  Biso   1.000  Be
  P3       1.0000 0.47256  0.40193  0.88781  Biso   1.000  P
  H3       1.0000 0.34230  0.40980  0.83780  Biso   1.000  H
  P4       1.0000 0.24710  0.13135  0.77254  Biso   1.000  P
  H4       1.0000 0.33310  0.06150  0.76060  Biso   1.000  H
  O7       1.0000 0.42819  0.37951  0.99494  Biso   1.000  O
  O8       1.0000 0.56317  0.48574  0.87758  Biso   1.000  O
  O9       1.0000 0.56284  0.32612  0.84073  Biso   1.000  O
  O10      1.0000 0.35800  0.20562  0.79409  Biso   1.000  O
  O11      1.0000 0.15553  0.14447  0.67718  Biso   1.000  O
  O12      1.0000 0.14729  0.11575  0.86507  Biso   1.000  O
  Be3      1.0000 0.46570  0.41127  0.10913  Biso   1.000  Be
  P5       1.0000 0.97256  0.09807  0.11219  Biso   1.000  P
  H5       1.0000 0.84230  0.09020  0.16220  Biso   1.000  H
  P6       1.0000 0.74710  0.36865  0.22746  Biso   1.000  P
  H6       1.0000 0.83310  0.43850  0.23940  Biso   1.000  H
  O13      1.0000 0.92819  0.12049  0.00506  Biso   1.000  O
  O14      1.0000 0.06317  0.01426  0.12242  Biso   1.000  O
  O15      1.0000 0.06284  0.17388  0.15927  Biso   1.000  O
  O16      1.0000 0.85800  0.29438  0.20591  Biso   1.000  O
  O17      1.0000 0.65553  0.35553  0.32282  Biso   1.000  O
  O18      1.0000 0.64729  0.38425  0.13493  Biso   1.000  O
  Be4      1.0000 0.03430  0.08873  0.60913  Biso   1.000  Be
  P7       1.0000 0.52744  0.40193  0.61219  Biso   1.000  P
  H7       1.0000 0.65770  0.40980  0.66220  Biso   1.000  H
  P8       1.0000 0.75290  0.13135  0.72746  Biso   1.000  P
  H8       1.0000 0.66690  0.06150  0.73940  Biso   1.000  H
  O19      1.0000 0.57181  0.37951  0.50506  Biso   1.000  O
  O20      1.0000 0.43683  0.48574  0.62242  Biso   1.000  O
  O21      1.0000 0.43716  0.32612  0.65927  Biso   1.000  O
  O22      1.0000 0.64200  0.20562  0.70591  Biso   1.000  O
  O23      1.0000 0.84447  0.14447  0.82282  Biso   1.000  O
  O24      1.0000 0.85271  0.11575  0.63493  Biso   1.000  O
  Be5      1.0000 0.46570  0.58873  0.60913  Biso   1.000  Be
  P9       1.0000 0.97256  0.90193  0.61219  Biso   1.000  P
  H9       1.0000 0.84230  0.90980  0.66220  Biso   1.000  H
  P10      1.0000 0.74710  0.63135  0.72746  Biso   1.000  P
  H10      1.0000 0.83310  0.56150  0.73940  Biso   1.000  H
  O25      1.0000 0.92819  0.87951  0.50506  Biso   1.000  O
  O26      1.0000 0.06317  0.98574  0.62242  Biso   1.000  O
  O27      1.0000 0.06284  0.82612  0.65927  Biso   1.000  O
  O28      1.0000 0.85800  0.70562  0.70591  Biso   1.000  O
  O29      1.0000 0.65553  0.64447  0.82282  Biso   1.000  O
  O30      1.0000 0.64729  0.61575  0.63493  Biso   1.000  O
  Be6      1.0000 0.03430  0.91127  0.10913  Biso   1.000  Be
  P11      1.0000 0.52744  0.59807  0.11219  Biso   1.000  P
  H11      1.0000 0.65770  0.59020  0.16220  Biso   1.000  H
  P12      1.0000 0.75290  0.86865  0.22746  Biso   1.000  P
  H12      1.0000 0.66690  0.93850  0.23940  Biso   1.000  H
  O31      1.0000 0.57181  0.62049  0.00506  Biso   1.000  O
  O32      1.0000 0.43683  0.51426  0.12242  Biso   1.000  O
  O33      1.0000 0.43716  0.67388  0.15927  Biso   1.000  O
  O34      1.0000 0.64200  0.79438  0.20591  Biso   1.000  O
  O35      1.0000 0.84447  0.85553  0.32282  Biso   1.000  O
  O36      1.0000 0.85271  0.88425  0.13493  Biso   1.000  O
  Be7      1.0000 0.53430  0.58873  0.89087  Biso   1.000  Be
  P13      1.0000 0.02744  0.90193  0.88781  Biso   1.000  P
  H13      1.0000 0.15770  0.90980  0.83780  Biso   1.000  H
  P14      1.0000 0.25290  0.63135  0.77254  Biso   1.000  P
  H14      1.0000 0.16690  0.56150  0.76060  Biso   1.000  H
  O37      1.0000 0.07181  0.87951  0.99494  Biso   1.000  O
  O38      1.0000 0.93683  0.98574  0.87758  Biso   1.000  O
  O39      1.0000 0.93716  0.82612  0.84073  Biso   1.000  O
  O40      1.0000 0.14200  0.70562  0.79409  Biso   1.000  O
  O41      1.0000 0.34447  0.64447  0.67718  Biso   1.000  O
  O42      1.0000 0.35271  0.61575  0.86507  Biso   1.000  O
  Be8      1.0000 0.96570  0.91127  0.39087  Biso   1.000  Be
  P15      1.0000 0.47256  0.59807  0.38781  Biso   1.000  P
  H15      1.0000 0.34230  0.59020  0.33780  Biso   1.000  H
  P16      1.0000 0.24710  0.86865  0.27254  Biso   1.000  P
  H16      1.0000 0.33310  0.93850  0.26060  Biso   1.000  H
  O43      1.0000 0.42819  0.62049  0.49494  Biso   1.000  O
  O44      1.0000 0.56317  0.51426  0.37758  Biso   1.000  O
  O45      1.0000 0.56284  0.67388  0.34073  Biso   1.000  O
  O46      1.0000 0.35800  0.79438  0.29409  Biso   1.000  O
  O47      1.0000 0.15553  0.85553  0.17718  Biso   1.000  O
  O48      1.0000 0.14729  0.88425  0.36507  Biso   1.000  O
  Be9      1.0000 0.00000  0.23710  0.25000  Biso   1.000  Be
  Be10     1.0000 0.50000  0.26290  0.75000  Biso   1.000  Be
  Be11     1.0000 0.00000  0.76290  0.75000  Biso   1.000  Be
  Be12     1.0000 0.50000  0.73710  0.25000  Biso   1.000  Be
