data_ac403674p_si_001_clean
_audit_creation_date              2015-08-19
_audit_creation_method            'Materials Studio'
_symmetry_space_group_name_H-M    'P1'
_symmetry_Int_Tables_number       1
_symmetry_cell_setting            triclinic
loop_
_symmetry_equiv_pos_as_xyz
  x,y,z
_cell_length_a                    14.7843
_cell_length_b                    15.9539
_cell_length_c                    15.9539
_cell_angle_alpha                 120.0000
_cell_angle_beta                  90.0000
_cell_angle_gamma                 90.0000
loop_
_atom_site_label
_atom_site_type_symbol
_atom_site_fract_x
_atom_site_fract_y
_atom_site_fract_z
_atom_site_U_iso_or_equiv
_atom_site_adp_type
_atom_site_occupancy
Zn1    Zn    0.98510   0.38554   0.63348   0.01267  Uiso   1.00
Zn2    Zn    0.65177   0.24794   0.61446   0.01267  Uiso   1.00
Zn3    Zn    0.48510   0.61446   0.36652   0.01267  Uiso   1.00
Zn4    Zn    0.15177   0.75206   0.38554   0.01267  Uiso   1.00
Zn5    Zn    0.31843   0.36652   0.75206   0.01267  Uiso   1.00
Zn6    Zn    0.81843   0.63348   0.24794   0.01267  Uiso   1.00
H1     H     0.51280   0.71430   0.07010   0.01267  Uiso   1.00
H2     H     0.12997   0.70190   0.17190   0.01267  Uiso   1.00
H3     H     0.33267   0.55720   0.10970   0.01267  Uiso   1.00
H4     H     0.06440   0.20270   0.47360   0.01267  Uiso   1.00
H5     H     0.90660   0.24280   0.78580   0.01267  Uiso   1.00
H6     H     0.99933   0.55250   0.44280   0.01267  Uiso   1.00
H7     H     0.94880   0.00280   0.38490   0.01267  Uiso   1.00
H8     H     0.62997   0.29810   0.82810   0.01267  Uiso   1.00
H9     H     0.12587   0.54170   0.32810   0.01267  Uiso   1.00
H10    H     0.23167   0.61200   0.24400   0.01267  Uiso   1.00
H11    H     0.84613   0.92990   0.64420   0.01267  Uiso   1.00
H12    H     0.76377   0.67560   0.89720   0.01267  Uiso   1.00
H13    H     0.43043   0.22160   0.32440   0.01267  Uiso   1.00
H14    H     0.77533   0.61930   0.47730   0.01267  Uiso   1.00
H15    H     0.10867   0.52270   0.14200   0.01267  Uiso   1.00
H16    H     0.73107   0.27090   0.79730   0.01267  Uiso   1.00
H17    H     0.78213   0.38490   0.38210   0.01267  Uiso   1.00
H18    H     0.34613   0.07010   0.35580   0.01267  Uiso   1.00
H19    H     0.28367   0.35830   0.26880   0.01267  Uiso   1.00
H20    H     0.45033   0.08950   0.35830   0.01267  Uiso   1.00
H21    H     0.59710   0.89720   0.22160   0.01267  Uiso   1.00
H22    H     0.27533   0.38070   0.52270   0.01267  Uiso   1.00
H23    H     0.79663   0.47000   0.29810   0.01267  Uiso   1.00
H24    H     0.79253   0.78640   0.45830   0.01267  Uiso   1.00
H25    H     0.40303   0.09160   0.44730   0.01267  Uiso   1.00
H26    H     0.76187   0.51810   0.76320   0.01267  Uiso   1.00
H27    H     0.07327   0.45700   0.24280   0.01267  Uiso   1.00
H28    H     0.61700   0.73120   0.08950   0.01267  Uiso   1.00
H29    H     0.89833   0.63200   0.38800   0.01267  Uiso   1.00
H30    H     0.73167   0.38800   0.75600   0.01267  Uiso   1.00
H31    H     0.09710   0.10280   0.77840   0.01267  Uiso   1.00
H32    H     0.70890   0.04310   0.49540   0.01267  Uiso   1.00
H33    H     0.60867   0.47730   0.85800   0.01267  Uiso   1.00
H34    H     0.16600   0.10970   0.55250   0.01267  Uiso   1.00
H35    H     0.29663   0.53000   0.70190   0.01267  Uiso   1.00
H36    H     0.39833   0.36800   0.61200   0.01267  Uiso   1.00
H37    H     0.90303   0.90840   0.55270   0.01267  Uiso   1.00
H38    H     0.65807   0.67990   0.89280   0.01267  Uiso   1.00
H39    H     0.66197   0.49230   0.14690   0.01267  Uiso   1.00
H40    H     0.78367   0.64170   0.73120   0.01267  Uiso   1.00
H41    H     0.26377   0.32440   0.10280   0.01267  Uiso   1.00
H42    H     0.62587   0.45830   0.67190   0.01267  Uiso   1.00
H43    H     0.73993   0.78580   0.54300   0.01267  Uiso   1.00
H44    H     0.49140   0.89280   0.21290   0.01267  Uiso   1.00
H45    H     0.17947   0.35580   0.28570   0.01267  Uiso   1.00
H46    H     0.83267   0.44280   0.89030   0.01267  Uiso   1.00
H47    H     0.11700   0.26880   0.91050   0.01267  Uiso   1.00
H48    H     0.20890   0.95690   0.50460   0.01267  Uiso   1.00
H49    H     0.28213   0.61510   0.61790   0.01267  Uiso   1.00
H50    H     0.32473   0.21290   0.32010   0.01267  Uiso   1.00
H51    H     0.54223   0.49540   0.45230   0.01267  Uiso   1.00
H52    H     0.49933   0.44750   0.55720   0.01267  Uiso   1.00
H53    H     0.09520   0.23680   0.75490   0.01267  Uiso   1.00
H54    H     0.06500   0.24400   0.63200   0.01267  Uiso   1.00
H55    H     0.99140   0.10720   0.78710   0.01267  Uiso   1.00
H56    H     0.23637   0.44730   0.35570   0.01267  Uiso   1.00
H57    H     0.04223   0.50460   0.54770   0.01267  Uiso   1.00
H58    H     0.44200   0.85800   0.38070   0.01267  Uiso   1.00
H59    H     0.29253   0.21360   0.54170   0.01267  Uiso   1.00
H60    H     0.70417   0.60660   0.91780   0.01267  Uiso   1.00
H61    H     0.40660   0.75720   0.21420   0.01267  Uiso   1.00
H62    H     0.45920   0.67190   0.21360   0.01267  Uiso   1.00
H63    H     0.37083   0.31120   0.39340   0.01267  Uiso   1.00
H64    H     0.66600   0.89030   0.44750   0.01267  Uiso   1.00
H65    H     0.73637   0.55270   0.64430   0.01267  Uiso   1.00
H66    H     0.67947   0.64420   0.71430   0.01267  Uiso   1.00
H67    H     0.06970   0.35570   0.90840   0.01267  Uiso   1.00
H68    H     0.99530   0.85310   0.34540   0.01267  Uiso   1.00
H69    H     0.82473   0.78710   0.67990   0.01267  Uiso   1.00
H70    H     0.59520   0.76320   0.24510   0.01267  Uiso   1.00
H71    H     0.23107   0.72910   0.20270   0.01267  Uiso   1.00
H72    H     0.61547   0.38210   0.99720   0.01267  Uiso   1.00
H73    H     0.96330   0.17190   0.47000   0.01267  Uiso   1.00
H74    H     0.11547   0.61790   0.00280   0.01267  Uiso   1.00
H75    H     0.95033   0.91050   0.64170   0.01267  Uiso   1.00
H76    H     0.42853   0.24510   0.48190   0.01267  Uiso   1.00
H77    H     0.39773   0.52640   0.72910   0.01267  Uiso   1.00
H78    H     0.53750   0.91780   0.31120   0.01267  Uiso   1.00
H79    H     0.37557   0.45230   0.95690   0.01267  Uiso   1.00
H80    H     0.26187   0.48190   0.23680   0.01267  Uiso   1.00
H81    H     0.15807   0.32010   0.10720   0.01267  Uiso   1.00
H82    H     0.94200   0.14200   0.61930   0.01267  Uiso   1.00
H83    H     0.82863   0.34540   0.49230   0.01267  Uiso   1.00
H84    H     0.44880   0.99720   0.61510   0.01267  Uiso   1.00
H85    H     0.03750   0.08220   0.68880   0.01267  Uiso   1.00
H86    H     0.56970   0.64430   0.09160   0.01267  Uiso   1.00
H87    H     0.92853   0.75490   0.51810   0.01267  Uiso   1.00
H88    H     0.56500   0.75600   0.36800   0.01267  Uiso   1.00
H89    H     0.16197   0.50770   0.85310   0.01267  Uiso   1.00
H90    H     0.87083   0.68880   0.60660   0.01267  Uiso   1.00
H91    H     0.23993   0.21420   0.45700   0.01267  Uiso   1.00
H92    H     0.89773   0.47360   0.27090   0.01267  Uiso   1.00
H93    H     0.32863   0.65460   0.50770   0.01267  Uiso   1.00
H94    H     0.87557   0.54770   0.04310   0.01267  Uiso   1.00
H95    H     0.57327   0.54300   0.75720   0.01267  Uiso   1.00
H96    H     0.20417   0.39340   0.08220   0.01267  Uiso   1.00
H97    H     0.56440   0.79730   0.52640   0.01267  Uiso   1.00
H98    H     0.95920   0.32810   0.78640   0.01267  Uiso   1.00
H99    H     0.93043   0.77840   0.67560   0.01267  Uiso   1.00
H100   H     0.46330   0.82810   0.53000   0.01267  Uiso   1.00
H101   H     0.49530   0.14690   0.65460   0.01267  Uiso   1.00
H102   H     0.01280   0.28570   0.92990   0.01267  Uiso   1.00
C1     C     0.66917   0.41550   0.00460   0.01267  Uiso   1.00
C2     C     0.16917   0.58450   0.99540   0.01267  Uiso   1.00
C3     C     0.15520   0.96650   0.48030   0.01267  Uiso   1.00
C4     C     0.10947   0.56290   0.21270   0.01267  Uiso   1.00
C5     C     0.68553   0.63190   0.38300   0.01267  Uiso   1.00
C6     C     0.69777   0.48120   0.09440   0.01267  Uiso   1.00
C7     C     0.60947   0.43710   0.78730   0.01267  Uiso   1.00
C8     C     0.37813   0.21070   0.43830   0.01267  Uiso   1.00
C9     C     0.79707   0.45070   0.94180   0.01267  Uiso   1.00
C10    C     0.63040   0.94180   0.49110   0.01267  Uiso   1.00
C11    C     0.62467   0.50000   0.74170   0.01267  Uiso   1.00
C12    C     0.13040   0.05820   0.50890   0.01267  Uiso   1.00
C13    C     0.19777   0.51880   0.90560   0.01267  Uiso   1.00
C14    C     0.96373   0.50890   0.45070   0.01267  Uiso   1.00
C15    C     0.89593   0.89360   0.60370   0.01267  Uiso   1.00
C16    C     0.70917   0.63810   0.88010   0.01267  Uiso   1.00
C17    C     0.01887   0.61700   0.24890   0.01267  Uiso   1.00
C18    C     0.29133   0.24170   0.50000   0.01267  Uiso   1.00
C19    C     0.71147   0.56170   0.77240   0.01267  Uiso   1.00
C20    C     0.77613   0.64980   0.43710   0.01267  Uiso   1.00
C21    C     0.33583   0.58910   0.58450   0.01267  Uiso   1.00
C22    C     0.35483   0.50010   0.67600   0.01267  Uiso   1.00
C23    C     0.50250   0.00460   0.58910   0.01267  Uiso   1.00
C24    C     0.00250   0.99540   0.41090   0.01267  Uiso   1.00
C25    C     0.54480   0.77240   0.21070   0.01267  Uiso   1.00
C26    C     0.51887   0.38300   0.75110   0.01267  Uiso   1.00
C27    C     0.86443   0.38680   0.48120   0.01267  Uiso   1.00
C28    C     0.29707   0.54930   0.05820   0.01267  Uiso   1.00
C29    C     0.94280   0.21270   0.64980   0.01267  Uiso   1.00
C30    C     0.21147   0.43830   0.22760   0.01267  Uiso   1.00
C31    C     0.38463   0.52740   0.60250   0.01267  Uiso   1.00
C32    C     0.88463   0.47260   0.39750   0.01267  Uiso   1.00
C33    C     0.45800   0.74170   0.24170   0.01267  Uiso   1.00
C34    C     0.02150   0.17590   0.49990   0.01267  Uiso   1.00
C35    C     0.37583   0.24200   0.36190   0.01267  Uiso   1.00
C36    C     0.71797   0.39750   0.92490   0.01267  Uiso   1.00
C37    C     0.72927   0.60370   0.71010   0.01267  Uiso   1.00
C38    C     0.65520   0.03350   0.51970   0.01267  Uiso   1.00
C39    C     0.36443   0.61320   0.51880   0.01267  Uiso   1.00
C40    C     0.22927   0.39630   0.28990   0.01267  Uiso   1.00
C41    C     0.03110   0.90560   0.38680   0.01267  Uiso   1.00
C42    C     0.87583   0.75800   0.63810   0.01267  Uiso   1.00
C43    C     0.53110   0.09440   0.61320   0.01267  Uiso   1.00
C44    C     0.21797   0.60250   0.07510   0.01267  Uiso   1.00
C45    C     0.54250   0.88010   0.24200   0.01267  Uiso   1.00
C46    C     0.20917   0.36190   0.11990   0.01267  Uiso   1.00
C47    C     0.12467   0.50000   0.25830   0.01267  Uiso   1.00
C48    C     0.85220   0.24890   0.63190   0.01267  Uiso   1.00
C49    C     0.18553   0.36810   0.61700   0.01267  Uiso   1.00
C50    C     0.52150   0.82410   0.50010   0.01267  Uiso   1.00
C51    C     0.32187   0.48620   0.96650   0.01267  Uiso   1.00
C52    C     0.05130   0.07510   0.47260   0.01267  Uiso   1.00
C53    C     0.87813   0.78930   0.56170   0.01267  Uiso   1.00
C54    C     0.98853   0.48030   0.51380   0.01267  Uiso   1.00
C55    C     0.95800   0.25830   0.75830   0.01267  Uiso   1.00
C56    C     0.35220   0.75110   0.36810   0.01267  Uiso   1.00
C57    C     0.18817   0.67600   0.17590   0.01267  Uiso   1.00
C58    C     0.04480   0.22760   0.78930   0.01267  Uiso   1.00
C59    C     0.06260   0.28990   0.89360   0.01267  Uiso   1.00
C60    C     0.56260   0.71010   0.10640   0.01267  Uiso   1.00
C61    C     0.83583   0.41090   0.41550   0.01267  Uiso   1.00
C62    C     0.04250   0.11990   0.75800   0.01267  Uiso   1.00
C63    C     0.48853   0.51970   0.48620   0.01267  Uiso   1.00
C64    C     0.82187   0.51380   0.03350   0.01267  Uiso   1.00
C65    C     0.39593   0.10640   0.39630   0.01267  Uiso   1.00
C66    C     0.44280   0.78730   0.35020   0.01267  Uiso   1.00
C67    C     0.55130   0.92490   0.52740   0.01267  Uiso   1.00
C68    C     0.79133   0.75830   0.50000   0.01267  Uiso   1.00
C69    C     0.46373   0.49110   0.54930   0.01267  Uiso   1.00
C70    C     0.68817   0.32400   0.82410   0.01267  Uiso   1.00
C71    C     0.85483   0.49990   0.32400   0.01267  Uiso   1.00
C72    C     0.27613   0.35020   0.56290   0.01267  Uiso   1.00
Br1    Br    0.47936   0.47523   0.20879   0.01267  Uiso   1.00
Br2    Br    0.31269   0.20879   0.73356   0.01267  Uiso   1.00
Br3    Br    0.14603   0.73356   0.52477   0.01267  Uiso   1.00
Br4    Br    0.64603   0.26644   0.47523   0.01267  Uiso   1.00
Br5    Br    0.97936   0.52477   0.79121   0.01267  Uiso   1.00
Br6    Br    0.81269   0.79121   0.26644   0.01267  Uiso   1.00
N1     N     0.01340   0.24290   0.60530   0.01267  Uiso   1.00
N2     N     0.60750   0.11160   0.58070   0.01267  Uiso   1.00
N3     N     0.18007   0.63760   0.24290   0.01267  Uiso   1.00
N4     N     0.51340   0.75710   0.39470   0.01267  Uiso   1.00
N5     N     0.10750   0.88840   0.41930   0.01267  Uiso   1.00
N6     N     0.44083   0.58070   0.46910   0.01267  Uiso   1.00
N7     N     0.94083   0.41930   0.53090   0.01267  Uiso   1.00
N8     N     0.84673   0.60530   0.36240   0.01267  Uiso   1.00
N9     N     0.34673   0.39470   0.63760   0.01267  Uiso   1.00
N10    N     0.27417   0.46910   0.88840   0.01267  Uiso   1.00
N11    N     0.68007   0.36240   0.75710   0.01267  Uiso   1.00
N12    N     0.77417   0.53090   0.11160   0.01267  Uiso   1.00
O1     O     0.44997   0.42280   0.80180   0.01267  Uiso   1.00
O2     O     0.61663   0.62100   0.42280   0.01267  Uiso   1.00
O3     O     0.28330   0.80180   0.37900   0.01267  Uiso   1.00
O4     O     0.85250   0.32880   0.63610   0.01267  Uiso   1.00
O5     O     0.11663   0.37900   0.57720   0.01267  Uiso   1.00
O6     O     0.51917   0.30730   0.67120   0.01267  Uiso   1.00
O7     O     0.68583   0.63610   0.30730   0.01267  Uiso   1.00
O8     O     0.94997   0.57720   0.19820   0.01267  Uiso   1.00
O9     O     0.78330   0.19820   0.62100   0.01267  Uiso   1.00
O10    O     0.01917   0.69270   0.32880   0.01267  Uiso   1.00
O11    O     0.35250   0.67120   0.36390   0.01267  Uiso   1.00
O12    O     0.18583   0.36390   0.69270   0.01267  Uiso   1.00
