data_image0
_cell_length_a       25.667
_cell_length_b       13.076
_cell_length_c       8.725
_cell_angle_alpha    90
_cell_angle_beta     95.07
_cell_angle_gamma    90

_symmetry_space_group_name_H-M    "P 1"
_symmetry_int_tables_number       1

loop_
  _symmetry_equiv_pos_as_xyz
  'x, y, z'

loop_
  _atom_site_label
  _atom_site_occupancy
  _atom_site_fract_x
  _atom_site_fract_y
  _atom_site_fract_z
  _atom_site_thermal_displace_type
  _atom_site_B_iso_or_equiv
  _atom_site_type_symbol
  Cu1      1.0000 0.29264  0.29674  0.06182  Biso   1.000  Cu
  O1       1.0000 0.25179  0.29209  0.24320  Biso   1.000  O
  O2       1.0000 0.17892  0.21720  0.14010  Biso   1.000  O
  O3       1.0000 0.18381  0.65509  0.39210  Biso   1.000  O
  O4       1.0000 0.25549  0.57623  0.49320  Biso   1.000  O
  N1       1.0000 0.35746  0.36600  0.20350  Biso   1.000  N
  C1       1.0000 0.20543  0.26250  0.24830  Biso   1.000  C
  C2       1.0000 0.17914  0.28470  0.39430  Biso   1.000  C
  H1       1.0000 0.18590  0.22850  0.46590  Biso   1.000  H
  H2       1.0000 0.14160  0.28890  0.36920  Biso   1.000  H
  C3       1.0000 0.19838  0.38430  0.47190  Biso   1.000  C
  H3       1.0000 0.18120  0.39390  0.56550  Biso   1.000  H
  H4       1.0000 0.23570  0.37950  0.49990  Biso   1.000  H
  C4       1.0000 0.18730  0.47620  0.36700  Biso   1.000  C
  H5       1.0000 0.20010  0.46090  0.26810  Biso   1.000  H
  H6       1.0000 0.14970  0.48470  0.35010  Biso   1.000  H
  C5       1.0000 0.21093  0.57720  0.42370  Biso   1.000  C
  C6       1.0000 0.39522  0.30880  0.27120  Biso   1.000  C
  H7       1.0000 0.39610  0.23990  0.24540  Biso   1.000  H
  C7       1.0000 0.43319  0.34580  0.37780  Biso   1.000  C
  H8       1.0000 0.45930  0.30230  0.42010  Biso   1.000  H
  C8       1.0000 0.43277  0.44610  0.42190  Biso   1.000  C
  C9       1.0000 0.39278  0.50660  0.35090  Biso   1.000  C
  H9       1.0000 0.39080  0.57560  0.37570  Biso   1.000  H
  C10      1.0000 0.35666  0.46470  0.24550  Biso   1.000  C
  H10      1.0000 0.33020  0.50650  0.20050  Biso   1.000  H
  C11      1.0000 0.47480  0.48970  0.53540  Biso   1.000  C
  H11      1.0000 0.46230  0.55300  0.57700  Biso   1.000  H
  H12      1.0000 0.48150  0.44210  0.62010  Biso   1.000  H
  Cu2      1.0000 0.79264  0.79674  0.06182  Biso   1.000  Cu
  O5       1.0000 0.75179  0.79209  0.24320  Biso   1.000  O
  O6       1.0000 0.67892  0.71720  0.14010  Biso   1.000  O
  O7       1.0000 0.68381  0.15509  0.39210  Biso   1.000  O
  O8       1.0000 0.75549  0.07623  0.49320  Biso   1.000  O
  N2       1.0000 0.85746  0.86600  0.20350  Biso   1.000  N
  C12      1.0000 0.70543  0.76250  0.24830  Biso   1.000  C
  C13      1.0000 0.67914  0.78470  0.39430  Biso   1.000  C
  H13      1.0000 0.68590  0.72850  0.46590  Biso   1.000  H
  H14      1.0000 0.64160  0.78890  0.36920  Biso   1.000  H
  C14      1.0000 0.69838  0.88430  0.47190  Biso   1.000  C
  H15      1.0000 0.68120  0.89390  0.56550  Biso   1.000  H
  H16      1.0000 0.73570  0.87950  0.49990  Biso   1.000  H
  C15      1.0000 0.68730  0.97620  0.36700  Biso   1.000  C
  H17      1.0000 0.70010  0.96090  0.26810  Biso   1.000  H
  H18      1.0000 0.64970  0.98470  0.35010  Biso   1.000  H
  C16      1.0000 0.71093  0.07720  0.42370  Biso   1.000  C
  C17      1.0000 0.89522  0.80880  0.27120  Biso   1.000  C
  H19      1.0000 0.89610  0.73990  0.24540  Biso   1.000  H
  C18      1.0000 0.93319  0.84580  0.37780  Biso   1.000  C
  H20      1.0000 0.95930  0.80230  0.42010  Biso   1.000  H
  C19      1.0000 0.93277  0.94610  0.42190  Biso   1.000  C
  C20      1.0000 0.89278  0.00660  0.35090  Biso   1.000  C
  H21      1.0000 0.89080  0.07560  0.37570  Biso   1.000  H
  C21      1.0000 0.85666  0.96470  0.24550  Biso   1.000  C
  H22      1.0000 0.83020  0.00650  0.20050  Biso   1.000  H
  C22      1.0000 0.97480  0.98970  0.53540  Biso   1.000  C
  H23      1.0000 0.96230  0.05300  0.57700  Biso   1.000  H
  H24      1.0000 0.98150  0.94210  0.62010  Biso   1.000  H
  Cu3      1.0000 0.70736  0.29674  0.43818  Biso   1.000  Cu
  O9       1.0000 0.74821  0.29209  0.25680  Biso   1.000  O
  O10      1.0000 0.82108  0.21720  0.35990  Biso   1.000  O
  O11      1.0000 0.81619  0.65509  0.10790  Biso   1.000  O
  O12      1.0000 0.74451  0.57623  0.00680  Biso   1.000  O
  N3       1.0000 0.64254  0.36600  0.29650  Biso   1.000  N
  C23      1.0000 0.79457  0.26250  0.25170  Biso   1.000  C
  C24      1.0000 0.82086  0.28470  0.10570  Biso   1.000  C
  H25      1.0000 0.81410  0.22850  0.03410  Biso   1.000  H
  H26      1.0000 0.85840  0.28890  0.13080  Biso   1.000  H
  C25      1.0000 0.80162  0.38430  0.02810  Biso   1.000  C
  H27      1.0000 0.81880  0.39390  0.93450  Biso   1.000  H
  H28      1.0000 0.76430  0.37950  0.00010  Biso   1.000  H
  C26      1.0000 0.81270  0.47620  0.13300  Biso   1.000  C
  H29      1.0000 0.79990  0.46090  0.23190  Biso   1.000  H
  H30      1.0000 0.85030  0.48470  0.14990  Biso   1.000  H
  C27      1.0000 0.78907  0.57720  0.07630  Biso   1.000  C
  C28      1.0000 0.60478  0.30880  0.22880  Biso   1.000  C
  H31      1.0000 0.60390  0.23990  0.25460  Biso   1.000  H
  C29      1.0000 0.56681  0.34580  0.12220  Biso   1.000  C
  H32      1.0000 0.54070  0.30230  0.07990  Biso   1.000  H
  C30      1.0000 0.56723  0.44610  0.07810  Biso   1.000  C
  C31      1.0000 0.60722  0.50660  0.14910  Biso   1.000  C
  H33      1.0000 0.60920  0.57560  0.12430  Biso   1.000  H
  C32      1.0000 0.64334  0.46470  0.25450  Biso   1.000  C
  H34      1.0000 0.66980  0.50650  0.29950  Biso   1.000  H
  C33      1.0000 0.52520  0.48970  0.96460  Biso   1.000  C
  H35      1.0000 0.53770  0.55300  0.92300  Biso   1.000  H
  H36      1.0000 0.51850  0.44210  0.87990  Biso   1.000  H
  Cu4      1.0000 0.20736  0.79674  0.43818  Biso   1.000  Cu
  O13      1.0000 0.24821  0.79209  0.25680  Biso   1.000  O
  O14      1.0000 0.32108  0.71720  0.35990  Biso   1.000  O
  O15      1.0000 0.31619  0.15509  0.10790  Biso   1.000  O
  O16      1.0000 0.24451  0.07623  0.00680  Biso   1.000  O
  N4       1.0000 0.14254  0.86600  0.29650  Biso   1.000  N
  C34      1.0000 0.29457  0.76250  0.25170  Biso   1.000  C
  C35      1.0000 0.32086  0.78470  0.10570  Biso   1.000  C
  H37      1.0000 0.31410  0.72850  0.03410  Biso   1.000  H
  H38      1.0000 0.35840  0.78890  0.13080  Biso   1.000  H
  C36      1.0000 0.30162  0.88430  0.02810  Biso   1.000  C
  H39      1.0000 0.31880  0.89390  0.93450  Biso   1.000  H
  H40      1.0000 0.26430  0.87950  0.00010  Biso   1.000  H
  C37      1.0000 0.31270  0.97620  0.13300  Biso   1.000  C
  H41      1.0000 0.29990  0.96090  0.23190  Biso   1.000  H
  H42      1.0000 0.35030  0.98470  0.14990  Biso   1.000  H
  C38      1.0000 0.28907  0.07720  0.07630  Biso   1.000  C
  C39      1.0000 0.10478  0.80880  0.22880  Biso   1.000  C
  H43      1.0000 0.10390  0.73990  0.25460  Biso   1.000  H
  C40      1.0000 0.06681  0.84580  0.12220  Biso   1.000  C
  H44      1.0000 0.04070  0.80230  0.07990  Biso   1.000  H
  C41      1.0000 0.06723  0.94610  0.07810  Biso   1.000  C
  C42      1.0000 0.10722  0.00660  0.14910  Biso   1.000  C
  H45      1.0000 0.10920  0.07560  0.12430  Biso   1.000  H
  C43      1.0000 0.14334  0.96470  0.25450  Biso   1.000  C
  H46      1.0000 0.16980  0.00650  0.29950  Biso   1.000  H
  C44      1.0000 0.02520  0.98970  0.96460  Biso   1.000  C
  H47      1.0000 0.03770  0.05300  0.92300  Biso   1.000  H
  H48      1.0000 0.01850  0.94210  0.87990  Biso   1.000  H
  Cu5      1.0000 0.70736  0.70326  0.93818  Biso   1.000  Cu
  O17      1.0000 0.74821  0.70791  0.75680  Biso   1.000  O
  O18      1.0000 0.82108  0.78280  0.85990  Biso   1.000  O
  O19      1.0000 0.81619  0.34491  0.60790  Biso   1.000  O
  O20      1.0000 0.74451  0.42377  0.50680  Biso   1.000  O
  N5       1.0000 0.64254  0.63400  0.79650  Biso   1.000  N
  C45      1.0000 0.79457  0.73750  0.75170  Biso   1.000  C
  C46      1.0000 0.82086  0.71530  0.60570  Biso   1.000  C
  H49      1.0000 0.81410  0.77150  0.53410  Biso   1.000  H
  H50      1.0000 0.85840  0.71110  0.63080  Biso   1.000  H
  C47      1.0000 0.80162  0.61570  0.52810  Biso   1.000  C
  H51      1.0000 0.81880  0.60610  0.43450  Biso   1.000  H
  H52      1.0000 0.76430  0.62050  0.50010  Biso   1.000  H
  C48      1.0000 0.81270  0.52380  0.63300  Biso   1.000  C
  H53      1.0000 0.79990  0.53910  0.73190  Biso   1.000  H
  H54      1.0000 0.85030  0.51530  0.64990  Biso   1.000  H
  C49      1.0000 0.78907  0.42280  0.57630  Biso   1.000  C
  C50      1.0000 0.60478  0.69120  0.72880  Biso   1.000  C
  H55      1.0000 0.60390  0.76010  0.75460  Biso   1.000  H
  C51      1.0000 0.56681  0.65420  0.62220  Biso   1.000  C
  H56      1.0000 0.54070  0.69770  0.57990  Biso   1.000  H
  C52      1.0000 0.56723  0.55390  0.57810  Biso   1.000  C
  C53      1.0000 0.60722  0.49340  0.64910  Biso   1.000  C
  H57      1.0000 0.60920  0.42440  0.62430  Biso   1.000  H
  C54      1.0000 0.64334  0.53530  0.75450  Biso   1.000  C
  H58      1.0000 0.66980  0.49350  0.79950  Biso   1.000  H
  C55      1.0000 0.52520  0.51030  0.46460  Biso   1.000  C
  H59      1.0000 0.53770  0.44700  0.42300  Biso   1.000  H
  H60      1.0000 0.51850  0.55790  0.37990  Biso   1.000  H
  Cu6      1.0000 0.20736  0.20326  0.93818  Biso   1.000  Cu
  O21      1.0000 0.24821  0.20791  0.75680  Biso   1.000  O
  O22      1.0000 0.32108  0.28280  0.85990  Biso   1.000  O
  O23      1.0000 0.31619  0.84491  0.60790  Biso   1.000  O
  O24      1.0000 0.24451  0.92377  0.50680  Biso   1.000  O
  N6       1.0000 0.14254  0.13400  0.79650  Biso   1.000  N
  C56      1.0000 0.29457  0.23750  0.75170  Biso   1.000  C
  C57      1.0000 0.32086  0.21530  0.60570  Biso   1.000  C
  H61      1.0000 0.31410  0.27150  0.53410  Biso   1.000  H
  H62      1.0000 0.35840  0.21110  0.63080  Biso   1.000  H
  C58      1.0000 0.30162  0.11570  0.52810  Biso   1.000  C
  H63      1.0000 0.31880  0.10610  0.43450  Biso   1.000  H
  H64      1.0000 0.26430  0.12050  0.50010  Biso   1.000  H
  C59      1.0000 0.31270  0.02380  0.63300  Biso   1.000  C
  H65      1.0000 0.29990  0.03910  0.73190  Biso   1.000  H
  H66      1.0000 0.35030  0.01530  0.64990  Biso   1.000  H
  C60      1.0000 0.28907  0.92280  0.57630  Biso   1.000  C
  C61      1.0000 0.10478  0.19120  0.72880  Biso   1.000  C
  H67      1.0000 0.10390  0.26010  0.75460  Biso   1.000  H
  C62      1.0000 0.06681  0.15420  0.62220  Biso   1.000  C
  H68      1.0000 0.04070  0.19770  0.57990  Biso   1.000  H
  C63      1.0000 0.06723  0.05390  0.57810  Biso   1.000  C
  C64      1.0000 0.10722  0.99340  0.64910  Biso   1.000  C
  H69      1.0000 0.10920  0.92440  0.62430  Biso   1.000  H
  C65      1.0000 0.14334  0.03530  0.75450  Biso   1.000  C
  H70      1.0000 0.16980  0.99350  0.79950  Biso   1.000  H
  C66      1.0000 0.02520  0.01030  0.46460  Biso   1.000  C
  H71      1.0000 0.03770  0.94700  0.42300  Biso   1.000  H
  H72      1.0000 0.01850  0.05790  0.37990  Biso   1.000  H
  Cu7      1.0000 0.29264  0.70326  0.56182  Biso   1.000  Cu
  O25      1.0000 0.25179  0.70791  0.74320  Biso   1.000  O
  O26      1.0000 0.17892  0.78280  0.64010  Biso   1.000  O
  O27      1.0000 0.18381  0.34491  0.89210  Biso   1.000  O
  O28      1.0000 0.25549  0.42377  0.99320  Biso   1.000  O
  N7       1.0000 0.35746  0.63400  0.70350  Biso   1.000  N
  C67      1.0000 0.20543  0.73750  0.74830  Biso   1.000  C
  C68      1.0000 0.17914  0.71530  0.89430  Biso   1.000  C
  H73      1.0000 0.18590  0.77150  0.96590  Biso   1.000  H
  H74      1.0000 0.14160  0.71110  0.86920  Biso   1.000  H
  C69      1.0000 0.19838  0.61570  0.97190  Biso   1.000  C
  H75      1.0000 0.18120  0.60610  0.06550  Biso   1.000  H
  H76      1.0000 0.23570  0.62050  0.99990  Biso   1.000  H
  C70      1.0000 0.18730  0.52380  0.86700  Biso   1.000  C
  H77      1.0000 0.20010  0.53910  0.76810  Biso   1.000  H
  H78      1.0000 0.14970  0.51530  0.85010  Biso   1.000  H
  C71      1.0000 0.21093  0.42280  0.92370  Biso   1.000  C
  C72      1.0000 0.39522  0.69120  0.77120  Biso   1.000  C
  H79      1.0000 0.39610  0.76010  0.74540  Biso   1.000  H
  C73      1.0000 0.43319  0.65420  0.87780  Biso   1.000  C
  H80      1.0000 0.45930  0.69770  0.92010  Biso   1.000  H
  C74      1.0000 0.43277  0.55390  0.92190  Biso   1.000  C
  C75      1.0000 0.39278  0.49340  0.85090  Biso   1.000  C
  H81      1.0000 0.39080  0.42440  0.87570  Biso   1.000  H
  C76      1.0000 0.35666  0.53530  0.74550  Biso   1.000  C
  H82      1.0000 0.33020  0.49350  0.70050  Biso   1.000  H
  C77      1.0000 0.47480  0.51030  0.03540  Biso   1.000  C
  H83      1.0000 0.46230  0.44700  0.07700  Biso   1.000  H
  H84      1.0000 0.48150  0.55790  0.12010  Biso   1.000  H
  Cu8      1.0000 0.79264  0.20326  0.56182  Biso   1.000  Cu
  O29      1.0000 0.75179  0.20791  0.74320  Biso   1.000  O
  O30      1.0000 0.67892  0.28280  0.64010  Biso   1.000  O
  O31      1.0000 0.68381  0.84491  0.89210  Biso   1.000  O
  O32      1.0000 0.75549  0.92377  0.99320  Biso   1.000  O
  N8       1.0000 0.85746  0.13400  0.70350  Biso   1.000  N
  C78      1.0000 0.70543  0.23750  0.74830  Biso   1.000  C
  C79      1.0000 0.67914  0.21530  0.89430  Biso   1.000  C
  H85      1.0000 0.68590  0.27150  0.96590  Biso   1.000  H
  H86      1.0000 0.64160  0.21110  0.86920  Biso   1.000  H
  C80      1.0000 0.69838  0.11570  0.97190  Biso   1.000  C
  H87      1.0000 0.68120  0.10610  0.06550  Biso   1.000  H
  H88      1.0000 0.73570  0.12050  0.99990  Biso   1.000  H
  C81      1.0000 0.68730  0.02380  0.86700  Biso   1.000  C
  H89      1.0000 0.70010  0.03910  0.76810  Biso   1.000  H
  H90      1.0000 0.64970  0.01530  0.85010  Biso   1.000  H
  C82      1.0000 0.71093  0.92280  0.92370  Biso   1.000  C
  C83      1.0000 0.89522  0.19120  0.77120  Biso   1.000  C
  H91      1.0000 0.89610  0.26010  0.74540  Biso   1.000  H
  C84      1.0000 0.93319  0.15420  0.87780  Biso   1.000  C
  H92      1.0000 0.95930  0.19770  0.92010  Biso   1.000  H
  C85      1.0000 0.93277  0.05390  0.92190  Biso   1.000  C
  C86      1.0000 0.89278  0.99340  0.85090  Biso   1.000  C
  H93      1.0000 0.89080  0.92440  0.87570  Biso   1.000  H
  C87      1.0000 0.85666  0.03530  0.74550  Biso   1.000  C
  H94      1.0000 0.83020  0.99350  0.70050  Biso   1.000  H
  C88      1.0000 0.97480  0.01030  0.03540  Biso   1.000  C
  H95      1.0000 0.96230  0.94700  0.07700  Biso   1.000  H
  H96      1.0000 0.98150  0.05790  0.12010  Biso   1.000  H
