data_ACIBIY_clean
_audit_creation_date              2014-07-02
_audit_creation_method            'Materials Studio'
_symmetry_space_group_name_H-M    'P1'
_symmetry_Int_Tables_number       1
_symmetry_cell_setting            triclinic
loop_
_symmetry_equiv_pos_as_xyz
  x,y,z
_cell_length_a                    15.2050
_cell_length_b                    18.0050
_cell_length_c                    21.5000
_cell_angle_alpha                 71.2100
_cell_angle_beta                  84.4700
_cell_angle_gamma                 67.1500
loop_
_atom_site_label
_atom_site_type_symbol
_atom_site_fract_x
_atom_site_fract_y
_atom_site_fract_z
_atom_site_U_iso_or_equiv
_atom_site_adp_type
_atom_site_occupancy
Co1    Co    0.52463   0.63577   0.73048   0.01267  Uiso   1.00
Co2    Co    0.23781   0.34905   0.51690   0.01267  Uiso   1.00
Co3    Co    0.14182   0.03117   0.60305   0.01267  Uiso   1.00
Co4    Co    0.21963   0.17517   0.52077   0.01267  Uiso   1.00
Co5    Co    0.63672   0.59260   0.60374   0.01267  Uiso   1.00
Co6    Co    0.90477   0.01579   0.85030   0.01267  Uiso   1.00
Co7    Co    0.69684   0.74029   0.06311   0.01267  Uiso   1.00
Co8    Co    0.80882   0.69777   0.93635   0.01267  Uiso   1.00
Co9    Co    0.44693   0.49087   0.81228   0.01267  Uiso   1.00
Co10   Co    0.88610   0.84225   0.85437   0.01267  Uiso   1.00
Co11   Co    0.02982   0.07364   0.72977   0.01267  Uiso   1.00
Co12   Co    0.57117   0.68248   0.18358   0.01267  Uiso   1.00
Co13   Co    0.33370   0.33328   0.66664   0.01267  Uiso   1.00
Co14   Co    0.33350   0.83340   0.66690   0.01267  Uiso   1.00
Co15   Co    0.66670   0.66663   0.83316   0.01267  Uiso   1.00
Co16   Co    0.66640   0.16668   0.83342   0.01267  Uiso   1.00
Co17   Co    0.47537   0.36423   0.26952   0.01267  Uiso   1.00
Co18   Co    0.76219   0.65095   0.48310   0.01267  Uiso   1.00
Co19   Co    0.85818   0.96883   0.39695   0.01267  Uiso   1.00
Co20   Co    0.78037   0.82483   0.47923   0.01267  Uiso   1.00
Co21   Co    0.36328   0.40740   0.39626   0.01267  Uiso   1.00
Co22   Co    0.09523   0.98421   0.14970   0.01267  Uiso   1.00
Co23   Co    0.30316   0.25971   0.93689   0.01267  Uiso   1.00
Co24   Co    0.19118   0.30223   0.06365   0.01267  Uiso   1.00
Co25   Co    0.55307   0.50913   0.18772   0.01267  Uiso   1.00
Co26   Co    0.11390   0.15775   0.14563   0.01267  Uiso   1.00
Co27   Co    0.97018   0.92636   0.27023   0.01267  Uiso   1.00
Co28   Co    0.42883   0.31752   0.81642   0.01267  Uiso   1.00
Co29   Co    0.66630   0.66672   0.33336   0.01267  Uiso   1.00
Co30   Co    0.66650   0.16660   0.33310   0.01267  Uiso   1.00
Co31   Co    0.33330   0.33337   0.16684   0.01267  Uiso   1.00
Co32   Co    0.33360   0.83332   0.16658   0.01267  Uiso   1.00
Co33   Co    0.00000   0.00000   0.00000   0.01267  Uiso   1.00
Co34   Co    0.00000   0.50000   0.00000   0.01267  Uiso   1.00
Co35   Co    0.00000   0.00000   0.50000   0.01267  Uiso   1.00
Co36   Co    0.00000   0.50000   0.50000   0.01267  Uiso   1.00
H1     H     0.78970   0.61110   0.67740   0.01267  Uiso   1.00
H2     H     0.58380   0.55140   0.91780   0.01267  Uiso   1.00
H3     H     0.74840   0.78310   0.75070   0.01267  Uiso   1.00
H4     H     0.60830   0.35080   0.90750   0.01267  Uiso   1.00
H5     H     0.18370   0.80120   0.62080   0.01267  Uiso   1.00
H6     H     0.42390   0.68580   0.55710   0.01267  Uiso   1.00
H7     H     0.35420   0.53720   0.67660   0.01267  Uiso   1.00
H8     H     0.71440   0.99180   0.75920   0.01267  Uiso   1.00
H9     H     0.93500   0.31740   0.11430   0.01267  Uiso   1.00
H10    H     0.48530   0.86270   0.71820   0.01267  Uiso   1.00
H11    H     0.54420   0.72730   0.98630   0.01267  Uiso   1.00
H12    H     0.84230   0.46550   0.96280   0.01267  Uiso   1.00
H13    H     0.31380   0.12970   0.65890   0.01267  Uiso   1.00
H14    H     0.60940   0.23250   0.69730   0.01267  Uiso   1.00
H15    H     0.75460   0.55210   0.07930   0.01267  Uiso   1.00
H16    H     0.40060   0.01170   0.53900   0.01267  Uiso   1.00
H17    H     0.83870   0.23460   0.70670   0.01267  Uiso   1.00
H18    H     0.24740   0.96920   0.78070   0.01267  Uiso   1.00
H19    H     0.71690   0.93740   0.93260   0.01267  Uiso   1.00
H20    H     0.72260   0.10620   0.97170   0.01267  Uiso   1.00
H21    H     0.61190   0.39990   0.73160   0.01267  Uiso   1.00
H22    H     0.05690   0.43670   0.64010   0.01267  Uiso   1.00
H23    H     0.17700   0.56570   0.37890   0.01267  Uiso   1.00
H24    H     0.08750   0.88140   0.75050   0.01267  Uiso   1.00
H25    H     0.49630   0.09780   0.95740   0.01267  Uiso   1.00
H26    H     0.04750   0.26980   0.59680   0.01267  Uiso   1.00
H27    H     0.90570   0.64530   0.11170   0.01267  Uiso   1.00
H28    H     0.26230   0.65950   0.78310   0.01267  Uiso   1.00
H29    H     0.43290   0.21070   0.42100   0.01267  Uiso   1.00
H30    H     0.02130   0.20510   0.00850   0.01267  Uiso   1.00
H31    H     0.11090   0.06530   0.89730   0.01267  Uiso   1.00
H32    H     0.22650   0.26080   0.77180   0.01267  Uiso   1.00
H33    H     0.43520   0.41030   0.55980   0.01267  Uiso   1.00
H34    H     0.07340   0.12150   0.41810   0.01267  Uiso   1.00
H35    H     0.04730   0.31480   0.43050   0.01267  Uiso   1.00
H36    H     0.88070   0.05200   0.65430   0.01267  Uiso   1.00
H37    H     0.21030   0.38890   0.32260   0.01267  Uiso   1.00
H38    H     0.41620   0.44860   0.08220   0.01267  Uiso   1.00
H39    H     0.25160   0.21690   0.24930   0.01267  Uiso   1.00
H40    H     0.39170   0.64920   0.09250   0.01267  Uiso   1.00
H41    H     0.81630   0.19880   0.37920   0.01267  Uiso   1.00
H42    H     0.57610   0.31420   0.44290   0.01267  Uiso   1.00
H43    H     0.64580   0.46280   0.32340   0.01267  Uiso   1.00
H44    H     0.28560   0.00820   0.24080   0.01267  Uiso   1.00
H45    H     0.06500   0.68260   0.88570   0.01267  Uiso   1.00
H46    H     0.51470   0.13730   0.28180   0.01267  Uiso   1.00
H47    H     0.45580   0.27270   0.01370   0.01267  Uiso   1.00
H48    H     0.15770   0.53450   0.03720   0.01267  Uiso   1.00
H49    H     0.68620   0.87030   0.34110   0.01267  Uiso   1.00
H50    H     0.39060   0.76750   0.30270   0.01267  Uiso   1.00
H51    H     0.24540   0.44790   0.92070   0.01267  Uiso   1.00
H52    H     0.59940   0.98830   0.46100   0.01267  Uiso   1.00
H53    H     0.16130   0.76540   0.29330   0.01267  Uiso   1.00
H54    H     0.75260   0.03080   0.21930   0.01267  Uiso   1.00
H55    H     0.28310   0.06260   0.06740   0.01267  Uiso   1.00
H56    H     0.27740   0.89380   0.02830   0.01267  Uiso   1.00
H57    H     0.38810   0.60010   0.26840   0.01267  Uiso   1.00
H58    H     0.94310   0.56330   0.35990   0.01267  Uiso   1.00
H59    H     0.82300   0.43430   0.62110   0.01267  Uiso   1.00
H60    H     0.91250   0.11860   0.24950   0.01267  Uiso   1.00
H61    H     0.50370   0.90220   0.04260   0.01267  Uiso   1.00
H62    H     0.95250   0.73020   0.40320   0.01267  Uiso   1.00
H63    H     0.09430   0.35470   0.88830   0.01267  Uiso   1.00
H64    H     0.73770   0.34050   0.21690   0.01267  Uiso   1.00
H65    H     0.56710   0.78930   0.57900   0.01267  Uiso   1.00
H66    H     0.97870   0.79490   0.99150   0.01267  Uiso   1.00
H67    H     0.88910   0.93470   0.10270   0.01267  Uiso   1.00
H68    H     0.77350   0.73920   0.22820   0.01267  Uiso   1.00
H69    H     0.56480   0.58970   0.44020   0.01267  Uiso   1.00
H70    H     0.92660   0.87850   0.58190   0.01267  Uiso   1.00
H71    H     0.95270   0.68520   0.56950   0.01267  Uiso   1.00
H72    H     0.11930   0.94800   0.34570   0.01267  Uiso   1.00
C1     C     0.73890   0.61940   0.70560   0.01267  Uiso   1.00
C2     C     0.55800   0.55520   0.87890   0.01267  Uiso   1.00
C3     C     0.77470   0.77880   0.78960   0.01267  Uiso   1.00
C4     C     0.59290   0.32180   0.88420   0.01267  Uiso   1.00
C5     C     0.15450   0.85990   0.60420   0.01267  Uiso   1.00
C6     C     0.42540   0.70040   0.59470   0.01267  Uiso   1.00
C7     C     0.36100   0.48080   0.69440   0.01267  Uiso   1.00
C8     C     0.73410   0.01850   0.78250   0.01267  Uiso   1.00
C9     C     0.97980   0.34030   0.09470   0.01267  Uiso   1.00
C10    C     0.51650   0.80400   0.73160   0.01267  Uiso   1.00
C11    C     0.59630   0.71500   0.95960   0.01267  Uiso   1.00
C12    C     0.81890   0.52360   0.94150   0.01267  Uiso   1.00
C13    C     0.30680   0.18620   0.64090   0.01267  Uiso   1.00
C14    C     0.54850   0.25600   0.71230   0.01267  Uiso   1.00
C15    C     0.70620   0.56170   0.10920   0.01267  Uiso   1.00
C16    C     0.35930   0.99040   0.56670   0.01267  Uiso   1.00
C17    C     0.82510   0.19680   0.74360   0.01267  Uiso   1.00
C18    C     0.24520   0.96100   0.74040   0.01267  Uiso   1.00
C19    C     0.72630   0.88050   0.95120   0.01267  Uiso   1.00
C20    C     0.78290   0.07960   0.95740   0.01267  Uiso   1.00
C21    C     0.60490   0.45650   0.71420   0.01267  Uiso   1.00
C22    C     0.11730   0.41240   0.62480   0.01267  Uiso   1.00
C23    C     0.16150   0.52680   0.41380   0.01267  Uiso   1.00
C24    C     0.03760   0.89240   0.77910   0.01267  Uiso   1.00
C25    C     0.51010   0.13640   0.92130   0.01267  Uiso   1.00
C26    C     0.05880   0.21260   0.61650   0.01267  Uiso   1.00
C27    C     0.90490   0.63330   0.07280   0.01267  Uiso   1.00
C28    C     0.30860   0.67970   0.76210   0.01267  Uiso   1.00
C29    C     0.37800   0.22390   0.44520   0.01267  Uiso   1.00
C30    C     0.02750   0.14880   0.02650   0.01267  Uiso   1.00
C31    C     0.07060   0.06220   0.86910   0.01267  Uiso   1.00
C32    C     0.26480   0.26790   0.79900   0.01267  Uiso   1.00
C33    C     0.39970   0.40000   0.53300   0.01267  Uiso   1.00
C34    C     0.10540   0.11290   0.45610   0.01267  Uiso   1.00
C35    C     0.06730   0.34540   0.44960   0.01267  Uiso   1.00
C36    C     0.93020   0.04600   0.62500   0.01267  Uiso   1.00
C37    C     0.26110   0.38060   0.29440   0.01267  Uiso   1.00
C38    C     0.44200   0.44480   0.12110   0.01267  Uiso   1.00
C39    C     0.22530   0.22120   0.21040   0.01267  Uiso   1.00
C40    C     0.40710   0.67820   0.11580   0.01267  Uiso   1.00
C41    C     0.84550   0.14010   0.39580   0.01267  Uiso   1.00
C42    C     0.57460   0.29960   0.40530   0.01267  Uiso   1.00
C43    C     0.63900   0.51920   0.30560   0.01267  Uiso   1.00
C44    C     0.26590   0.98150   0.21750   0.01267  Uiso   1.00
C45    C     0.02020   0.65970   0.90530   0.01267  Uiso   1.00
C46    C     0.48350   0.19600   0.26840   0.01267  Uiso   1.00
C47    C     0.40370   0.28500   0.04040   0.01267  Uiso   1.00
C48    C     0.18110   0.47640   0.05850   0.01267  Uiso   1.00
C49    C     0.69320   0.81380   0.35910   0.01267  Uiso   1.00
C50    C     0.45150   0.74400   0.28770   0.01267  Uiso   1.00
C51    C     0.29380   0.43830   0.89080   0.01267  Uiso   1.00
C52    C     0.64070   0.00960   0.43330   0.01267  Uiso   1.00
C53    C     0.17490   0.80320   0.25640   0.01267  Uiso   1.00
C54    C     0.75480   0.03900   0.25960   0.01267  Uiso   1.00
C55    C     0.27370   0.11950   0.04880   0.01267  Uiso   1.00
C56    C     0.21710   0.92040   0.04260   0.01267  Uiso   1.00
C57    C     0.39510   0.54350   0.28580   0.01267  Uiso   1.00
C58    C     0.88270   0.58760   0.37520   0.01267  Uiso   1.00
C59    C     0.83850   0.47320   0.58620   0.01267  Uiso   1.00
C60    C     0.96240   0.10760   0.22090   0.01267  Uiso   1.00
C61    C     0.48990   0.86360   0.07870   0.01267  Uiso   1.00
C62    C     0.94120   0.78740   0.38350   0.01267  Uiso   1.00
C63    C     0.09510   0.36670   0.92720   0.01267  Uiso   1.00
C64    C     0.69140   0.32030   0.23790   0.01267  Uiso   1.00
C65    C     0.62200   0.77610   0.55480   0.01267  Uiso   1.00
C66    C     0.97250   0.85120   0.97350   0.01267  Uiso   1.00
C67    C     0.92940   0.93780   0.13090   0.01267  Uiso   1.00
C68    C     0.73520   0.73210   0.20100   0.01267  Uiso   1.00
C69    C     0.60030   0.60000   0.46700   0.01267  Uiso   1.00
C70    C     0.89460   0.88710   0.54390   0.01267  Uiso   1.00
C71    C     0.93270   0.65460   0.55040   0.01267  Uiso   1.00
C72    C     0.06980   0.95400   0.37500   0.01267  Uiso   1.00
O1     O     0.01330   0.42030   0.44500   0.01267  Uiso   1.00
O2     O     0.31140   0.90670   0.72840   0.01267  Uiso   1.00
O3     O     0.35440   0.76240   0.60200   0.01267  Uiso   1.00
O4     O     0.33050   0.45190   0.65970   0.01267  Uiso   1.00
O5     O     0.99700   0.11810   0.99400   0.01267  Uiso   1.00
O6     O     0.67920   0.08730   0.77910   0.01267  Uiso   1.00
O7     O     0.33690   0.21450   0.67550   0.01267  Uiso   1.00
O8     O     0.65240   0.24890   0.88830   0.01267  Uiso   1.00
O9     O     0.94850   0.42010   0.07030   0.01267  Uiso   1.00
O10    O     0.97600   0.57220   0.06190   0.01267  Uiso   1.00
O11    O     0.38890   0.91360   0.59680   0.01267  Uiso   1.00
O12    O     0.74990   0.62960   0.75770   0.01267  Uiso   1.00
O13    O     0.91300   0.03710   0.57510   0.01267  Uiso   1.00
O14    O     0.74940   0.22330   0.76710   0.01267  Uiso   1.00
O15    O     0.58210   0.70190   0.90820   0.01267  Uiso   1.00
O16    O     0.28110   0.75520   0.73780   0.01267  Uiso   1.00
O17    O     0.08280   0.55540   0.43500   0.01267  Uiso   1.00
O18    O     0.34620   0.29520   0.45620   0.01267  Uiso   1.00
O19    O     0.58560   0.11120   0.89870   0.01267  Uiso   1.00
O20    O     0.67150   0.50380   0.13350   0.01267  Uiso   1.00
O21    O     0.85190   0.04630   0.99740   0.01267  Uiso   1.00
O22    O     0.89040   0.12150   0.76370   0.01267  Uiso   1.00
O23    O     0.33850   0.16920   0.46570   0.01267  Uiso   1.00
O24    O     0.74910   0.55370   0.90200   0.01267  Uiso   1.00
O25    O     0.68970   0.85800   0.00680   0.01267  Uiso   1.00
O26    O     0.58650   0.78040   0.76310   0.01267  Uiso   1.00
O27    O     0.01500   0.96220   0.79060   0.01267  Uiso   1.00
O28    O     0.24840   0.24840   0.85800   0.01267  Uiso   1.00
O29    O     0.08100   0.88900   0.56780   0.01267  Uiso   1.00
O30    O     0.68060   0.62920   0.12220   0.01267  Uiso   1.00
O31    O     0.51130   0.50990   0.88240   0.01267  Uiso   1.00
O32    O     0.02140   0.19280   0.67080   0.01267  Uiso   1.00
O33    O     0.00420   0.83650   0.79960   0.01267  Uiso   1.00
O34    O     0.18570   0.37990   0.66400   0.01267  Uiso   1.00
O35    O     0.16940   0.01080   0.70310   0.01267  Uiso   1.00
O36    O     0.48170   0.28740   0.67060   0.01267  Uiso   1.00
O37    O     0.83380   0.67830   0.03410   0.01267  Uiso   1.00
O38    O     0.49880   0.65530   0.63260   0.01267  Uiso   1.00
O39    O     0.22530   0.45400   0.43070   0.01267  Uiso   1.00
O40    O     0.41780   0.41740   0.47530   0.01267  Uiso   1.00
O41    O     0.82030   0.82260   0.78530   0.01267  Uiso   1.00
O42    O     0.44340   0.21260   0.90150   0.01267  Uiso   1.00
O43    O     0.08510   0.08400   0.80950   0.01267  Uiso   1.00
O44    O     0.15500   0.15600   0.45190   0.01267  Uiso   1.00
O45    O     0.09520   0.05820   0.50850   0.01267  Uiso   1.00
O46    O     0.64310   0.47590   0.66200   0.01267  Uiso   1.00
O47    O     0.79050   0.07920   0.89680   0.01267  Uiso   1.00
O48    O     0.14800   0.30980   0.47940   0.01267  Uiso   1.00
O49    O     0.75940   0.72770   0.84190   0.01267  Uiso   1.00
O50    O     0.67120   0.71340   0.97890   0.01267  Uiso   1.00
O51    O     0.57250   0.60590   0.82600   0.01267  Uiso   1.00
O52    O     0.11040   0.16220   0.58620   0.01267  Uiso   1.00
O53    O     0.06840   0.10640   0.08540   0.01267  Uiso   1.00
O54    O     0.00740   0.04850   0.64460   0.01267  Uiso   1.00
O55    O     0.39350   0.62170   0.76370   0.01267  Uiso   1.00
O56    O     0.26760   0.22350   0.58410   0.01267  Uiso   1.00
O57    O     0.32860   0.29710   0.77010   0.01267  Uiso   1.00
O58    O     0.65960   0.61960   0.68820   0.01267  Uiso   1.00
O59    O     0.19320   0.90270   0.62090   0.01267  Uiso   1.00
O60    O     0.51680   0.35910   0.85310   0.01267  Uiso   1.00
O61    O     0.33830   0.36920   0.56220   0.01267  Uiso   1.00
O62    O     0.81620   0.97300   0.81250   0.01267  Uiso   1.00
O63    O     0.12300   0.41520   0.56410   0.01267  Uiso   1.00
O64    O     0.86060   0.56700   0.95470   0.01267  Uiso   1.00
O65    O     0.54430   0.25200   0.77180   0.01267  Uiso   1.00
O66    O     0.27470   0.04230   0.57170   0.01267  Uiso   1.00
O67    O     0.55770   0.50440   0.74670   0.01267  Uiso   1.00
O68    O     0.00390   0.03580   0.89500   0.01267  Uiso   1.00
O69    O     0.47270   0.76620   0.71130   0.01267  Uiso   1.00
O70    O     0.05910   0.29120   0.09570   0.01267  Uiso   1.00
O71    O     0.40040   0.44210   0.75110   0.01267  Uiso   1.00
O72    O     0.77610   0.82820   0.91900   0.01267  Uiso   1.00
O73    O     0.98670   0.57970   0.55500   0.01267  Uiso   1.00
O74    O     0.68860   0.09330   0.27160   0.01267  Uiso   1.00
O75    O     0.64560   0.23760   0.39800   0.01267  Uiso   1.00
O76    O     0.66950   0.54810   0.34030   0.01267  Uiso   1.00
O77    O     0.00300   0.88190   0.00600   0.01267  Uiso   1.00
O78    O     0.32080   0.91270   0.22090   0.01267  Uiso   1.00
O79    O     0.66310   0.78550   0.32450   0.01267  Uiso   1.00
O80    O     0.34760   0.75110   0.11170   0.01267  Uiso   1.00
O81    O     0.05150   0.57990   0.92970   0.01267  Uiso   1.00
O82    O     0.02400   0.42780   0.93810   0.01267  Uiso   1.00
O83    O     0.61110   0.08640   0.40320   0.01267  Uiso   1.00
O84    O     0.25010   0.37040   0.24230   0.01267  Uiso   1.00
O85    O     0.08700   0.96290   0.42490   0.01267  Uiso   1.00
O86    O     0.25060   0.77670   0.23290   0.01267  Uiso   1.00
O87    O     0.41790   0.29810   0.09180   0.01267  Uiso   1.00
O88    O     0.71890   0.24480   0.26220   0.01267  Uiso   1.00
O89    O     0.91720   0.44460   0.56500   0.01267  Uiso   1.00
O90    O     0.65380   0.70480   0.54380   0.01267  Uiso   1.00
O91    O     0.41440   0.88880   0.10130   0.01267  Uiso   1.00
O92    O     0.32850   0.49620   0.86650   0.01267  Uiso   1.00
O93    O     0.14810   0.95370   0.00260   0.01267  Uiso   1.00
O94    O     0.10960   0.87850   0.23630   0.01267  Uiso   1.00
O95    O     0.66150   0.83080   0.53430   0.01267  Uiso   1.00
O96    O     0.25090   0.44630   0.09800   0.01267  Uiso   1.00
O97    O     0.31030   0.14200   0.99320   0.01267  Uiso   1.00
O98    O     0.41350   0.21960   0.23690   0.01267  Uiso   1.00
O99    O     0.98500   0.03780   0.20940   0.01267  Uiso   1.00
O100   O     0.75160   0.75160   0.14200   0.01267  Uiso   1.00
O101   O     0.91900   0.11100   0.43220   0.01267  Uiso   1.00
O102   O     0.31940   0.37080   0.87780   0.01267  Uiso   1.00
O103   O     0.48870   0.49010   0.11760   0.01267  Uiso   1.00
O104   O     0.97860   0.80720   0.32920   0.01267  Uiso   1.00
O105   O     0.99580   0.16350   0.20040   0.01267  Uiso   1.00
O106   O     0.81430   0.62010   0.33600   0.01267  Uiso   1.00
O107   O     0.83060   0.98920   0.29690   0.01267  Uiso   1.00
O108   O     0.51830   0.71260   0.32940   0.01267  Uiso   1.00
O109   O     0.16620   0.32170   0.96590   0.01267  Uiso   1.00
O110   O     0.50120   0.34470   0.36740   0.01267  Uiso   1.00
O111   O     0.77470   0.54600   0.56930   0.01267  Uiso   1.00
O112   O     0.58220   0.58260   0.52470   0.01267  Uiso   1.00
O113   O     0.17970   0.17740   0.21470   0.01267  Uiso   1.00
O114   O     0.55660   0.78740   0.09850   0.01267  Uiso   1.00
O115   O     0.91490   0.91600   0.19050   0.01267  Uiso   1.00
O116   O     0.84500   0.84400   0.54810   0.01267  Uiso   1.00
O117   O     0.90480   0.94180   0.49150   0.01267  Uiso   1.00
O118   O     0.35690   0.52410   0.33800   0.01267  Uiso   1.00
O119   O     0.20950   0.92080   0.10320   0.01267  Uiso   1.00
O120   O     0.85200   0.69020   0.52060   0.01267  Uiso   1.00
O121   O     0.24060   0.27230   0.15810   0.01267  Uiso   1.00
O122   O     0.32880   0.28660   0.02110   0.01267  Uiso   1.00
O123   O     0.42750   0.39410   0.17400   0.01267  Uiso   1.00
O124   O     0.88960   0.83780   0.41380   0.01267  Uiso   1.00
O125   O     0.93160   0.89360   0.91460   0.01267  Uiso   1.00
O126   O     0.99260   0.95150   0.35540   0.01267  Uiso   1.00
O127   O     0.60650   0.37830   0.23630   0.01267  Uiso   1.00
O128   O     0.73240   0.77650   0.41590   0.01267  Uiso   1.00
O129   O     0.67140   0.70290   0.22990   0.01267  Uiso   1.00
O130   O     0.34040   0.38040   0.31180   0.01267  Uiso   1.00
O131   O     0.80680   0.09730   0.37910   0.01267  Uiso   1.00
O132   O     0.48320   0.64090   0.14690   0.01267  Uiso   1.00
O133   O     0.66170   0.63080   0.43780   0.01267  Uiso   1.00
O134   O     0.18380   0.02700   0.18750   0.01267  Uiso   1.00
O135   O     0.87700   0.58480   0.43590   0.01267  Uiso   1.00
O136   O     0.13940   0.43300   0.04530   0.01267  Uiso   1.00
O137   O     0.45570   0.74800   0.22820   0.01267  Uiso   1.00
O138   O     0.72530   0.95770   0.42830   0.01267  Uiso   1.00
O139   O     0.44230   0.49560   0.25330   0.01267  Uiso   1.00
O140   O     0.99610   0.96420   0.10500   0.01267  Uiso   1.00
O141   O     0.52730   0.23380   0.28870   0.01267  Uiso   1.00
O142   O     0.94090   0.70880   0.90430   0.01267  Uiso   1.00
O143   O     0.59960   0.55790   0.24890   0.01267  Uiso   1.00
O144   O     0.22390   0.17180   0.08100   0.01267  Uiso   1.00
