data_ACIBOE_clean
_audit_creation_date              2014-07-02
_audit_creation_method            'Materials Studio'
_symmetry_space_group_name_H-M    'P1'
_symmetry_Int_Tables_number       1
_symmetry_cell_setting            triclinic
loop_
_symmetry_equiv_pos_as_xyz
  x,y,z
_cell_length_a                    17.0713
_cell_length_b                    17.0713
_cell_length_c                    17.0713
_cell_angle_alpha                 105.8300
_cell_angle_beta                  105.8300
_cell_angle_gamma                 117.0290
loop_
_atom_site_label
_atom_site_type_symbol
_atom_site_fract_x
_atom_site_fract_y
_atom_site_fract_z
_atom_site_U_iso_or_equiv
_atom_site_adp_type
_atom_site_occupancy
Zn1    Zn    0.16140   0.29871   0.62295   0.01267  Uiso   1.00
Zn2    Zn    0.67576   0.53845   0.37705   0.01267  Uiso   1.00
Zn3    Zn    0.53845   0.16140   0.86269   0.01267  Uiso   1.00
Zn4    Zn    0.29871   0.67576   0.13731   0.01267  Uiso   1.00
Zn5    Zn    0.17576   0.79871   0.13731   0.01267  Uiso   1.00
Zn6    Zn    0.66140   0.03845   0.86269   0.01267  Uiso   1.00
Zn7    Zn    0.79871   0.66140   0.62295   0.01267  Uiso   1.00
Zn8    Zn    0.03845   0.17576   0.37705   0.01267  Uiso   1.00
Zn9    Zn    0.92966   0.11582   0.50000   0.01267  Uiso   1.00
Zn10   Zn    0.61582   0.42966   0.50000   0.01267  Uiso   1.00
Zn11   Zn    0.42966   0.92966   0.81384   0.01267  Uiso   1.00
Zn12   Zn    0.11582   0.61582   0.18616   0.01267  Uiso   1.00
H1     H     0.94060   0.33290   0.96510   0.01267  Uiso   1.00
H2     H     0.85730   0.17150   0.69980   0.01267  Uiso   1.00
H3     H     0.12290   0.43580   0.85710   0.01267  Uiso   1.00
H4     H     0.36780   0.97550   0.03490   0.01267  Uiso   1.00
H5     H     0.47170   0.15750   0.30020   0.01267  Uiso   1.00
H6     H     0.57870   0.26580   0.14290   0.01267  Uiso   1.00
H7     H     0.97550   0.94060   0.60770   0.01267  Uiso   1.00
H8     H     0.15750   0.85730   0.68580   0.01267  Uiso   1.00
H9     H     0.26580   0.12290   0.68710   0.01267  Uiso   1.00
H10    H     0.33290   0.36780   0.39230   0.01267  Uiso   1.00
H11    H     0.17150   0.47170   0.31420   0.01267  Uiso   1.00
H12    H     0.43580   0.57870   0.31290   0.01267  Uiso   1.00
H13    H     0.86780   0.83290   0.39230   0.01267  Uiso   1.00
H14    H     0.97170   0.67150   0.31420   0.01267  Uiso   1.00
H15    H     0.07870   0.93580   0.31290   0.01267  Uiso   1.00
H16    H     0.44060   0.47550   0.60770   0.01267  Uiso   1.00
H17    H     0.35730   0.65750   0.68580   0.01267  Uiso   1.00
H18    H     0.62290   0.76580   0.68710   0.01267  Uiso   1.00
H19    H     0.83290   0.44060   0.96510   0.01267  Uiso   1.00
H20    H     0.67150   0.35730   0.69980   0.01267  Uiso   1.00
H21    H     0.93580   0.62290   0.85710   0.01267  Uiso   1.00
H22    H     0.47550   0.86780   0.03490   0.01267  Uiso   1.00
H23    H     0.65750   0.97170   0.30020   0.01267  Uiso   1.00
H24    H     0.76580   0.07870   0.14290   0.01267  Uiso   1.00
C1     C     0.04210   0.39990   0.92420   0.01267  Uiso   1.00
C2     C     0.95390   0.32550   0.91520   0.01267  Uiso   1.00
C3     C     0.88470   0.23900   0.83070   0.01267  Uiso   1.00
C4     C     0.90390   0.22800   0.75610   0.01267  Uiso   1.00
C5     C     0.99350   0.30210   0.76560   0.01267  Uiso   1.00
C6     C     0.06280   0.38730   0.85030   0.01267  Uiso   1.00
C7     C     0.97880   0.99310   0.37810   0.01267  Uiso   1.00
C8     C     0.79080   0.15510   0.82010   0.01267  Uiso   1.00
C9     C     0.01750   0.28450   0.68600   0.01267  Uiso   1.00
C10    C     0.47570   0.11790   0.07580   0.01267  Uiso   1.00
C11    C     0.41030   0.03870   0.08480   0.01267  Uiso   1.00
C12    C     0.40830   0.05400   0.16930   0.01267  Uiso   1.00
C13    C     0.47190   0.14780   0.24390   0.01267  Uiso   1.00
C14    C     0.53650   0.22790   0.23440   0.01267  Uiso   1.00
C15    C     0.53700   0.21250   0.14970   0.01267  Uiso   1.00
C16    C     0.61500   0.60070   0.62190   0.01267  Uiso   1.00
C17    C     0.33500   0.97070   0.17990   0.01267  Uiso   1.00
C18    C     0.59850   0.33150   0.31400   0.01267  Uiso   1.00
C19    C     0.11790   0.04210   0.64220   0.01267  Uiso   1.00
C20    C     0.03870   0.95390   0.62840   0.01267  Uiso   1.00
C21    C     0.05400   0.88470   0.64570   0.01267  Uiso   1.00
C22    C     0.14780   0.90390   0.67590   0.01267  Uiso   1.00
C23    C     0.22790   0.99350   0.69140   0.01267  Uiso   1.00
C24    C     0.21250   0.06280   0.67550   0.01267  Uiso   1.00
C25    C     0.60070   0.97880   0.98570   0.01267  Uiso   1.00
C26    C     0.97070   0.79080   0.63570   0.01267  Uiso   1.00
C27    C     0.33150   0.01750   0.73300   0.01267  Uiso   1.00
C28    C     0.39990   0.47570   0.35780   0.01267  Uiso   1.00
C29    C     0.32550   0.41030   0.37160   0.01267  Uiso   1.00
C30    C     0.23900   0.40830   0.35430   0.01267  Uiso   1.00
C31    C     0.22800   0.47190   0.32410   0.01267  Uiso   1.00
C32    C     0.30210   0.53650   0.30860   0.01267  Uiso   1.00
C33    C     0.38730   0.53700   0.32450   0.01267  Uiso   1.00
C34    C     0.99310   0.61500   0.01430   0.01267  Uiso   1.00
C35    C     0.15510   0.33500   0.36430   0.01267  Uiso   1.00
C36    C     0.28450   0.59850   0.26700   0.01267  Uiso   1.00
C37    C     0.97570   0.89990   0.35780   0.01267  Uiso   1.00
C38    C     0.91030   0.82550   0.37160   0.01267  Uiso   1.00
C39    C     0.90830   0.73900   0.35430   0.01267  Uiso   1.00
C40    C     0.97190   0.72800   0.32410   0.01267  Uiso   1.00
C41    C     0.03650   0.80210   0.30860   0.01267  Uiso   1.00
C42    C     0.03700   0.88730   0.32450   0.01267  Uiso   1.00
C43    C     0.11500   0.49310   0.01430   0.01267  Uiso   1.00
C44    C     0.83500   0.65510   0.36430   0.01267  Uiso   1.00
C45    C     0.09850   0.78450   0.26700   0.01267  Uiso   1.00
C46    C     0.54210   0.61790   0.64220   0.01267  Uiso   1.00
C47    C     0.45390   0.53870   0.62840   0.01267  Uiso   1.00
C48    C     0.38470   0.55400   0.64570   0.01267  Uiso   1.00
C49    C     0.40390   0.64780   0.67590   0.01267  Uiso   1.00
C50    C     0.49350   0.72790   0.69140   0.01267  Uiso   1.00
C51    C     0.56280   0.71250   0.67550   0.01267  Uiso   1.00
C52    C     0.47880   0.10070   0.98570   0.01267  Uiso   1.00
C53    C     0.29080   0.47070   0.63570   0.01267  Uiso   1.00
C54    C     0.51750   0.83150   0.73300   0.01267  Uiso   1.00
C55    C     0.89990   0.54210   0.92420   0.01267  Uiso   1.00
C56    C     0.82550   0.45390   0.91520   0.01267  Uiso   1.00
C57    C     0.73900   0.38470   0.83070   0.01267  Uiso   1.00
C58    C     0.72800   0.40390   0.75610   0.01267  Uiso   1.00
C59    C     0.80210   0.49350   0.76560   0.01267  Uiso   1.00
C60    C     0.88730   0.56280   0.85030   0.01267  Uiso   1.00
C61    C     0.49310   0.47880   0.37810   0.01267  Uiso   1.00
C62    C     0.65510   0.29080   0.82010   0.01267  Uiso   1.00
C63    C     0.78450   0.51750   0.68600   0.01267  Uiso   1.00
C64    C     0.61790   0.97570   0.07580   0.01267  Uiso   1.00
C65    C     0.53870   0.91030   0.08480   0.01267  Uiso   1.00
C66    C     0.55400   0.90830   0.16930   0.01267  Uiso   1.00
C67    C     0.64780   0.97190   0.24390   0.01267  Uiso   1.00
C68    C     0.72790   0.03650   0.23440   0.01267  Uiso   1.00
C69    C     0.71250   0.03700   0.14970   0.01267  Uiso   1.00
C70    C     0.10070   0.11500   0.62190   0.01267  Uiso   1.00
C71    C     0.47070   0.83500   0.17990   0.01267  Uiso   1.00
C72    C     0.83150   0.09850   0.31400   0.01267  Uiso   1.00
O1     O     0.04040   0.05830   0.36570   0.01267  Uiso   1.00
O2     O     0.91890   0.99860   0.40370   0.01267  Uiso   1.00
O3     O     0.78810   0.15340   0.89390   0.01267  Uiso   1.00
O4     O     0.72390   0.09330   0.74380   0.01267  Uiso   1.00
O5     O     0.94430   0.22520   0.60790   0.01267  Uiso   1.00
O6     O     0.10950   0.33040   0.70610   0.01267  Uiso   1.00
O7     O     0.69260   0.67470   0.63430   0.01267  Uiso   1.00
O8     O     0.59490   0.51520   0.59630   0.01267  Uiso   1.00
O9     O     0.25950   0.89420   0.10610   0.01267  Uiso   1.00
O10    O     0.34950   0.98010   0.25620   0.01267  Uiso   1.00
O11    O     0.61730   0.33640   0.39210   0.01267  Uiso   1.00
O12    O     0.62430   0.40340   0.29390   0.01267  Uiso   1.00
O13    O     0.67470   0.04040   0.98210   0.01267  Uiso   1.00
O14    O     0.51520   0.91890   0.92030   0.01267  Uiso   1.00
O15    O     0.89420   0.78810   0.63470   0.01267  Uiso   1.00
O16    O     0.98010   0.72390   0.63060   0.01267  Uiso   1.00
O17    O     0.33640   0.94430   0.71910   0.01267  Uiso   1.00
O18    O     0.40340   0.10950   0.77910   0.01267  Uiso   1.00
O19    O     0.05830   0.69260   0.01790   0.01267  Uiso   1.00
O20    O     0.99860   0.59490   0.07970   0.01267  Uiso   1.00
O21    O     0.15340   0.25950   0.36530   0.01267  Uiso   1.00
O22    O     0.09330   0.34950   0.36940   0.01267  Uiso   1.00
O23    O     0.22520   0.61730   0.28090   0.01267  Uiso   1.00
O24    O     0.33040   0.62430   0.22090   0.01267  Uiso   1.00
O25    O     0.19260   0.55830   0.01790   0.01267  Uiso   1.00
O26    O     0.09490   0.49860   0.07970   0.01267  Uiso   1.00
O27    O     0.75950   0.65340   0.36530   0.01267  Uiso   1.00
O28    O     0.84950   0.59330   0.36940   0.01267  Uiso   1.00
O29    O     0.11730   0.72520   0.28090   0.01267  Uiso   1.00
O30    O     0.12430   0.83040   0.22090   0.01267  Uiso   1.00
O31    O     0.54040   0.17470   0.98210   0.01267  Uiso   1.00
O32    O     0.41890   0.01520   0.92030   0.01267  Uiso   1.00
O33    O     0.28810   0.39420   0.63470   0.01267  Uiso   1.00
O34    O     0.22390   0.48010   0.63060   0.01267  Uiso   1.00
O35    O     0.44430   0.83640   0.71910   0.01267  Uiso   1.00
O36    O     0.60950   0.90340   0.77910   0.01267  Uiso   1.00
O37    O     0.55830   0.54040   0.36570   0.01267  Uiso   1.00
O38    O     0.49860   0.41890   0.40370   0.01267  Uiso   1.00
O39    O     0.65340   0.28810   0.89390   0.01267  Uiso   1.00
O40    O     0.59330   0.22390   0.74380   0.01267  Uiso   1.00
O41    O     0.72520   0.44430   0.60790   0.01267  Uiso   1.00
O42    O     0.83040   0.60950   0.70610   0.01267  Uiso   1.00
O43    O     0.17470   0.19260   0.63430   0.01267  Uiso   1.00
O44    O     0.01520   0.09490   0.59630   0.01267  Uiso   1.00
O45    O     0.39420   0.75950   0.10610   0.01267  Uiso   1.00
O46    O     0.48010   0.84950   0.25620   0.01267  Uiso   1.00
O47    O     0.83640   0.11730   0.39210   0.01267  Uiso   1.00
O48    O     0.90340   0.12430   0.29390   0.01267  Uiso   1.00
O49    O     0.05109   0.23111   0.50000   0.01267  Uiso   1.00
O50    O     0.73111   0.55109   0.50000   0.01267  Uiso   1.00
O51    O     0.55109   0.05109   0.81998   0.01267  Uiso   1.00
O52    O     0.23111   0.73111   0.18002   0.01267  Uiso   1.00
