data_ACOGAB_clean
_audit_creation_date              2014-07-02
_audit_creation_method            'Materials Studio'
_symmetry_space_group_name_H-M    'P1'
_symmetry_Int_Tables_number       1
_symmetry_cell_setting            triclinic
loop_
_symmetry_equiv_pos_as_xyz
  x,y,z
_cell_length_a                    9.9817
_cell_length_b                    16.6382
_cell_length_c                    17.0675
_cell_angle_alpha                 100.5440
_cell_angle_beta                  107.0030
_cell_angle_gamma                 90.0000
loop_
_atom_site_label
_atom_site_type_symbol
_atom_site_fract_x
_atom_site_fract_y
_atom_site_fract_z
_atom_site_U_iso_or_equiv
_atom_site_adp_type
_atom_site_occupancy
Cd1    Cd    0.00000   0.00000   0.00000   0.01267  Uiso   1.00
Cd2    Cd    0.00000   0.50000   0.00000   0.01267  Uiso   1.00
H1     H     0.15180   0.83300   0.97380   0.01267  Uiso   1.00
H2     H     0.78080   0.86570   0.84800   0.01267  Uiso   1.00
H3     H     0.77500   0.75060   0.75140   0.01267  Uiso   1.00
H4     H     0.15610   0.71440   0.88580   0.01267  Uiso   1.00
H5     H     0.05240   0.45580   0.62740   0.01267  Uiso   1.00
H6     H     0.09830   0.51640   0.71360   0.01267  Uiso   1.00
H7     H     0.09450   0.58630   0.57620   0.01267  Uiso   1.00
H8     H     0.20100   0.60720   0.66600   0.01267  Uiso   1.00
H9     H     0.89470   0.56390   0.49180   0.01267  Uiso   1.00
H10    H     0.74250   0.58870   0.49020   0.01267  Uiso   1.00
H11    H     0.71940   0.49990   0.57040   0.01267  Uiso   1.00
H12    H     0.83430   0.44450   0.54720   0.01267  Uiso   1.00
H13    H     0.67240   0.49040   0.70160   0.01267  Uiso   1.00
H14    H     0.50410   0.60910   0.87440   0.01267  Uiso   1.00
H15    H     0.70820   0.59480   0.97300   0.01267  Uiso   1.00
H16    H     0.87450   0.48620   0.80820   0.01267  Uiso   1.00
H17    H     0.05240   0.62010   0.76880   0.01267  Uiso   1.00
H18    H     0.38100   0.59180   0.72880   0.01267  Uiso   1.00
H19    H     0.17800   0.66700   0.02620   0.01267  Uiso   1.00
H20    H     0.93280   0.63430   0.15200   0.01267  Uiso   1.00
H21    H     0.02360   0.74940   0.24860   0.01267  Uiso   1.00
H22    H     0.27030   0.78560   0.11420   0.01267  Uiso   1.00
H23    H     0.42500   0.04420   0.37260   0.01267  Uiso   1.00
H24    H     0.38470   0.98360   0.28640   0.01267  Uiso   1.00
H25    H     0.51830   0.91370   0.42380   0.01267  Uiso   1.00
H26    H     0.53500   0.89280   0.33400   0.01267  Uiso   1.00
H27    H     0.40290   0.93610   0.50820   0.01267  Uiso   1.00
H28    H     0.25230   0.91130   0.50980   0.01267  Uiso   1.00
H29    H     0.14900   0.00010   0.42960   0.01267  Uiso   1.00
H30    H     0.28710   0.05550   0.45280   0.01267  Uiso   1.00
H31    H     0.97080   0.00960   0.29840   0.01267  Uiso   1.00
H32    H     0.62970   0.89090   0.12560   0.01267  Uiso   1.00
H33    H     0.73520   0.90520   0.02700   0.01267  Uiso   1.00
H34    H     0.06630   0.01380   0.19180   0.01267  Uiso   1.00
H35    H     0.28360   0.87990   0.23120   0.01267  Uiso   1.00
H36    H     0.65220   0.90820   0.27120   0.01267  Uiso   1.00
H37    H     0.84820   0.16700   0.02620   0.01267  Uiso   1.00
H38    H     0.21920   0.13430   0.15200   0.01267  Uiso   1.00
H39    H     0.22500   0.24940   0.24860   0.01267  Uiso   1.00
H40    H     0.84390   0.28560   0.11420   0.01267  Uiso   1.00
H41    H     0.94760   0.54420   0.37260   0.01267  Uiso   1.00
H42    H     0.90170   0.48360   0.28640   0.01267  Uiso   1.00
H43    H     0.90550   0.41370   0.42380   0.01267  Uiso   1.00
H44    H     0.79900   0.39280   0.33400   0.01267  Uiso   1.00
H45    H     0.10530   0.43610   0.50820   0.01267  Uiso   1.00
H46    H     0.25750   0.41130   0.50980   0.01267  Uiso   1.00
H47    H     0.28060   0.50010   0.42960   0.01267  Uiso   1.00
H48    H     0.16570   0.55550   0.45280   0.01267  Uiso   1.00
H49    H     0.32760   0.50960   0.29840   0.01267  Uiso   1.00
H50    H     0.49590   0.39090   0.12560   0.01267  Uiso   1.00
H51    H     0.29180   0.40520   0.02700   0.01267  Uiso   1.00
H52    H     0.12550   0.51380   0.19180   0.01267  Uiso   1.00
H53    H     0.94760   0.37990   0.23120   0.01267  Uiso   1.00
H54    H     0.61900   0.40820   0.27120   0.01267  Uiso   1.00
H55    H     0.82200   0.33300   0.97380   0.01267  Uiso   1.00
H56    H     0.06720   0.36570   0.84800   0.01267  Uiso   1.00
H57    H     0.97640   0.25060   0.75140   0.01267  Uiso   1.00
H58    H     0.72970   0.21440   0.88580   0.01267  Uiso   1.00
H59    H     0.57500   0.95580   0.62740   0.01267  Uiso   1.00
H60    H     0.61530   0.01640   0.71360   0.01267  Uiso   1.00
H61    H     0.48170   0.08630   0.57620   0.01267  Uiso   1.00
H62    H     0.46500   0.10720   0.66600   0.01267  Uiso   1.00
H63    H     0.59710   0.06390   0.49180   0.01267  Uiso   1.00
H64    H     0.74770   0.08870   0.49020   0.01267  Uiso   1.00
H65    H     0.85100   0.99990   0.57040   0.01267  Uiso   1.00
H66    H     0.71290   0.94450   0.54720   0.01267  Uiso   1.00
H67    H     0.02920   0.99040   0.70160   0.01267  Uiso   1.00
H68    H     0.37030   0.10910   0.87440   0.01267  Uiso   1.00
H69    H     0.26480   0.09480   0.97300   0.01267  Uiso   1.00
H70    H     0.93370   0.98620   0.80820   0.01267  Uiso   1.00
H71    H     0.71640   0.12010   0.76880   0.01267  Uiso   1.00
H72    H     0.34780   0.09180   0.72880   0.01267  Uiso   1.00
C1     C     0.07350   0.81690   0.92780   0.01267  Uiso   1.00
C2     C     0.86100   0.83600   0.85500   0.01267  Uiso   1.00
C3     C     0.85480   0.76550   0.79700   0.01267  Uiso   1.00
C4     C     0.07700   0.74500   0.87480   0.01267  Uiso   1.00
C5     C     0.96737   0.71820   0.80734   0.01267  Uiso   1.00
C6     C     0.87883   0.61120   0.68046   0.01267  Uiso   1.00
C7     C     0.05671   0.51290   0.65402   0.01267  Uiso   1.00
C8     C     0.15204   0.56260   0.62168   0.01267  Uiso   1.00
C9     C     0.80177   0.54270   0.48754   0.01267  Uiso   1.00
C10    C     0.81084   0.50080   0.56128   0.01267  Uiso   1.00
C11    C     0.39110   0.50670   0.63700   0.01267  Uiso   1.00
C12    C     0.67675   0.51280   0.75650   0.01267  Uiso   1.00
C13    C     0.56324   0.54930   0.77508   0.01267  Uiso   1.00
C14    C     0.57700   0.58240   0.85900   0.01267  Uiso   1.00
C15    C     0.70100   0.57430   0.91740   0.01267  Uiso   1.00
C16    C     0.79789   0.51020   0.82158   0.01267  Uiso   1.00
C17    C     0.14570   0.68310   0.07220   0.01267  Uiso   1.00
C18    C     0.00600   0.66400   0.14500   0.01267  Uiso   1.00
C19    C     0.05780   0.73450   0.20300   0.01267  Uiso   1.00
C20    C     0.20220   0.75500   0.12520   0.01267  Uiso   1.00
C21    C     0.16003   0.78180   0.19266   0.01267  Uiso   1.00
C22    C     0.19837   0.88880   0.31954   0.01267  Uiso   1.00
C23    C     0.40269   0.98710   0.34598   0.01267  Uiso   1.00
C24    C     0.53036   0.93740   0.37832   0.01267  Uiso   1.00
C25    C     0.31423   0.95730   0.51246   0.01267  Uiso   1.00
C26    C     0.24956   0.99920   0.43872   0.01267  Uiso   1.00
C27    C     0.75410   0.99330   0.36300   0.01267  Uiso   1.00
C28    C     0.92025   0.98720   0.24350   0.01267  Uiso   1.00
C29    C     0.78816   0.95070   0.22492   0.01267  Uiso   1.00
C30    C     0.71800   0.91760   0.14100   0.01267  Uiso   1.00
C31    C     0.78360   0.92570   0.08260   0.01267  Uiso   1.00
C32    C     0.97631   0.98980   0.17842   0.01267  Uiso   1.00
C33    C     0.92650   0.18310   0.07220   0.01267  Uiso   1.00
C34    C     0.13900   0.16400   0.14500   0.01267  Uiso   1.00
C35    C     0.14520   0.23450   0.20300   0.01267  Uiso   1.00
C36    C     0.92300   0.25500   0.12520   0.01267  Uiso   1.00
C37    C     0.03263   0.28180   0.19266   0.01267  Uiso   1.00
C38    C     0.12117   0.38880   0.31954   0.01267  Uiso   1.00
C39    C     0.94329   0.48710   0.34598   0.01267  Uiso   1.00
C40    C     0.84796   0.43740   0.37832   0.01267  Uiso   1.00
C41    C     0.19823   0.45730   0.51246   0.01267  Uiso   1.00
C42    C     0.18916   0.49920   0.43872   0.01267  Uiso   1.00
C43    C     0.60890   0.49330   0.36300   0.01267  Uiso   1.00
C44    C     0.32325   0.48720   0.24350   0.01267  Uiso   1.00
C45    C     0.43676   0.45070   0.22492   0.01267  Uiso   1.00
C46    C     0.42300   0.41760   0.14100   0.01267  Uiso   1.00
C47    C     0.29900   0.42570   0.08260   0.01267  Uiso   1.00
C48    C     0.20211   0.48980   0.17842   0.01267  Uiso   1.00
C49    C     0.85430   0.31690   0.92780   0.01267  Uiso   1.00
C50    C     0.99400   0.33600   0.85500   0.01267  Uiso   1.00
C51    C     0.94220   0.26550   0.79700   0.01267  Uiso   1.00
C52    C     0.79780   0.24500   0.87480   0.01267  Uiso   1.00
C53    C     0.83997   0.21820   0.80734   0.01267  Uiso   1.00
C54    C     0.80163   0.11120   0.68046   0.01267  Uiso   1.00
C55    C     0.59731   0.01290   0.65402   0.01267  Uiso   1.00
C56    C     0.46964   0.06260   0.62168   0.01267  Uiso   1.00
C57    C     0.68577   0.04270   0.48754   0.01267  Uiso   1.00
C58    C     0.75044   0.00080   0.56128   0.01267  Uiso   1.00
C59    C     0.24590   0.00670   0.63700   0.01267  Uiso   1.00
C60    C     0.07975   0.01280   0.75650   0.01267  Uiso   1.00
C61    C     0.21184   0.04930   0.77508   0.01267  Uiso   1.00
C62    C     0.28200   0.08240   0.85900   0.01267  Uiso   1.00
C63    C     0.21640   0.07430   0.91740   0.01267  Uiso   1.00
C64    C     0.02369   0.01020   0.82158   0.01267  Uiso   1.00
Br1    Br    0.28028   0.97159   0.09644   0.01267  Uiso   1.00
Br2    Br    0.18384   0.52841   0.90356   0.01267  Uiso   1.00
Br3    Br    0.71972   0.02841   0.90356   0.01267  Uiso   1.00
Br4    Br    0.81616   0.47159   0.09644   0.01267  Uiso   1.00
N1     N     0.96891   0.86480   0.91862   0.01267  Uiso   1.00
N2     N     0.91435   0.54060   0.63870   0.01267  Uiso   1.00
N3     N     0.97714   0.64580   0.75408   0.01267  Uiso   1.00
N4     N     0.81167   0.53930   0.90074   0.01267  Uiso   1.00
N5     N     0.25467   0.51280   0.59274   0.01267  Uiso   1.00
N6     N     0.43571   0.55530   0.71562   0.01267  Uiso   1.00
N7     N     0.05029   0.63520   0.08138   0.01267  Uiso   1.00
N8     N     0.27565   0.95940   0.36130   0.01267  Uiso   1.00
N9     N     0.22306   0.85420   0.24592   0.01267  Uiso   1.00
N10    N     0.91093   0.96070   0.09926   0.01267  Uiso   1.00
N11    N     0.66193   0.98720   0.40726   0.01267  Uiso   1.00
N12    N     0.72009   0.94470   0.28438   0.01267  Uiso   1.00
N13    N     0.03109   0.13520   0.08138   0.01267  Uiso   1.00
N14    N     0.08565   0.45940   0.36130   0.01267  Uiso   1.00
N15    N     0.02286   0.35420   0.24592   0.01267  Uiso   1.00
N16    N     0.18833   0.46070   0.09926   0.01267  Uiso   1.00
N17    N     0.74533   0.48720   0.40726   0.01267  Uiso   1.00
N18    N     0.56429   0.44470   0.28438   0.01267  Uiso   1.00
N19    N     0.94971   0.36480   0.91862   0.01267  Uiso   1.00
N20    N     0.72435   0.04060   0.63870   0.01267  Uiso   1.00
N21    N     0.77694   0.14580   0.75408   0.01267  Uiso   1.00
N22    N     0.08907   0.03930   0.90074   0.01267  Uiso   1.00
N23    N     0.33807   0.01280   0.59274   0.01267  Uiso   1.00
N24    N     0.27991   0.05530   0.71562   0.01267  Uiso   1.00
O1     O     0.76735   0.64150   0.65470   0.01267  Uiso   1.00
O2     O     0.46734   0.46000   0.60948   0.01267  Uiso   1.00
O3     O     0.11265   0.85850   0.34530   0.01267  Uiso   1.00
O4     O     0.85786   0.04000   0.39052   0.01267  Uiso   1.00
O5     O     0.23265   0.35850   0.34530   0.01267  Uiso   1.00
O6     O     0.53266   0.54000   0.39052   0.01267  Uiso   1.00
O7     O     0.88735   0.14150   0.65470   0.01267  Uiso   1.00
O8     O     0.14214   0.96000   0.60948   0.01267  Uiso   1.00
