data_ACOLIP_clean
_audit_creation_date              2014-07-02
_audit_creation_method            'Materials Studio'
_symmetry_space_group_name_H-M    'P1'
_symmetry_Int_Tables_number       1
_symmetry_cell_setting            triclinic
loop_
_symmetry_equiv_pos_as_xyz
  x,y,z
_cell_length_a                    11.5670
_cell_length_b                    11.8393
_cell_length_c                    14.2270
_cell_angle_alpha                 112.4970
_cell_angle_beta                  90.0000
_cell_angle_gamma                 119.2420
loop_
_atom_site_label
_atom_site_type_symbol
_atom_site_fract_x
_atom_site_fract_y
_atom_site_fract_z
_atom_site_U_iso_or_equiv
_atom_site_adp_type
_atom_site_occupancy
Zn1    Zn    0.34514   0.71626   0.75624   0.01267  Uiso   1.00
Zn2    Zn    0.37112   0.71626   0.25624   0.01267  Uiso   1.00
H1     H     0.53080   0.42180   0.14610   0.01267  Uiso   1.00
H2     H     0.16080   0.18640   0.96830   0.01267  Uiso   1.00
H3     H     0.18970   0.00680   0.87010   0.01267  Uiso   1.00
H4     H     0.41850   0.55380   0.54770   0.01267  Uiso   1.00
H5     H     0.55000   0.97380   0.70830   0.01267  Uiso   1.00
H6     H     0.65670   0.94160   0.55350   0.01267  Uiso   1.00
H7     H     0.61350   0.70320   0.38150   0.01267  Uiso   1.00
H8     H     0.53690   0.55740   0.39080   0.01267  Uiso   1.00
H9     H     0.66590   0.52860   0.51930   0.01267  Uiso   1.00
H10    H     0.87880   0.58020   0.58380   0.01267  Uiso   1.00
H11    H     0.05590   0.90520   0.50120   0.01267  Uiso   1.00
H12    H     0.84300   0.85360   0.43670   0.01267  Uiso   1.00
H13    H     0.13590   0.76300   0.64660   0.01267  Uiso   1.00
H14    H     0.19550   0.89660   0.62040   0.01267  Uiso   1.00
H15    H     0.31500   0.88580   0.46220   0.01267  Uiso   1.00
H16    H     0.17480   0.45660   0.31780   0.01267  Uiso   1.00
H17    H     0.07120   0.49740   0.47360   0.01267  Uiso   1.00
H18    H     0.63970   0.20940   0.99600   0.01267  Uiso   1.00
H19    H     0.67870   0.34260   0.09230   0.01267  Uiso   1.00
H20    H     0.89100   0.42180   0.64610   0.01267  Uiso   1.00
H21    H     0.02560   0.18640   0.46830   0.01267  Uiso   1.00
H22    H     0.81710   0.00680   0.37010   0.01267  Uiso   1.00
H23    H     0.13530   0.55380   0.04770   0.01267  Uiso   1.00
H24    H     0.42380   0.97380   0.20830   0.01267  Uiso   1.00
H25    H     0.28490   0.94160   0.05350   0.01267  Uiso   1.00
H26    H     0.08970   0.70320   0.88150   0.01267  Uiso   1.00
H27    H     0.02050   0.55740   0.89080   0.01267  Uiso   1.00
H28    H     0.86270   0.52860   0.01930   0.01267  Uiso   1.00
H29    H     0.70140   0.58020   0.08380   0.01267  Uiso   1.00
H30    H     0.84930   0.90520   0.00120   0.01267  Uiso   1.00
H31    H     0.01060   0.85360   0.93670   0.01267  Uiso   1.00
H32    H     0.62710   0.76300   0.14660   0.01267  Uiso   1.00
H33    H     0.70110   0.89660   0.12040   0.01267  Uiso   1.00
H34    H     0.57080   0.88580   0.96220   0.01267  Uiso   1.00
H35    H     0.28180   0.45660   0.81780   0.01267  Uiso   1.00
H36    H     0.42620   0.49740   0.97360   0.01267  Uiso   1.00
H37    H     0.56970   0.20940   0.49600   0.01267  Uiso   1.00
H38    H     0.66390   0.34260   0.59230   0.01267  Uiso   1.00
C1     C     0.40410   0.98340   0.88200   0.01267  Uiso   1.00
C2     C     0.38960   0.11000   0.94600   0.01267  Uiso   1.00
C3     C     0.49620   0.23280   0.02790   0.01267  Uiso   1.00
C4     C     0.46430   0.33900   0.08910   0.01267  Uiso   1.00
C5     C     0.33980   0.32300   0.06700   0.01267  Uiso   1.00
C6     C     0.24490   0.19780   0.98420   0.01267  Uiso   1.00
C7     C     0.26030   0.09040   0.92400   0.01267  Uiso   1.00
C8     C     0.30490   0.43160   0.12980   0.01267  Uiso   1.00
C9     C     0.46040   0.65160   0.56630   0.01267  Uiso   1.00
C10    C     0.53480   0.88720   0.65710   0.01267  Uiso   1.00
C11    C     0.59470   0.86880   0.57020   0.01267  Uiso   1.00
C12    C     0.60110   0.66020   0.42960   0.01267  Uiso   1.00
C13    C     0.73340   0.68600   0.47160   0.01267  Uiso   1.00
C14    C     0.74410   0.60400   0.51560   0.01267  Uiso   1.00
C15    C     0.87170   0.63500   0.55430   0.01267  Uiso   1.00
C16    C     0.98850   0.74780   0.54890   0.01267  Uiso   1.00
C17    C     0.97780   0.82980   0.50480   0.01267  Uiso   1.00
C18    C     0.85020   0.79880   0.46620   0.01267  Uiso   1.00
C19    C     0.13360   0.79320   0.59250   0.01267  Uiso   1.00
C20    C     0.26550   0.78740   0.44340   0.01267  Uiso   1.00
C21    C     0.18690   0.54440   0.36390   0.01267  Uiso   1.00
C22    C     0.12640   0.56600   0.45110   0.01267  Uiso   1.00
C23    C     0.57930   0.98340   0.38200   0.01267  Uiso   1.00
C24    C     0.72040   0.11000   0.44600   0.01267  Uiso   1.00
C25    C     0.73660   0.23280   0.52790   0.01267  Uiso   1.00
C26    C     0.87470   0.33900   0.58910   0.01267  Uiso   1.00
C27    C     0.98320   0.32300   0.56700   0.01267  Uiso   1.00
C28    C     0.95290   0.19780   0.48420   0.01267  Uiso   1.00
C29    C     0.83010   0.09040   0.42400   0.01267  Uiso   1.00
C30    C     0.12670   0.43160   0.62980   0.01267  Uiso   1.00
C31    C     0.19120   0.65160   0.06630   0.01267  Uiso   1.00
C32    C     0.35240   0.88720   0.15710   0.01267  Uiso   1.00
C33    C     0.27410   0.86880   0.07020   0.01267  Uiso   1.00
C34    C     0.05910   0.66020   0.92960   0.01267  Uiso   1.00
C35    C     0.95260   0.68600   0.97160   0.01267  Uiso   1.00
C36    C     0.85990   0.60400   0.01560   0.01267  Uiso   1.00
C37    C     0.76330   0.63500   0.05430   0.01267  Uiso   1.00
C38    C     0.75930   0.74780   0.04890   0.01267  Uiso   1.00
C39    C     0.85200   0.82980   0.00480   0.01267  Uiso   1.00
C40    C     0.94860   0.79880   0.96620   0.01267  Uiso   1.00
C41    C     0.65960   0.79320   0.09250   0.01267  Uiso   1.00
C42    C     0.52190   0.78740   0.94340   0.01267  Uiso   1.00
C43    C     0.35750   0.54440   0.86390   0.01267  Uiso   1.00
C44    C     0.43960   0.56600   0.95110   0.01267  Uiso   1.00
N1     N     0.44820   0.74980   0.65120   0.01267  Uiso   1.00
N2     N     0.54420   0.72200   0.51400   0.01267  Uiso   1.00
N3     N     0.27010   0.67960   0.35790   0.01267  Uiso   1.00
N4     N     0.16750   0.71460   0.49740   0.01267  Uiso   1.00
N5     N     0.61760   0.26500   0.04000   0.01267  Uiso   1.00
N6     N     0.30160   0.74980   0.15120   0.01267  Uiso   1.00
N7     N     0.17780   0.72200   0.01400   0.01267  Uiso   1.00
N8     N     0.40950   0.67960   0.85790   0.01267  Uiso   1.00
N9     N     0.54710   0.71460   0.99740   0.01267  Uiso   1.00
N10    N     0.64740   0.26500   0.54000   0.01267  Uiso   1.00
O1     O     0.52540   0.01140   0.89610   0.01267  Uiso   1.00
O2     O     0.30200   0.86620   0.82200   0.01267  Uiso   1.00
O3     O     0.40670   0.54800   0.19070   0.01267  Uiso   1.00
O4     O     0.18800   0.41760   0.12060   0.01267  Uiso   1.00
O5     O     0.48600   0.01140   0.39610   0.01267  Uiso   1.00
O6     O     0.56420   0.86620   0.32200   0.01267  Uiso   1.00
O7     O     0.14130   0.54800   0.69070   0.01267  Uiso   1.00
O8     O     0.22960   0.41760   0.62060   0.01267  Uiso   1.00
