data_image0
_cell_length_a       35.4247
_cell_length_b       13.9402
_cell_length_c       9.4516
_cell_angle_alpha    90
_cell_angle_beta     101.693
_cell_angle_gamma    90

_symmetry_space_group_name_H-M    "P 1"
_symmetry_int_tables_number       1

loop_
  _symmetry_equiv_pos_as_xyz
  'x, y, z'

loop_
  _atom_site_label
  _atom_site_occupancy
  _atom_site_fract_x
  _atom_site_fract_y
  _atom_site_fract_z
  _atom_site_thermal_displace_type
  _atom_site_B_iso_or_equiv
  _atom_site_type_symbol
  Ni1      1.0000 0.86393  0.29425  0.16184  Biso   1.000  Ni
  O1       1.0000 0.83504  0.17700  0.21590  Biso   1.000  O
  O2       1.0000 0.82037  0.37820  0.21470  Biso   1.000  O
  O3       1.0000 0.85215  0.44300  0.42040  Biso   1.000  O
  O4       1.0000 0.86800  0.14060  0.43480  Biso   1.000  O
  N1       1.0000 0.83261  0.28330  0.95170  Biso   1.000  N
  N2       1.0000 0.90700  0.20700  0.10650  Biso   1.000  N
  C1       1.0000 0.77403  0.24570  0.78770  Biso   1.000  C
  H1       1.0000 0.74860  0.22490  0.77350  Biso   1.000  H
  C2       1.0000 0.78796  0.49010  0.33470  Biso   1.000  C
  H2       1.0000 0.78930  0.52750  0.41700  Biso   1.000  H
  C3       1.0000 0.79092  0.26720  0.67000  Biso   1.000  C
  C4       1.0000 0.77756  0.04870  0.24780  Biso   1.000  C
  H3       1.0000 0.77620  0.08090  0.16070  Biso   1.000  H
  C5       1.0000 0.79593  0.25580  0.92530  Biso   1.000  C
  H4       1.0000 0.78450  0.24270  0.00340  Biso   1.000  H
  C6       1.0000 0.80973  0.05990  0.34730  Biso   1.000  C
  H5       1.0000 0.81340  0.02200  0.42990  Biso   1.000  H
  C7       1.0000 0.75560  0.49120  0.23810  Biso   1.000  C
  H6       1.0000 0.75380  0.45320  0.15620  Biso   1.000  H
  C8       1.0000 0.84000  0.13060  0.33140  Biso   1.000  C
  C9       1.0000 0.84842  0.30310  0.83820  Biso   1.000  C
  H7       1.0000 0.87410  0.32250  0.85540  Biso   1.000  H
  C10      1.0000 0.82283  0.43290  0.32180  Biso   1.000  C
  C11      1.0000 0.82890  0.29630  0.69820  Biso   1.000  C
  H8       1.0000 0.84110  0.31110  0.62270  Biso   1.000  H
  C12      1.0000 0.94264  0.23730  0.11190  Biso   1.000  C
  H9       1.0000 0.94920  0.29890  0.14580  Biso   1.000  H
  C13      1.0000 0.89883  0.11800  0.06010  Biso   1.000  C
  H10      1.0000 0.87420  0.09460  0.05920  Biso   1.000  H
  C14      1.0000 0.92450  0.05910  0.01370  Biso   1.000  C
  H11      1.0000 0.91730  0.99720  0.98310  Biso   1.000  H
  C15      1.0000 0.76840  0.26510  0.51490  Biso   1.000  C
  H12      1.0000 0.76870  0.32960  0.47680  Biso   1.000  H
  H13      1.0000 0.78270  0.22500  0.46030  Biso   1.000  H
  C16      1.0000 0.97052  0.18150  0.06950  Biso   1.000  C
  H14      1.0000 0.99560  0.20430  0.07940  Biso   1.000  H
  C17      1.0000 0.96090  0.09140  0.01220  Biso   1.000  C
  C18      1.0000 0.99050  0.03110  0.94430  Biso   1.000  C
  H15      1.0000 0.97710  0.99420  0.86230  Biso   1.000  H
  H16      1.0000 0.00890  0.07300  0.91210  Biso   1.000  H
  Ni2      1.0000 0.36393  0.79425  0.16184  Biso   1.000  Ni
  O5       1.0000 0.33504  0.67700  0.21590  Biso   1.000  O
  O6       1.0000 0.32037  0.87820  0.21470  Biso   1.000  O
  O7       1.0000 0.35215  0.94300  0.42040  Biso   1.000  O
  O8       1.0000 0.36800  0.64060  0.43480  Biso   1.000  O
  N3       1.0000 0.33261  0.78330  0.95170  Biso   1.000  N
  N4       1.0000 0.40700  0.70700  0.10650  Biso   1.000  N
  C19      1.0000 0.27403  0.74570  0.78770  Biso   1.000  C
  H17      1.0000 0.24860  0.72490  0.77350  Biso   1.000  H
  C20      1.0000 0.28796  0.99010  0.33470  Biso   1.000  C
  H18      1.0000 0.28930  0.02750  0.41700  Biso   1.000  H
  C21      1.0000 0.29092  0.76720  0.67000  Biso   1.000  C
  C22      1.0000 0.27756  0.54870  0.24780  Biso   1.000  C
  H19      1.0000 0.27620  0.58090  0.16070  Biso   1.000  H
  C23      1.0000 0.29593  0.75580  0.92530  Biso   1.000  C
  H20      1.0000 0.28450  0.74270  0.00340  Biso   1.000  H
  C24      1.0000 0.30973  0.55990  0.34730  Biso   1.000  C
  H21      1.0000 0.31340  0.52200  0.42990  Biso   1.000  H
  C25      1.0000 0.25560  0.99120  0.23810  Biso   1.000  C
  H22      1.0000 0.25380  0.95320  0.15620  Biso   1.000  H
  C26      1.0000 0.34000  0.63060  0.33140  Biso   1.000  C
  C27      1.0000 0.34842  0.80310  0.83820  Biso   1.000  C
  H23      1.0000 0.37410  0.82250  0.85540  Biso   1.000  H
  C28      1.0000 0.32283  0.93290  0.32180  Biso   1.000  C
  C29      1.0000 0.32890  0.79630  0.69820  Biso   1.000  C
  H24      1.0000 0.34110  0.81110  0.62270  Biso   1.000  H
  C30      1.0000 0.44264  0.73730  0.11190  Biso   1.000  C
  H25      1.0000 0.44920  0.79890  0.14580  Biso   1.000  H
  C31      1.0000 0.39883  0.61800  0.06010  Biso   1.000  C
  H26      1.0000 0.37420  0.59460  0.05920  Biso   1.000  H
  C32      1.0000 0.42450  0.55910  0.01370  Biso   1.000  C
  H27      1.0000 0.41730  0.49720  0.98310  Biso   1.000  H
  C33      1.0000 0.26840  0.76510  0.51490  Biso   1.000  C
  H28      1.0000 0.26870  0.82960  0.47680  Biso   1.000  H
  H29      1.0000 0.28270  0.72500  0.46030  Biso   1.000  H
  C34      1.0000 0.47052  0.68150  0.06950  Biso   1.000  C
  H30      1.0000 0.49560  0.70430  0.07940  Biso   1.000  H
  C35      1.0000 0.46090  0.59140  0.01220  Biso   1.000  C
  C36      1.0000 0.49050  0.53110  0.94430  Biso   1.000  C
  H31      1.0000 0.47710  0.49420  0.86230  Biso   1.000  H
  H32      1.0000 0.50890  0.57300  0.91210  Biso   1.000  H
  Ni3      1.0000 0.13607  0.29425  0.33816  Biso   1.000  Ni
  O9       1.0000 0.16496  0.17700  0.28410  Biso   1.000  O
  O10      1.0000 0.17963  0.37820  0.28530  Biso   1.000  O
  O11      1.0000 0.14785  0.44300  0.07960  Biso   1.000  O
  O12      1.0000 0.13200  0.14060  0.06520  Biso   1.000  O
  N5       1.0000 0.16739  0.28330  0.54830  Biso   1.000  N
  N6       1.0000 0.09300  0.20700  0.39350  Biso   1.000  N
  C37      1.0000 0.22597  0.24570  0.71230  Biso   1.000  C
  H33      1.0000 0.25140  0.22490  0.72650  Biso   1.000  H
  C38      1.0000 0.21204  0.49010  0.16530  Biso   1.000  C
  H34      1.0000 0.21070  0.52750  0.08300  Biso   1.000  H
  C39      1.0000 0.20908  0.26720  0.83000  Biso   1.000  C
  C40      1.0000 0.22244  0.04870  0.25220  Biso   1.000  C
  H35      1.0000 0.22380  0.08090  0.33930  Biso   1.000  H
  C41      1.0000 0.20407  0.25580  0.57470  Biso   1.000  C
  H36      1.0000 0.21550  0.24270  0.49660  Biso   1.000  H
  C42      1.0000 0.19027  0.05990  0.15270  Biso   1.000  C
  H37      1.0000 0.18660  0.02200  0.07010  Biso   1.000  H
  C43      1.0000 0.24440  0.49120  0.26190  Biso   1.000  C
  H38      1.0000 0.24620  0.45320  0.34380  Biso   1.000  H
  C44      1.0000 0.16000  0.13060  0.16860  Biso   1.000  C
  C45      1.0000 0.15158  0.30310  0.66180  Biso   1.000  C
  H39      1.0000 0.12590  0.32250  0.64460  Biso   1.000  H
  C46      1.0000 0.17717  0.43290  0.17820  Biso   1.000  C
  C47      1.0000 0.17110  0.29630  0.80180  Biso   1.000  C
  H40      1.0000 0.15890  0.31110  0.87730  Biso   1.000  H
  C48      1.0000 0.05736  0.23730  0.38810  Biso   1.000  C
  H41      1.0000 0.05080  0.29890  0.35420  Biso   1.000  H
  C49      1.0000 0.10117  0.11800  0.43990  Biso   1.000  C
  H42      1.0000 0.12580  0.09460  0.44080  Biso   1.000  H
  C50      1.0000 0.07550  0.05910  0.48630  Biso   1.000  C
  H43      1.0000 0.08270  0.99720  0.51690  Biso   1.000  H
  C51      1.0000 0.23160  0.26510  0.98510  Biso   1.000  C
  H44      1.0000 0.23130  0.32960  0.02320  Biso   1.000  H
  H45      1.0000 0.21730  0.22500  0.03970  Biso   1.000  H
  C52      1.0000 0.02948  0.18150  0.43050  Biso   1.000  C
  H46      1.0000 0.00440  0.20430  0.42060  Biso   1.000  H
  C53      1.0000 0.03910  0.09140  0.48780  Biso   1.000  C
  C54      1.0000 0.00950  0.03110  0.55570  Biso   1.000  C
  H47      1.0000 0.02290  0.99420  0.63770  Biso   1.000  H
  H48      1.0000 0.99110  0.07300  0.58790  Biso   1.000  H
  Ni4      1.0000 0.63607  0.79425  0.33816  Biso   1.000  Ni
  O13      1.0000 0.66496  0.67700  0.28410  Biso   1.000  O
  O14      1.0000 0.67963  0.87820  0.28530  Biso   1.000  O
  O15      1.0000 0.64785  0.94300  0.07960  Biso   1.000  O
  O16      1.0000 0.63200  0.64060  0.06520  Biso   1.000  O
  N7       1.0000 0.66739  0.78330  0.54830  Biso   1.000  N
  N8       1.0000 0.59300  0.70700  0.39350  Biso   1.000  N
  C55      1.0000 0.72597  0.74570  0.71230  Biso   1.000  C
  H49      1.0000 0.75140  0.72490  0.72650  Biso   1.000  H
  C56      1.0000 0.71204  0.99010  0.16530  Biso   1.000  C
  H50      1.0000 0.71070  0.02750  0.08300  Biso   1.000  H
  C57      1.0000 0.70908  0.76720  0.83000  Biso   1.000  C
  C58      1.0000 0.72244  0.54870  0.25220  Biso   1.000  C
  H51      1.0000 0.72380  0.58090  0.33930  Biso   1.000  H
  C59      1.0000 0.70407  0.75580  0.57470  Biso   1.000  C
  H52      1.0000 0.71550  0.74270  0.49660  Biso   1.000  H
  C60      1.0000 0.69027  0.55990  0.15270  Biso   1.000  C
  H53      1.0000 0.68660  0.52200  0.07010  Biso   1.000  H
  C61      1.0000 0.74440  0.99120  0.26190  Biso   1.000  C
  H54      1.0000 0.74620  0.95320  0.34380  Biso   1.000  H
  C62      1.0000 0.66000  0.63060  0.16860  Biso   1.000  C
  C63      1.0000 0.65158  0.80310  0.66180  Biso   1.000  C
  H55      1.0000 0.62590  0.82250  0.64460  Biso   1.000  H
  C64      1.0000 0.67717  0.93290  0.17820  Biso   1.000  C
  C65      1.0000 0.67110  0.79630  0.80180  Biso   1.000  C
  H56      1.0000 0.65890  0.81110  0.87730  Biso   1.000  H
  C66      1.0000 0.55736  0.73730  0.38810  Biso   1.000  C
  H57      1.0000 0.55080  0.79890  0.35420  Biso   1.000  H
  C67      1.0000 0.60117  0.61800  0.43990  Biso   1.000  C
  H58      1.0000 0.62580  0.59460  0.44080  Biso   1.000  H
  C68      1.0000 0.57550  0.55910  0.48630  Biso   1.000  C
  H59      1.0000 0.58270  0.49720  0.51690  Biso   1.000  H
  C69      1.0000 0.73160  0.76510  0.98510  Biso   1.000  C
  H60      1.0000 0.73130  0.82960  0.02320  Biso   1.000  H
  H61      1.0000 0.71730  0.72500  0.03970  Biso   1.000  H
  C70      1.0000 0.52948  0.68150  0.43050  Biso   1.000  C
  H62      1.0000 0.50440  0.70430  0.42060  Biso   1.000  H
  C71      1.0000 0.53910  0.59140  0.48780  Biso   1.000  C
  C72      1.0000 0.50950  0.53110  0.55570  Biso   1.000  C
  H63      1.0000 0.52290  0.49420  0.63770  Biso   1.000  H
  H64      1.0000 0.49110  0.57300  0.58790  Biso   1.000  H
  Ni5      1.0000 0.13607  0.70575  0.83816  Biso   1.000  Ni
  O17      1.0000 0.16496  0.82300  0.78410  Biso   1.000  O
  O18      1.0000 0.17963  0.62180  0.78530  Biso   1.000  O
  O19      1.0000 0.14785  0.55700  0.57960  Biso   1.000  O
  O20      1.0000 0.13200  0.85940  0.56520  Biso   1.000  O
  N9       1.0000 0.16739  0.71670  0.04830  Biso   1.000  N
  N10      1.0000 0.09300  0.79300  0.89350  Biso   1.000  N
  C73      1.0000 0.22597  0.75430  0.21230  Biso   1.000  C
  H65      1.0000 0.25140  0.77510  0.22650  Biso   1.000  H
  C74      1.0000 0.21204  0.50990  0.66530  Biso   1.000  C
  H66      1.0000 0.21070  0.47250  0.58300  Biso   1.000  H
  C75      1.0000 0.20908  0.73280  0.33000  Biso   1.000  C
  C76      1.0000 0.22244  0.95130  0.75220  Biso   1.000  C
  H67      1.0000 0.22380  0.91910  0.83930  Biso   1.000  H
  C77      1.0000 0.20407  0.74420  0.07470  Biso   1.000  C
  H68      1.0000 0.21550  0.75730  0.99660  Biso   1.000  H
  C78      1.0000 0.19027  0.94010  0.65270  Biso   1.000  C
  H69      1.0000 0.18660  0.97800  0.57010  Biso   1.000  H
  C79      1.0000 0.24440  0.50880  0.76190  Biso   1.000  C
  H70      1.0000 0.24620  0.54680  0.84380  Biso   1.000  H
  C80      1.0000 0.16000  0.86940  0.66860  Biso   1.000  C
  C81      1.0000 0.15158  0.69690  0.16180  Biso   1.000  C
  H71      1.0000 0.12590  0.67750  0.14460  Biso   1.000  H
  C82      1.0000 0.17717  0.56710  0.67820  Biso   1.000  C
  C83      1.0000 0.17110  0.70370  0.30180  Biso   1.000  C
  H72      1.0000 0.15890  0.68890  0.37730  Biso   1.000  H
  C84      1.0000 0.05736  0.76270  0.88810  Biso   1.000  C
  H73      1.0000 0.05080  0.70110  0.85420  Biso   1.000  H
  C85      1.0000 0.10117  0.88200  0.93990  Biso   1.000  C
  H74      1.0000 0.12580  0.90540  0.94080  Biso   1.000  H
  C86      1.0000 0.07550  0.94090  0.98630  Biso   1.000  C
  H75      1.0000 0.08270  0.00280  0.01690  Biso   1.000  H
  C87      1.0000 0.23160  0.73490  0.48510  Biso   1.000  C
  H76      1.0000 0.23130  0.67040  0.52320  Biso   1.000  H
  H77      1.0000 0.21730  0.77500  0.53970  Biso   1.000  H
  C88      1.0000 0.02948  0.81850  0.93050  Biso   1.000  C
  H78      1.0000 0.00440  0.79570  0.92060  Biso   1.000  H
  C89      1.0000 0.03910  0.90860  0.98780  Biso   1.000  C
  C90      1.0000 0.00950  0.96890  0.05570  Biso   1.000  C
  H79      1.0000 0.02290  0.00580  0.13770  Biso   1.000  H
  H80      1.0000 0.99110  0.92700  0.08790  Biso   1.000  H
  Ni6      1.0000 0.63607  0.20575  0.83816  Biso   1.000  Ni
  O21      1.0000 0.66496  0.32300  0.78410  Biso   1.000  O
  O22      1.0000 0.67963  0.12180  0.78530  Biso   1.000  O
  O23      1.0000 0.64785  0.05700  0.57960  Biso   1.000  O
  O24      1.0000 0.63200  0.35940  0.56520  Biso   1.000  O
  N11      1.0000 0.66739  0.21670  0.04830  Biso   1.000  N
  N12      1.0000 0.59300  0.29300  0.89350  Biso   1.000  N
  C91      1.0000 0.72597  0.25430  0.21230  Biso   1.000  C
  H81      1.0000 0.75140  0.27510  0.22650  Biso   1.000  H
  C92      1.0000 0.71204  0.00990  0.66530  Biso   1.000  C
  H82      1.0000 0.71070  0.97250  0.58300  Biso   1.000  H
  C93      1.0000 0.70908  0.23280  0.33000  Biso   1.000  C
  C94      1.0000 0.72244  0.45130  0.75220  Biso   1.000  C
  H83      1.0000 0.72380  0.41910  0.83930  Biso   1.000  H
  C95      1.0000 0.70407  0.24420  0.07470  Biso   1.000  C
  H84      1.0000 0.71550  0.25730  0.99660  Biso   1.000  H
  C96      1.0000 0.69027  0.44010  0.65270  Biso   1.000  C
  H85      1.0000 0.68660  0.47800  0.57010  Biso   1.000  H
  C97      1.0000 0.74440  0.00880  0.76190  Biso   1.000  C
  H86      1.0000 0.74620  0.04680  0.84380  Biso   1.000  H
  C98      1.0000 0.66000  0.36940  0.66860  Biso   1.000  C
  C99      1.0000 0.65158  0.19690  0.16180  Biso   1.000  C
  H87      1.0000 0.62590  0.17750  0.14460  Biso   1.000  H
  C100     1.0000 0.67717  0.06710  0.67820  Biso   1.000  C
  C101     1.0000 0.67110  0.20370  0.30180  Biso   1.000  C
  H88      1.0000 0.65890  0.18890  0.37730  Biso   1.000  H
  C102     1.0000 0.55736  0.26270  0.88810  Biso   1.000  C
  H89      1.0000 0.55080  0.20110  0.85420  Biso   1.000  H
  C103     1.0000 0.60117  0.38200  0.93990  Biso   1.000  C
  H90      1.0000 0.62580  0.40540  0.94080  Biso   1.000  H
  C104     1.0000 0.57550  0.44090  0.98630  Biso   1.000  C
  H91      1.0000 0.58270  0.50280  0.01690  Biso   1.000  H
  C105     1.0000 0.73160  0.23490  0.48510  Biso   1.000  C
  H92      1.0000 0.73130  0.17040  0.52320  Biso   1.000  H
  H93      1.0000 0.71730  0.27500  0.53970  Biso   1.000  H
  C106     1.0000 0.52948  0.31850  0.93050  Biso   1.000  C
  H94      1.0000 0.50440  0.29570  0.92060  Biso   1.000  H
  C107     1.0000 0.53910  0.40860  0.98780  Biso   1.000  C
  C108     1.0000 0.50950  0.46890  0.05570  Biso   1.000  C
  H95      1.0000 0.52290  0.50580  0.13770  Biso   1.000  H
  H96      1.0000 0.49110  0.42700  0.08790  Biso   1.000  H
  Ni7      1.0000 0.86393  0.70575  0.66184  Biso   1.000  Ni
  O25      1.0000 0.83504  0.82300  0.71590  Biso   1.000  O
  O26      1.0000 0.82037  0.62180  0.71470  Biso   1.000  O
  O27      1.0000 0.85215  0.55700  0.92040  Biso   1.000  O
  O28      1.0000 0.86800  0.85940  0.93480  Biso   1.000  O
  N13      1.0000 0.83261  0.71670  0.45170  Biso   1.000  N
  N14      1.0000 0.90700  0.79300  0.60650  Biso   1.000  N
  C109     1.0000 0.77403  0.75430  0.28770  Biso   1.000  C
  H97      1.0000 0.74860  0.77510  0.27350  Biso   1.000  H
  C110     1.0000 0.78796  0.50990  0.83470  Biso   1.000  C
  H98      1.0000 0.78930  0.47250  0.91700  Biso   1.000  H
  C111     1.0000 0.79092  0.73280  0.17000  Biso   1.000  C
  C112     1.0000 0.77756  0.95130  0.74780  Biso   1.000  C
  H99      1.0000 0.77620  0.91910  0.66070  Biso   1.000  H
  C113     1.0000 0.79593  0.74420  0.42530  Biso   1.000  C
  H100     1.0000 0.78450  0.75730  0.50340  Biso   1.000  H
  C114     1.0000 0.80973  0.94010  0.84730  Biso   1.000  C
  H101     1.0000 0.81340  0.97800  0.92990  Biso   1.000  H
  C115     1.0000 0.75560  0.50880  0.73810  Biso   1.000  C
  H102     1.0000 0.75380  0.54680  0.65620  Biso   1.000  H
  C116     1.0000 0.84000  0.86940  0.83140  Biso   1.000  C
  C117     1.0000 0.84842  0.69690  0.33820  Biso   1.000  C
  H103     1.0000 0.87410  0.67750  0.35540  Biso   1.000  H
  C118     1.0000 0.82283  0.56710  0.82180  Biso   1.000  C
  C119     1.0000 0.82890  0.70370  0.19820  Biso   1.000  C
  H104     1.0000 0.84110  0.68890  0.12270  Biso   1.000  H
  C120     1.0000 0.94264  0.76270  0.61190  Biso   1.000  C
  H105     1.0000 0.94920  0.70110  0.64580  Biso   1.000  H
  C121     1.0000 0.89883  0.88200  0.56010  Biso   1.000  C
  H106     1.0000 0.87420  0.90540  0.55920  Biso   1.000  H
  C122     1.0000 0.92450  0.94090  0.51370  Biso   1.000  C
  H107     1.0000 0.91730  0.00280  0.48310  Biso   1.000  H
  C123     1.0000 0.76840  0.73490  0.01490  Biso   1.000  C
  H108     1.0000 0.76870  0.67040  0.97680  Biso   1.000  H
  H109     1.0000 0.78270  0.77500  0.96030  Biso   1.000  H
  C124     1.0000 0.97052  0.81850  0.56950  Biso   1.000  C
  H110     1.0000 0.99560  0.79570  0.57940  Biso   1.000  H
  C125     1.0000 0.96090  0.90860  0.51220  Biso   1.000  C
  C126     1.0000 0.99050  0.96890  0.44430  Biso   1.000  C
  H111     1.0000 0.97710  0.00580  0.36230  Biso   1.000  H
  H112     1.0000 0.00890  0.92700  0.41210  Biso   1.000  H
  Ni8      1.0000 0.36393  0.20575  0.66184  Biso   1.000  Ni
  O29      1.0000 0.33504  0.32300  0.71590  Biso   1.000  O
  O30      1.0000 0.32037  0.12180  0.71470  Biso   1.000  O
  O31      1.0000 0.35215  0.05700  0.92040  Biso   1.000  O
  O32      1.0000 0.36800  0.35940  0.93480  Biso   1.000  O
  N15      1.0000 0.33261  0.21670  0.45170  Biso   1.000  N
  N16      1.0000 0.40700  0.29300  0.60650  Biso   1.000  N
  C127     1.0000 0.27403  0.25430  0.28770  Biso   1.000  C
  H113     1.0000 0.24860  0.27510  0.27350  Biso   1.000  H
  C128     1.0000 0.28796  0.00990  0.83470  Biso   1.000  C
  H114     1.0000 0.28930  0.97250  0.91700  Biso   1.000  H
  C129     1.0000 0.29092  0.23280  0.17000  Biso   1.000  C
  C130     1.0000 0.27756  0.45130  0.74780  Biso   1.000  C
  H115     1.0000 0.27620  0.41910  0.66070  Biso   1.000  H
  C131     1.0000 0.29593  0.24420  0.42530  Biso   1.000  C
  H116     1.0000 0.28450  0.25730  0.50340  Biso   1.000  H
  C132     1.0000 0.30973  0.44010  0.84730  Biso   1.000  C
  H117     1.0000 0.31340  0.47800  0.92990  Biso   1.000  H
  C133     1.0000 0.25560  0.00880  0.73810  Biso   1.000  C
  H118     1.0000 0.25380  0.04680  0.65620  Biso   1.000  H
  C134     1.0000 0.34000  0.36940  0.83140  Biso   1.000  C
  C135     1.0000 0.34842  0.19690  0.33820  Biso   1.000  C
  H119     1.0000 0.37410  0.17750  0.35540  Biso   1.000  H
  C136     1.0000 0.32283  0.06710  0.82180  Biso   1.000  C
  C137     1.0000 0.32890  0.20370  0.19820  Biso   1.000  C
  H120     1.0000 0.34110  0.18890  0.12270  Biso   1.000  H
  C138     1.0000 0.44264  0.26270  0.61190  Biso   1.000  C
  H121     1.0000 0.44920  0.20110  0.64580  Biso   1.000  H
  C139     1.0000 0.39883  0.38200  0.56010  Biso   1.000  C
  H122     1.0000 0.37420  0.40540  0.55920  Biso   1.000  H
  C140     1.0000 0.42450  0.44090  0.51370  Biso   1.000  C
  H123     1.0000 0.41730  0.50280  0.48310  Biso   1.000  H
  C141     1.0000 0.26840  0.23490  0.01490  Biso   1.000  C
  H124     1.0000 0.26870  0.17040  0.97680  Biso   1.000  H
  H125     1.0000 0.28270  0.27500  0.96030  Biso   1.000  H
  C142     1.0000 0.47052  0.31850  0.56950  Biso   1.000  C
  H126     1.0000 0.49560  0.29570  0.57940  Biso   1.000  H
  C143     1.0000 0.46090  0.40860  0.51220  Biso   1.000  C
  C144     1.0000 0.49050  0.46890  0.44430  Biso   1.000  C
  H127     1.0000 0.47710  0.50580  0.36230  Biso   1.000  H
  H128     1.0000 0.50890  0.42700  0.41210  Biso   1.000  H
