data_image0
_cell_length_a       10.7961
_cell_length_b       8.795
_cell_length_c       25.1748
_cell_angle_alpha    90
_cell_angle_beta     98.811
_cell_angle_gamma    90

_symmetry_space_group_name_H-M    "P 1"
_symmetry_int_tables_number       1

loop_
  _symmetry_equiv_pos_as_xyz
  'x, y, z'

loop_
  _atom_site_label
  _atom_site_occupancy
  _atom_site_fract_x
  _atom_site_fract_y
  _atom_site_fract_z
  _atom_site_thermal_displace_type
  _atom_site_B_iso_or_equiv
  _atom_site_type_symbol
  Cu1      1.0000 0.83861  0.21905  0.26336  Biso   1.000  Cu
  O1       1.0000 0.00950  0.17790  0.25196  Biso   1.000  O
  N1       1.0000 0.77280  0.18080  0.18547  Biso   1.000  N
  O2       1.0000 0.03470  0.99660  0.31456  Biso   1.000  O
  N2       1.0000 0.50240  0.92810  0.35902  Biso   1.000  N
  O3       1.0000 0.60810  0.97400  0.37332  Biso   1.000  O
  N3       1.0000 0.39900  0.23500  0.84159  Biso   1.000  N
  N4       1.0000 0.63140  0.13510  0.02122  Biso   1.000  N
  C1       1.0000 0.42170  0.01040  0.31696  Biso   1.000  C
  C2       1.0000 0.21260  0.08450  0.28001  Biso   1.000  C
  C3       1.0000 0.47370  0.08980  0.27775  Biso   1.000  C
  C4       1.0000 0.62490  0.25490  0.11019  Biso   1.000  C
  H1       1.0000 0.55730  0.31550  0.09600  Biso   1.000  H
  C5       1.0000 0.67560  0.26590  0.16302  Biso   1.000  C
  H2       1.0000 0.64130  0.33550  0.18450  Biso   1.000  H
  O4       1.0000 0.45850  0.81350  0.37745  Biso   1.000  O
  C6       1.0000 0.67530  0.15270  0.07833  Biso   1.000  C
  C7       1.0000 0.77340  0.06250  0.10051  Biso   1.000  C
  H3       1.0000 0.80820  0.99190  0.07960  Biso   1.000  H
  C8       1.0000 0.50130  0.21590  0.94886  Biso   1.000  C
  C9       1.0000 0.26140  0.16100  0.24006  Biso   1.000  C
  H4       1.0000 0.20740  0.21050  0.21330  Biso   1.000  H
  C10      1.0000 0.39040  0.16570  0.23903  Biso   1.000  C
  H5       1.0000 0.42090  0.22010  0.21210  Biso   1.000  H
  C11      1.0000 0.29530  0.00720  0.31839  Biso   1.000  C
  H6       1.0000 0.26470  0.95290  0.34530  Biso   1.000  H
  C12      1.0000 0.07420  0.08260  0.28318  Biso   1.000  C
  C13      1.0000 0.81980  0.07870  0.15472  Biso   1.000  C
  H7       1.0000 0.88540  0.01670  0.17010  Biso   1.000  H
  C14      1.0000 0.54990  0.12850  0.91105  Biso   1.000  C
  H8       1.0000 0.61660  0.06250  0.92130  Biso   1.000  H
  N5       1.0000 0.54910  0.22390  0.00496  Biso   1.000  N
  C15      1.0000 0.49620  0.14230  0.85757  Biso   1.000  C
  H9       1.0000 0.52890  0.08530  0.83190  Biso   1.000  H
  C16      1.0000 0.35250  0.31560  0.87883  Biso   1.000  C
  H10      1.0000 0.28370  0.37800  0.86810  Biso   1.000  H
  C17      1.0000 0.40190  0.31030  0.93215  Biso   1.000  C
  H11      1.0000 0.36830  0.37020  0.95690  Biso   1.000  H
  O5       1.0000 0.65990  0.97280  0.26015  Biso   1.000  O
  C18      1.0000 0.61090  0.09070  0.27278  Biso   1.000  C
  O6       1.0000 0.66430  0.21900  0.27946  Biso   1.000  O
  Cu2      1.0000 0.33861  0.28095  0.76336  Biso   1.000  Cu
  O7       1.0000 0.50950  0.32210  0.75196  Biso   1.000  O
  N6       1.0000 0.27280  0.31920  0.68547  Biso   1.000  N
  O8       1.0000 0.53470  0.50340  0.81456  Biso   1.000  O
  N7       1.0000 0.00240  0.57190  0.85902  Biso   1.000  N
  O9       1.0000 0.10810  0.52600  0.87332  Biso   1.000  O
  N8       1.0000 0.89900  0.26500  0.34159  Biso   1.000  N
  N9       1.0000 0.13140  0.36490  0.52122  Biso   1.000  N
  C19      1.0000 0.92170  0.48960  0.81696  Biso   1.000  C
  C20      1.0000 0.71260  0.41550  0.78001  Biso   1.000  C
  C21      1.0000 0.97370  0.41020  0.77775  Biso   1.000  C
  C22      1.0000 0.12490  0.24510  0.61019  Biso   1.000  C
  H12      1.0000 0.05730  0.18450  0.59600  Biso   1.000  H
  C23      1.0000 0.17560  0.23410  0.66302  Biso   1.000  C
  H13      1.0000 0.14130  0.16450  0.68450  Biso   1.000  H
  O10      1.0000 0.95850  0.68650  0.87745  Biso   1.000  O
  C24      1.0000 0.17530  0.34730  0.57833  Biso   1.000  C
  C25      1.0000 0.27340  0.43750  0.60051  Biso   1.000  C
  H14      1.0000 0.30820  0.50810  0.57960  Biso   1.000  H
  C26      1.0000 0.00130  0.28410  0.44886  Biso   1.000  C
  C27      1.0000 0.76140  0.33900  0.74006  Biso   1.000  C
  H15      1.0000 0.70740  0.28950  0.71330  Biso   1.000  H
  C28      1.0000 0.89040  0.33430  0.73903  Biso   1.000  C
  H16      1.0000 0.92090  0.27990  0.71210  Biso   1.000  H
  C29      1.0000 0.79530  0.49280  0.81839  Biso   1.000  C
  H17      1.0000 0.76470  0.54710  0.84530  Biso   1.000  H
  C30      1.0000 0.57420  0.41740  0.78318  Biso   1.000  C
  C31      1.0000 0.31980  0.42130  0.65472  Biso   1.000  C
  H18      1.0000 0.38540  0.48330  0.67010  Biso   1.000  H
  C32      1.0000 0.04990  0.37150  0.41105  Biso   1.000  C
  H19      1.0000 0.11660  0.43750  0.42130  Biso   1.000  H
  N10      1.0000 0.04910  0.27610  0.50496  Biso   1.000  N
  C33      1.0000 0.99620  0.35770  0.35757  Biso   1.000  C
  H20      1.0000 0.02890  0.41470  0.33190  Biso   1.000  H
  C34      1.0000 0.85250  0.18440  0.37883  Biso   1.000  C
  H21      1.0000 0.78370  0.12200  0.36810  Biso   1.000  H
  C35      1.0000 0.90190  0.18970  0.43215  Biso   1.000  C
  H22      1.0000 0.86830  0.12980  0.45690  Biso   1.000  H
  O11      1.0000 0.15990  0.52720  0.76015  Biso   1.000  O
  C36      1.0000 0.11090  0.40930  0.77278  Biso   1.000  C
  O12      1.0000 0.16430  0.28100  0.77946  Biso   1.000  O
  Cu3      1.0000 0.66139  0.71905  0.23664  Biso   1.000  Cu
  O13      1.0000 0.49050  0.67790  0.24804  Biso   1.000  O
  N11      1.0000 0.72720  0.68080  0.31453  Biso   1.000  N
  O14      1.0000 0.46530  0.49660  0.18544  Biso   1.000  O
  N12      1.0000 0.99760  0.42810  0.14098  Biso   1.000  N
  O15      1.0000 0.89190  0.47400  0.12668  Biso   1.000  O
  N13      1.0000 0.10100  0.73500  0.65841  Biso   1.000  N
  N14      1.0000 0.86860  0.63510  0.47878  Biso   1.000  N
  C37      1.0000 0.07830  0.51040  0.18304  Biso   1.000  C
  C38      1.0000 0.28740  0.58450  0.21999  Biso   1.000  C
  C39      1.0000 0.02630  0.58980  0.22225  Biso   1.000  C
  C40      1.0000 0.87510  0.75490  0.38981  Biso   1.000  C
  H23      1.0000 0.94270  0.81550  0.40400  Biso   1.000  H
  C41      1.0000 0.82440  0.76590  0.33698  Biso   1.000  C
  H24      1.0000 0.85870  0.83550  0.31550  Biso   1.000  H
  O16      1.0000 0.04150  0.31350  0.12255  Biso   1.000  O
  C42      1.0000 0.82470  0.65270  0.42167  Biso   1.000  C
  C43      1.0000 0.72660  0.56250  0.39949  Biso   1.000  C
  H25      1.0000 0.69180  0.49190  0.42040  Biso   1.000  H
  C44      1.0000 0.99870  0.71590  0.55114  Biso   1.000  C
  C45      1.0000 0.23860  0.66100  0.25994  Biso   1.000  C
  H26      1.0000 0.29260  0.71050  0.28670  Biso   1.000  H
  C46      1.0000 0.10960  0.66570  0.26097  Biso   1.000  C
  H27      1.0000 0.07910  0.72010  0.28790  Biso   1.000  H
  C47      1.0000 0.20470  0.50720  0.18161  Biso   1.000  C
  H28      1.0000 0.23530  0.45290  0.15470  Biso   1.000  H
  C48      1.0000 0.42580  0.58260  0.21682  Biso   1.000  C
  C49      1.0000 0.68020  0.57870  0.34528  Biso   1.000  C
  H29      1.0000 0.61460  0.51670  0.32990  Biso   1.000  H
  C50      1.0000 0.95010  0.62850  0.58895  Biso   1.000  C
  H30      1.0000 0.88340  0.56250  0.57870  Biso   1.000  H
  N15      1.0000 0.95090  0.72390  0.49504  Biso   1.000  N
  C51      1.0000 0.00380  0.64230  0.64243  Biso   1.000  C
  H31      1.0000 0.97110  0.58530  0.66810  Biso   1.000  H
  C52      1.0000 0.14750  0.81560  0.62117  Biso   1.000  C
  H32      1.0000 0.21630  0.87800  0.63190  Biso   1.000  H
  C53      1.0000 0.09810  0.81030  0.56785  Biso   1.000  C
  H33      1.0000 0.13170  0.87020  0.54310  Biso   1.000  H
  O17      1.0000 0.84010  0.47280  0.23985  Biso   1.000  O
  C54      1.0000 0.88910  0.59070  0.22722  Biso   1.000  C
  O18      1.0000 0.83570  0.71900  0.22054  Biso   1.000  O
  Cu4      1.0000 0.16139  0.78095  0.73664  Biso   1.000  Cu
  O19      1.0000 0.99050  0.82210  0.74804  Biso   1.000  O
  N16      1.0000 0.22720  0.81920  0.81453  Biso   1.000  N
  O20      1.0000 0.96530  0.00340  0.68544  Biso   1.000  O
  N17      1.0000 0.49760  0.07190  0.64098  Biso   1.000  N
  O21      1.0000 0.39190  0.02600  0.62668  Biso   1.000  O
  N18      1.0000 0.60100  0.76500  0.15841  Biso   1.000  N
  N19      1.0000 0.36860  0.86490  0.97878  Biso   1.000  N
  C55      1.0000 0.57830  0.98960  0.68304  Biso   1.000  C
  C56      1.0000 0.78740  0.91550  0.71999  Biso   1.000  C
  C57      1.0000 0.52630  0.91020  0.72225  Biso   1.000  C
  C58      1.0000 0.37510  0.74510  0.88981  Biso   1.000  C
  H34      1.0000 0.44270  0.68450  0.90400  Biso   1.000  H
  C59      1.0000 0.32440  0.73410  0.83698  Biso   1.000  C
  H35      1.0000 0.35870  0.66450  0.81550  Biso   1.000  H
  O22      1.0000 0.54150  0.18650  0.62255  Biso   1.000  O
  C60      1.0000 0.32470  0.84730  0.92167  Biso   1.000  C
  C61      1.0000 0.22660  0.93750  0.89949  Biso   1.000  C
  H36      1.0000 0.19180  0.00810  0.92040  Biso   1.000  H
  C62      1.0000 0.49870  0.78410  0.05114  Biso   1.000  C
  C63      1.0000 0.73860  0.83900  0.75994  Biso   1.000  C
  H37      1.0000 0.79260  0.78950  0.78670  Biso   1.000  H
  C64      1.0000 0.60960  0.83430  0.76097  Biso   1.000  C
  H38      1.0000 0.57910  0.77990  0.78790  Biso   1.000  H
  C65      1.0000 0.70470  0.99280  0.68161  Biso   1.000  C
  H39      1.0000 0.73530  0.04710  0.65470  Biso   1.000  H
  C66      1.0000 0.92580  0.91740  0.71682  Biso   1.000  C
  C67      1.0000 0.18020  0.92130  0.84528  Biso   1.000  C
  H40      1.0000 0.11460  0.98330  0.82990  Biso   1.000  H
  C68      1.0000 0.45010  0.87150  0.08895  Biso   1.000  C
  H41      1.0000 0.38340  0.93750  0.07870  Biso   1.000  H
  N20      1.0000 0.45090  0.77610  0.99504  Biso   1.000  N
  C69      1.0000 0.50380  0.85770  0.14243  Biso   1.000  C
  H42      1.0000 0.47110  0.91470  0.16810  Biso   1.000  H
  C70      1.0000 0.64750  0.68440  0.12117  Biso   1.000  C
  H43      1.0000 0.71630  0.62200  0.13190  Biso   1.000  H
  C71      1.0000 0.59810  0.68970  0.06785  Biso   1.000  C
  H44      1.0000 0.63170  0.62980  0.04310  Biso   1.000  H
  O23      1.0000 0.34010  0.02720  0.73985  Biso   1.000  O
  C72      1.0000 0.38910  0.90930  0.72722  Biso   1.000  C
  O24      1.0000 0.33570  0.78100  0.72054  Biso   1.000  O
