data_image0
_cell_length_a       8.3425
_cell_length_b       11.9337
_cell_length_c       21.6641
_cell_angle_alpha    90
_cell_angle_beta     90
_cell_angle_gamma    90

_symmetry_space_group_name_H-M    "P 1"
_symmetry_int_tables_number       1

loop_
  _symmetry_equiv_pos_as_xyz
  'x, y, z'

loop_
  _atom_site_label
  _atom_site_occupancy
  _atom_site_fract_x
  _atom_site_fract_y
  _atom_site_fract_z
  _atom_site_thermal_displace_type
  _atom_site_B_iso_or_equiv
  _atom_site_type_symbol
  Cu1      1.0000 0.52683  0.35891  0.50162  Biso   1.000  Cu
  Cu2      1.0000 0.94142  0.35636  0.49905  Biso   1.000  Cu
  Cu3      1.0000 0.75900  0.52245  0.74610  Biso   1.000  Cu
  N1       1.0000 0.82210  0.40660  0.57510  Biso   1.000  N
  N2       1.0000 0.84630  0.59180  0.92670  Biso   1.000  N
  N3       1.0000 0.68420  0.60040  0.92250  Biso   1.000  N
  C1       1.0000 0.30390  0.33440  0.49930  Biso   1.000  C
  N4       1.0000 0.65630  0.40520  0.57420  Biso   1.000  N
  N5       1.0000 0.72710  0.46140  0.66350  Biso   1.000  N
  N6       1.0000 0.90940  0.56900  0.87290  Biso   1.000  N
  C2       1.0000 0.65230  0.58000  0.86450  Biso   1.000  C
  N7       1.0000 0.78610  0.56040  0.83340  Biso   1.000  N
  N8       1.0000 0.60050  0.43840  0.62680  Biso   1.000  N
  C3       1.0000 0.86080  0.44180  0.63120  Biso   1.000  C
  N9       1.0000 0.16770  0.33520  0.49810  Biso   1.000  N
  N10      1.0000 0.52520  0.53200  0.76760  Biso   1.000  N
  C4       1.0000 0.02180  0.46230  0.66010  Biso   1.000  C
  H1       1.0000 0.07508  0.52377  0.63823  Biso   1.000  H
  C5       1.0000 0.49800  0.57630  0.83100  Biso   1.000  C
  H2       1.0000 0.45750  0.65308  0.82737  Biso   1.000  H
  C6       1.0000 0.12830  0.36120  0.65890  Biso   1.000  C
  H3       1.0000 0.07682  0.30052  0.68020  Biso   1.000  H
  H4       1.0000 0.22803  0.37848  0.67890  Biso   1.000  H
  H5       1.0000 0.14845  0.33982  0.61690  Biso   1.000  H
  C7       1.0000 0.36890  0.50530  0.86260  Biso   1.000  C
  H6       1.0000 0.40330  0.42859  0.86424  Biso   1.000  H
  H7       1.0000 0.27073  0.51028  0.83964  Biso   1.000  H
  H8       1.0000 0.35169  0.53253  0.90378  Biso   1.000  H
  N11      1.0000 0.98910  0.49760  0.72500  Biso   1.000  N
  H9       1.0000 0.04245  0.56084  0.73227  Biso   1.000  H
  H10      1.0000 0.02814  0.44556  0.75027  Biso   1.000  H
  Cu4      1.0000 0.97317  0.64109  0.00162  Biso   1.000  Cu
  Cu5      1.0000 0.55858  0.64364  0.99905  Biso   1.000  Cu
  Cu6      1.0000 0.74100  0.47755  0.24610  Biso   1.000  Cu
  N12      1.0000 0.67790  0.59340  0.07510  Biso   1.000  N
  N13      1.0000 0.65370  0.40820  0.42670  Biso   1.000  N
  N14      1.0000 0.81580  0.39960  0.42250  Biso   1.000  N
  C8       1.0000 0.19610  0.66560  0.99930  Biso   1.000  C
  N15      1.0000 0.84370  0.59480  0.07420  Biso   1.000  N
  N16      1.0000 0.77290  0.53860  0.16350  Biso   1.000  N
  N17      1.0000 0.59060  0.43100  0.37290  Biso   1.000  N
  C9       1.0000 0.84770  0.42000  0.36450  Biso   1.000  C
  N18      1.0000 0.71390  0.43960  0.33340  Biso   1.000  N
  N19      1.0000 0.89950  0.56160  0.12680  Biso   1.000  N
  C10      1.0000 0.63920  0.55820  0.13120  Biso   1.000  C
  N20      1.0000 0.33230  0.66480  0.99810  Biso   1.000  N
  N21      1.0000 0.97480  0.46800  0.26760  Biso   1.000  N
  C11      1.0000 0.47820  0.53770  0.16010  Biso   1.000  C
  H11      1.0000 0.42492  0.47623  0.13823  Biso   1.000  H
  C12      1.0000 0.00200  0.42370  0.33100  Biso   1.000  C
  H12      1.0000 0.04250  0.34692  0.32737  Biso   1.000  H
  C13      1.0000 0.37170  0.63880  0.15890  Biso   1.000  C
  H13      1.0000 0.42318  0.69948  0.18020  Biso   1.000  H
  H14      1.0000 0.27197  0.62152  0.17890  Biso   1.000  H
  H15      1.0000 0.35155  0.66018  0.11690  Biso   1.000  H
  C14      1.0000 0.13110  0.49470  0.36260  Biso   1.000  C
  H16      1.0000 0.09670  0.57141  0.36424  Biso   1.000  H
  H17      1.0000 0.22927  0.48972  0.33964  Biso   1.000  H
  H18      1.0000 0.14831  0.46747  0.40378  Biso   1.000  H
  N22      1.0000 0.51090  0.50240  0.22500  Biso   1.000  N
  H19      1.0000 0.45755  0.43916  0.23227  Biso   1.000  H
  H20      1.0000 0.47186  0.55444  0.25027  Biso   1.000  H
  Cu7      1.0000 0.47317  0.85891  0.99838  Biso   1.000  Cu
  Cu8      1.0000 0.05858  0.85636  0.00095  Biso   1.000  Cu
  Cu9      1.0000 0.24100  0.02245  0.75390  Biso   1.000  Cu
  N23      1.0000 0.17790  0.90660  0.92490  Biso   1.000  N
  N24      1.0000 0.15370  0.09180  0.57330  Biso   1.000  N
  N25      1.0000 0.31580  0.10040  0.57750  Biso   1.000  N
  C15      1.0000 0.69610  0.83440  0.00070  Biso   1.000  C
  N26      1.0000 0.34370  0.90520  0.92580  Biso   1.000  N
  N27      1.0000 0.27290  0.96140  0.83650  Biso   1.000  N
  N28      1.0000 0.09060  0.06900  0.62710  Biso   1.000  N
  C16      1.0000 0.34770  0.08000  0.63550  Biso   1.000  C
  N29      1.0000 0.21390  0.06040  0.66660  Biso   1.000  N
  N30      1.0000 0.39950  0.93840  0.87320  Biso   1.000  N
  C17      1.0000 0.13920  0.94180  0.86880  Biso   1.000  C
  N31      1.0000 0.83230  0.83520  0.00190  Biso   1.000  N
  N32      1.0000 0.47480  0.03200  0.73240  Biso   1.000  N
  C18      1.0000 0.97820  0.96230  0.83990  Biso   1.000  C
  H21      1.0000 0.92492  0.02377  0.86177  Biso   1.000  H
  C19      1.0000 0.50200  0.07630  0.66900  Biso   1.000  C
  H22      1.0000 0.54250  0.15308  0.67263  Biso   1.000  H
  C20      1.0000 0.87170  0.86120  0.84110  Biso   1.000  C
  H23      1.0000 0.92318  0.80052  0.81980  Biso   1.000  H
  H24      1.0000 0.77197  0.87848  0.82110  Biso   1.000  H
  H25      1.0000 0.85155  0.83982  0.88310  Biso   1.000  H
  C21      1.0000 0.63110  0.00530  0.63740  Biso   1.000  C
  H26      1.0000 0.59670  0.92859  0.63576  Biso   1.000  H
  H27      1.0000 0.72927  0.01028  0.66036  Biso   1.000  H
  H28      1.0000 0.64831  0.03253  0.59622  Biso   1.000  H
  N33      1.0000 0.01090  0.99760  0.77500  Biso   1.000  N
  H29      1.0000 0.95755  0.06084  0.76773  Biso   1.000  H
  H30      1.0000 0.97186  0.94556  0.74973  Biso   1.000  H
  Cu10     1.0000 0.02683  0.14109  0.49838  Biso   1.000  Cu
  Cu11     1.0000 0.44142  0.14364  0.50095  Biso   1.000  Cu
  Cu12     1.0000 0.25900  0.97755  0.25390  Biso   1.000  Cu
  N34      1.0000 0.32210  0.09340  0.42490  Biso   1.000  N
  N35      1.0000 0.34630  0.90820  0.07330  Biso   1.000  N
  N36      1.0000 0.18420  0.89960  0.07750  Biso   1.000  N
  C22      1.0000 0.80390  0.16560  0.50070  Biso   1.000  C
  N37      1.0000 0.15630  0.09480  0.42580  Biso   1.000  N
  N38      1.0000 0.22710  0.03860  0.33650  Biso   1.000  N
  N39      1.0000 0.40940  0.93100  0.12710  Biso   1.000  N
  C23      1.0000 0.15230  0.92000  0.13550  Biso   1.000  C
  N40      1.0000 0.28610  0.93960  0.16660  Biso   1.000  N
  N41      1.0000 0.10050  0.06160  0.37320  Biso   1.000  N
  C24      1.0000 0.36080  0.05820  0.36880  Biso   1.000  C
  N42      1.0000 0.66770  0.16480  0.50190  Biso   1.000  N
  N43      1.0000 0.02520  0.96800  0.23240  Biso   1.000  N
  C25      1.0000 0.52180  0.03770  0.33990  Biso   1.000  C
  H31      1.0000 0.57508  0.97623  0.36177  Biso   1.000  H
  C26      1.0000 0.99800  0.92370  0.16900  Biso   1.000  C
  H32      1.0000 0.95750  0.84692  0.17263  Biso   1.000  H
  C27      1.0000 0.62830  0.13880  0.34110  Biso   1.000  C
  H33      1.0000 0.57682  0.19948  0.31980  Biso   1.000  H
  H34      1.0000 0.72803  0.12152  0.32110  Biso   1.000  H
  H35      1.0000 0.64845  0.16018  0.38310  Biso   1.000  H
  C28      1.0000 0.86890  0.99470  0.13740  Biso   1.000  C
  H36      1.0000 0.90330  0.07141  0.13576  Biso   1.000  H
  H37      1.0000 0.77073  0.98972  0.16036  Biso   1.000  H
  H38      1.0000 0.85169  0.96747  0.09622  Biso   1.000  H
  N44      1.0000 0.48910  0.00240  0.27500  Biso   1.000  N
  H39      1.0000 0.54245  0.93916  0.26773  Biso   1.000  H
  H40      1.0000 0.52814  0.05444  0.24973  Biso   1.000  H
