data_image0
_cell_length_a       21.9524
_cell_length_b       21.9524
_cell_length_c       21.9524
_cell_angle_alpha    90
_cell_angle_beta     90
_cell_angle_gamma    90

_symmetry_space_group_name_H-M    "P 1"
_symmetry_int_tables_number       1

loop_
  _symmetry_equiv_pos_as_xyz
  'x, y, z'

loop_
  _atom_site_label
  _atom_site_occupancy
  _atom_site_fract_x
  _atom_site_fract_y
  _atom_site_fract_z
  _atom_site_thermal_displace_type
  _atom_site_B_iso_or_equiv
  _atom_site_type_symbol
  Fe1      1.0000 0.76066  0.30344  0.17957  Biso   1.000  Fe
  O1       1.0000 0.74559  0.24928  0.10690  Biso   1.000  O
  O2       1.0000 0.70377  0.16589  0.14920  Biso   1.000  O
  O3       1.0000 0.72652  0.26260  0.87422  Biso   1.000  O
  O4       1.0000 0.68617  0.18110  0.82914  Biso   1.000  O
  C1       1.0000 0.72181  0.19730  0.10426  Biso   1.000  C
  C2       1.0000 0.70610  0.20900  0.87463  Biso   1.000  C
  C3       1.0000 0.71590  0.20280  0.98946  Biso   1.000  C
  H1       1.0000 0.72390  0.24440  0.99130  Biso   1.000  H
  C4       1.0000 0.71350  0.16890  0.04274  Biso   1.000  C
  C5       1.0000 0.70620  0.17500  0.93328  Biso   1.000  C
  C6       1.0000 0.69710  0.11280  0.93005  Biso   1.000  C
  H2       1.0000 0.69150  0.09380  0.89260  Biso   1.000  H
  C7       1.0000 0.69640  0.07940  0.98370  Biso   1.000  C
  C8       1.0000 0.70360  0.10720  0.04000  Biso   1.000  C
  H3       1.0000 0.70180  0.08420  0.07550  Biso   1.000  H
  N1       1.0000 0.69260  0.01372  0.97621  Biso   1.000  N
  Fe2      1.0000 0.23934  0.69656  0.17957  Biso   1.000  Fe
  O5       1.0000 0.25441  0.75072  0.10690  Biso   1.000  O
  O6       1.0000 0.29623  0.83411  0.14920  Biso   1.000  O
  O7       1.0000 0.27348  0.73740  0.87422  Biso   1.000  O
  O8       1.0000 0.31383  0.81890  0.82914  Biso   1.000  O
  C9       1.0000 0.27819  0.80270  0.10426  Biso   1.000  C
  C10      1.0000 0.29390  0.79100  0.87463  Biso   1.000  C
  C11      1.0000 0.28410  0.79720  0.98946  Biso   1.000  C
  H4       1.0000 0.27610  0.75560  0.99130  Biso   1.000  H
  C12      1.0000 0.28650  0.83110  0.04274  Biso   1.000  C
  C13      1.0000 0.29380  0.82500  0.93328  Biso   1.000  C
  C14      1.0000 0.30290  0.88720  0.93005  Biso   1.000  C
  H5       1.0000 0.30850  0.90620  0.89260  Biso   1.000  H
  C15      1.0000 0.30360  0.92060  0.98370  Biso   1.000  C
  C16      1.0000 0.29640  0.89280  0.04000  Biso   1.000  C
  H6       1.0000 0.29820  0.91580  0.07550  Biso   1.000  H
  N2       1.0000 0.30740  0.98628  0.97621  Biso   1.000  N
  Fe3      1.0000 0.23934  0.30344  0.82043  Biso   1.000  Fe
  O9       1.0000 0.25441  0.24928  0.89310  Biso   1.000  O
  O10      1.0000 0.29623  0.16589  0.85080  Biso   1.000  O
  O11      1.0000 0.27348  0.26260  0.12578  Biso   1.000  O
  O12      1.0000 0.31383  0.18110  0.17086  Biso   1.000  O
  C17      1.0000 0.27819  0.19730  0.89574  Biso   1.000  C
  C18      1.0000 0.29390  0.20900  0.12537  Biso   1.000  C
  C19      1.0000 0.28410  0.20280  0.01054  Biso   1.000  C
  H7       1.0000 0.27610  0.24440  0.00870  Biso   1.000  H
  C20      1.0000 0.28650  0.16890  0.95726  Biso   1.000  C
  C21      1.0000 0.29380  0.17500  0.06672  Biso   1.000  C
  C22      1.0000 0.30290  0.11280  0.06995  Biso   1.000  C
  H8       1.0000 0.30850  0.09380  0.10740  Biso   1.000  H
  C23      1.0000 0.30360  0.07940  0.01630  Biso   1.000  C
  C24      1.0000 0.29640  0.10720  0.96000  Biso   1.000  C
  H9       1.0000 0.29820  0.08420  0.92450  Biso   1.000  H
  N3       1.0000 0.30740  0.01372  0.02379  Biso   1.000  N
  Fe4      1.0000 0.76066  0.69656  0.82043  Biso   1.000  Fe
  O13      1.0000 0.74559  0.75072  0.89310  Biso   1.000  O
  O14      1.0000 0.70377  0.83411  0.85080  Biso   1.000  O
  O15      1.0000 0.72652  0.73740  0.12578  Biso   1.000  O
  O16      1.0000 0.68617  0.81890  0.17086  Biso   1.000  O
  C25      1.0000 0.72181  0.80270  0.89574  Biso   1.000  C
  C26      1.0000 0.70610  0.79100  0.12537  Biso   1.000  C
  C27      1.0000 0.71590  0.79720  0.01054  Biso   1.000  C
  H10      1.0000 0.72390  0.75560  0.00870  Biso   1.000  H
  C28      1.0000 0.71350  0.83110  0.95726  Biso   1.000  C
  C29      1.0000 0.70620  0.82500  0.06672  Biso   1.000  C
  C30      1.0000 0.69710  0.88720  0.06995  Biso   1.000  C
  H11      1.0000 0.69150  0.90620  0.10740  Biso   1.000  H
  C31      1.0000 0.69640  0.92060  0.01630  Biso   1.000  C
  C32      1.0000 0.70360  0.89280  0.96000  Biso   1.000  C
  H12      1.0000 0.70180  0.91580  0.92450  Biso   1.000  H
  N4       1.0000 0.69260  0.98628  0.02379  Biso   1.000  N
  Fe5      1.0000 0.17957  0.76066  0.30344  Biso   1.000  Fe
  O17      1.0000 0.10690  0.74559  0.24928  Biso   1.000  O
  O18      1.0000 0.14920  0.70377  0.16589  Biso   1.000  O
  O19      1.0000 0.87422  0.72652  0.26260  Biso   1.000  O
  O20      1.0000 0.82914  0.68617  0.18110  Biso   1.000  O
  C33      1.0000 0.10426  0.72181  0.19730  Biso   1.000  C
  C34      1.0000 0.87463  0.70610  0.20900  Biso   1.000  C
  C35      1.0000 0.98946  0.71590  0.20280  Biso   1.000  C
  H13      1.0000 0.99130  0.72390  0.24440  Biso   1.000  H
  C36      1.0000 0.04274  0.71350  0.16890  Biso   1.000  C
  C37      1.0000 0.93328  0.70620  0.17500  Biso   1.000  C
  C38      1.0000 0.93005  0.69710  0.11280  Biso   1.000  C
  H14      1.0000 0.89260  0.69150  0.09380  Biso   1.000  H
  C39      1.0000 0.98370  0.69640  0.07940  Biso   1.000  C
  C40      1.0000 0.04000  0.70360  0.10720  Biso   1.000  C
  H15      1.0000 0.07550  0.70180  0.08420  Biso   1.000  H
  N5       1.0000 0.97621  0.69260  0.01372  Biso   1.000  N
  Fe6      1.0000 0.17957  0.23934  0.69656  Biso   1.000  Fe
  O21      1.0000 0.10690  0.25441  0.75072  Biso   1.000  O
  O22      1.0000 0.14920  0.29623  0.83411  Biso   1.000  O
  O23      1.0000 0.87422  0.27348  0.73740  Biso   1.000  O
  O24      1.0000 0.82914  0.31383  0.81890  Biso   1.000  O
  C41      1.0000 0.10426  0.27819  0.80270  Biso   1.000  C
  C42      1.0000 0.87463  0.29390  0.79100  Biso   1.000  C
  C43      1.0000 0.98946  0.28410  0.79720  Biso   1.000  C
  H16      1.0000 0.99130  0.27610  0.75560  Biso   1.000  H
  C44      1.0000 0.04274  0.28650  0.83110  Biso   1.000  C
  C45      1.0000 0.93328  0.29380  0.82500  Biso   1.000  C
  C46      1.0000 0.93005  0.30290  0.88720  Biso   1.000  C
  H17      1.0000 0.89260  0.30850  0.90620  Biso   1.000  H
  C47      1.0000 0.98370  0.30360  0.92060  Biso   1.000  C
  C48      1.0000 0.04000  0.29640  0.89280  Biso   1.000  C
  H18      1.0000 0.07550  0.29820  0.91580  Biso   1.000  H
  N6       1.0000 0.97621  0.30740  0.98628  Biso   1.000  N
  Fe7      1.0000 0.82043  0.23934  0.30344  Biso   1.000  Fe
  O25      1.0000 0.89310  0.25441  0.24928  Biso   1.000  O
  O26      1.0000 0.85080  0.29623  0.16589  Biso   1.000  O
  O27      1.0000 0.12578  0.27348  0.26260  Biso   1.000  O
  O28      1.0000 0.17086  0.31383  0.18110  Biso   1.000  O
  C49      1.0000 0.89574  0.27819  0.19730  Biso   1.000  C
  C50      1.0000 0.12537  0.29390  0.20900  Biso   1.000  C
  C51      1.0000 0.01054  0.28410  0.20280  Biso   1.000  C
  H19      1.0000 0.00870  0.27610  0.24440  Biso   1.000  H
  C52      1.0000 0.95726  0.28650  0.16890  Biso   1.000  C
  C53      1.0000 0.06672  0.29380  0.17500  Biso   1.000  C
  C54      1.0000 0.06995  0.30290  0.11280  Biso   1.000  C
  H20      1.0000 0.10740  0.30850  0.09380  Biso   1.000  H
  C55      1.0000 0.01630  0.30360  0.07940  Biso   1.000  C
  C56      1.0000 0.96000  0.29640  0.10720  Biso   1.000  C
  H21      1.0000 0.92450  0.29820  0.08420  Biso   1.000  H
  N7       1.0000 0.02379  0.30740  0.01372  Biso   1.000  N
  Fe8      1.0000 0.82043  0.76066  0.69656  Biso   1.000  Fe
  O29      1.0000 0.89310  0.74559  0.75072  Biso   1.000  O
  O30      1.0000 0.85080  0.70377  0.83411  Biso   1.000  O
  O31      1.0000 0.12578  0.72652  0.73740  Biso   1.000  O
  O32      1.0000 0.17086  0.68617  0.81890  Biso   1.000  O
  C57      1.0000 0.89574  0.72181  0.80270  Biso   1.000  C
  C58      1.0000 0.12537  0.70610  0.79100  Biso   1.000  C
  C59      1.0000 0.01054  0.71590  0.79720  Biso   1.000  C
  H22      1.0000 0.00870  0.72390  0.75560  Biso   1.000  H
  C60      1.0000 0.95726  0.71350  0.83110  Biso   1.000  C
  C61      1.0000 0.06672  0.70620  0.82500  Biso   1.000  C
  C62      1.0000 0.06995  0.69710  0.88720  Biso   1.000  C
  H23      1.0000 0.10740  0.69150  0.90620  Biso   1.000  H
  C63      1.0000 0.01630  0.69640  0.92060  Biso   1.000  C
  C64      1.0000 0.96000  0.70360  0.89280  Biso   1.000  C
  H24      1.0000 0.92450  0.70180  0.91580  Biso   1.000  H
  N8       1.0000 0.02379  0.69260  0.98628  Biso   1.000  N
  Fe9      1.0000 0.30344  0.17957  0.76066  Biso   1.000  Fe
  O33      1.0000 0.24928  0.10690  0.74559  Biso   1.000  O
  O34      1.0000 0.16589  0.14920  0.70377  Biso   1.000  O
  O35      1.0000 0.26260  0.87422  0.72652  Biso   1.000  O
  O36      1.0000 0.18110  0.82914  0.68617  Biso   1.000  O
  C65      1.0000 0.19730  0.10426  0.72181  Biso   1.000  C
  C66      1.0000 0.20900  0.87463  0.70610  Biso   1.000  C
  C67      1.0000 0.20280  0.98946  0.71590  Biso   1.000  C
  H25      1.0000 0.24440  0.99130  0.72390  Biso   1.000  H
  C68      1.0000 0.16890  0.04274  0.71350  Biso   1.000  C
  C69      1.0000 0.17500  0.93328  0.70620  Biso   1.000  C
  C70      1.0000 0.11280  0.93005  0.69710  Biso   1.000  C
  H26      1.0000 0.09380  0.89260  0.69150  Biso   1.000  H
  C71      1.0000 0.07940  0.98370  0.69640  Biso   1.000  C
  C72      1.0000 0.10720  0.04000  0.70360  Biso   1.000  C
  H27      1.0000 0.08420  0.07550  0.70180  Biso   1.000  H
  N9       1.0000 0.01372  0.97621  0.69260  Biso   1.000  N
  Fe10     1.0000 0.69656  0.17957  0.23934  Biso   1.000  Fe
  O37      1.0000 0.75072  0.10690  0.25441  Biso   1.000  O
  O38      1.0000 0.83411  0.14920  0.29623  Biso   1.000  O
  O39      1.0000 0.73740  0.87422  0.27348  Biso   1.000  O
  O40      1.0000 0.81890  0.82914  0.31383  Biso   1.000  O
  C73      1.0000 0.80270  0.10426  0.27819  Biso   1.000  C
  C74      1.0000 0.79100  0.87463  0.29390  Biso   1.000  C
  C75      1.0000 0.79720  0.98946  0.28410  Biso   1.000  C
  H28      1.0000 0.75560  0.99130  0.27610  Biso   1.000  H
  C76      1.0000 0.83110  0.04274  0.28650  Biso   1.000  C
  C77      1.0000 0.82500  0.93328  0.29380  Biso   1.000  C
  C78      1.0000 0.88720  0.93005  0.30290  Biso   1.000  C
  H29      1.0000 0.90620  0.89260  0.30850  Biso   1.000  H
  C79      1.0000 0.92060  0.98370  0.30360  Biso   1.000  C
  C80      1.0000 0.89280  0.04000  0.29640  Biso   1.000  C
  H30      1.0000 0.91580  0.07550  0.29820  Biso   1.000  H
  N10      1.0000 0.98628  0.97621  0.30740  Biso   1.000  N
  Fe11     1.0000 0.30344  0.82043  0.23934  Biso   1.000  Fe
  O41      1.0000 0.24928  0.89310  0.25441  Biso   1.000  O
  O42      1.0000 0.16589  0.85080  0.29623  Biso   1.000  O
  O43      1.0000 0.26260  0.12578  0.27348  Biso   1.000  O
  O44      1.0000 0.18110  0.17086  0.31383  Biso   1.000  O
  C81      1.0000 0.19730  0.89574  0.27819  Biso   1.000  C
  C82      1.0000 0.20900  0.12537  0.29390  Biso   1.000  C
  C83      1.0000 0.20280  0.01054  0.28410  Biso   1.000  C
  H31      1.0000 0.24440  0.00870  0.27610  Biso   1.000  H
  C84      1.0000 0.16890  0.95726  0.28650  Biso   1.000  C
  C85      1.0000 0.17500  0.06672  0.29380  Biso   1.000  C
  C86      1.0000 0.11280  0.06995  0.30290  Biso   1.000  C
  H32      1.0000 0.09380  0.10740  0.30850  Biso   1.000  H
  C87      1.0000 0.07940  0.01630  0.30360  Biso   1.000  C
  C88      1.0000 0.10720  0.96000  0.29640  Biso   1.000  C
  H33      1.0000 0.08420  0.92450  0.29820  Biso   1.000  H
  N11      1.0000 0.01372  0.02379  0.30740  Biso   1.000  N
  Fe12     1.0000 0.69656  0.82043  0.76066  Biso   1.000  Fe
  O45      1.0000 0.75072  0.89310  0.74559  Biso   1.000  O
  O46      1.0000 0.83411  0.85080  0.70377  Biso   1.000  O
  O47      1.0000 0.73740  0.12578  0.72652  Biso   1.000  O
  O48      1.0000 0.81890  0.17086  0.68617  Biso   1.000  O
  C89      1.0000 0.80270  0.89574  0.72181  Biso   1.000  C
  C90      1.0000 0.79100  0.12537  0.70610  Biso   1.000  C
  C91      1.0000 0.79720  0.01054  0.71590  Biso   1.000  C
  H34      1.0000 0.75560  0.00870  0.72390  Biso   1.000  H
  C92      1.0000 0.83110  0.95726  0.71350  Biso   1.000  C
  C93      1.0000 0.82500  0.06672  0.70620  Biso   1.000  C
  C94      1.0000 0.88720  0.06995  0.69710  Biso   1.000  C
  H35      1.0000 0.90620  0.10740  0.69150  Biso   1.000  H
  C95      1.0000 0.92060  0.01630  0.69640  Biso   1.000  C
  C96      1.0000 0.89280  0.96000  0.70360  Biso   1.000  C
  H36      1.0000 0.91580  0.92450  0.70180  Biso   1.000  H
  N12      1.0000 0.98628  0.02379  0.69260  Biso   1.000  N
  Fe13     1.0000 0.80344  0.26066  0.67957  Biso   1.000  Fe
  O49      1.0000 0.74928  0.24559  0.60690  Biso   1.000  O
  O50      1.0000 0.66589  0.20377  0.64920  Biso   1.000  O
  O51      1.0000 0.76260  0.22652  0.37422  Biso   1.000  O
  O52      1.0000 0.68110  0.18617  0.32914  Biso   1.000  O
  C97      1.0000 0.69730  0.22181  0.60426  Biso   1.000  C
  C98      1.0000 0.70900  0.20610  0.37463  Biso   1.000  C
  C99      1.0000 0.70280  0.21590  0.48946  Biso   1.000  C
  H37      1.0000 0.74440  0.22390  0.49130  Biso   1.000  H
  C100     1.0000 0.66890  0.21350  0.54274  Biso   1.000  C
  C101     1.0000 0.67500  0.20620  0.43328  Biso   1.000  C
  C102     1.0000 0.61280  0.19710  0.43005  Biso   1.000  C
  H38      1.0000 0.59380  0.19150  0.39260  Biso   1.000  H
  C103     1.0000 0.57940  0.19640  0.48370  Biso   1.000  C
  C104     1.0000 0.60720  0.20360  0.54000  Biso   1.000  C
  H39      1.0000 0.58420  0.20180  0.57550  Biso   1.000  H
  N13      1.0000 0.51372  0.19260  0.47621  Biso   1.000  N
  Fe14     1.0000 0.19656  0.73934  0.67957  Biso   1.000  Fe
  O53      1.0000 0.25072  0.75441  0.60690  Biso   1.000  O
  O54      1.0000 0.33411  0.79623  0.64920  Biso   1.000  O
  O55      1.0000 0.23740  0.77348  0.37422  Biso   1.000  O
  O56      1.0000 0.31890  0.81383  0.32914  Biso   1.000  O
  C105     1.0000 0.30270  0.77819  0.60426  Biso   1.000  C
  C106     1.0000 0.29100  0.79390  0.37463  Biso   1.000  C
  C107     1.0000 0.29720  0.78410  0.48946  Biso   1.000  C
  H40      1.0000 0.25560  0.77610  0.49130  Biso   1.000  H
  C108     1.0000 0.33110  0.78650  0.54274  Biso   1.000  C
  C109     1.0000 0.32500  0.79380  0.43328  Biso   1.000  C
  C110     1.0000 0.38720  0.80290  0.43005  Biso   1.000  C
  H41      1.0000 0.40620  0.80850  0.39260  Biso   1.000  H
  C111     1.0000 0.42060  0.80360  0.48370  Biso   1.000  C
  C112     1.0000 0.39280  0.79640  0.54000  Biso   1.000  C
  H42      1.0000 0.41580  0.79820  0.57550  Biso   1.000  H
  N14      1.0000 0.48628  0.80740  0.47621  Biso   1.000  N
  Fe15     1.0000 0.80344  0.73934  0.32043  Biso   1.000  Fe
  O57      1.0000 0.74928  0.75441  0.39310  Biso   1.000  O
  O58      1.0000 0.66589  0.79623  0.35080  Biso   1.000  O
  O59      1.0000 0.76260  0.77348  0.62578  Biso   1.000  O
  O60      1.0000 0.68110  0.81383  0.67086  Biso   1.000  O
  C113     1.0000 0.69730  0.77819  0.39574  Biso   1.000  C
  C114     1.0000 0.70900  0.79390  0.62537  Biso   1.000  C
  C115     1.0000 0.70280  0.78410  0.51054  Biso   1.000  C
  H43      1.0000 0.74440  0.77610  0.50870  Biso   1.000  H
  C116     1.0000 0.66890  0.78650  0.45726  Biso   1.000  C
  C117     1.0000 0.67500  0.79380  0.56672  Biso   1.000  C
  C118     1.0000 0.61280  0.80290  0.56995  Biso   1.000  C
  H44      1.0000 0.59380  0.80850  0.60740  Biso   1.000  H
  C119     1.0000 0.57940  0.80360  0.51630  Biso   1.000  C
  C120     1.0000 0.60720  0.79640  0.46000  Biso   1.000  C
  H45      1.0000 0.58420  0.79820  0.42450  Biso   1.000  H
  N15      1.0000 0.51372  0.80740  0.52379  Biso   1.000  N
  Fe16     1.0000 0.19656  0.26066  0.32043  Biso   1.000  Fe
  O61      1.0000 0.25072  0.24559  0.39310  Biso   1.000  O
  O62      1.0000 0.33411  0.20377  0.35080  Biso   1.000  O
  O63      1.0000 0.23740  0.22652  0.62578  Biso   1.000  O
  O64      1.0000 0.31890  0.18617  0.67086  Biso   1.000  O
  C121     1.0000 0.30270  0.22181  0.39574  Biso   1.000  C
  C122     1.0000 0.29100  0.20610  0.62537  Biso   1.000  C
  C123     1.0000 0.29720  0.21590  0.51054  Biso   1.000  C
  H46      1.0000 0.25560  0.22390  0.50870  Biso   1.000  H
  C124     1.0000 0.33110  0.21350  0.45726  Biso   1.000  C
  C125     1.0000 0.32500  0.20620  0.56672  Biso   1.000  C
  C126     1.0000 0.38720  0.19710  0.56995  Biso   1.000  C
  H47      1.0000 0.40620  0.19150  0.60740  Biso   1.000  H
  C127     1.0000 0.42060  0.19640  0.51630  Biso   1.000  C
  C128     1.0000 0.39280  0.20360  0.46000  Biso   1.000  C
  H48      1.0000 0.41580  0.20180  0.42450  Biso   1.000  H
  N16      1.0000 0.48628  0.19260  0.52379  Biso   1.000  N
  Fe17     1.0000 0.26066  0.67957  0.80344  Biso   1.000  Fe
  O65      1.0000 0.24559  0.60690  0.74928  Biso   1.000  O
  O66      1.0000 0.20377  0.64920  0.66589  Biso   1.000  O
  O67      1.0000 0.22652  0.37422  0.76260  Biso   1.000  O
  O68      1.0000 0.18617  0.32914  0.68110  Biso   1.000  O
  C129     1.0000 0.22181  0.60426  0.69730  Biso   1.000  C
  C130     1.0000 0.20610  0.37463  0.70900  Biso   1.000  C
  C131     1.0000 0.21590  0.48946  0.70280  Biso   1.000  C
  H49      1.0000 0.22390  0.49130  0.74440  Biso   1.000  H
  C132     1.0000 0.21350  0.54274  0.66890  Biso   1.000  C
  C133     1.0000 0.20620  0.43328  0.67500  Biso   1.000  C
  C134     1.0000 0.19710  0.43005  0.61280  Biso   1.000  C
  H50      1.0000 0.19150  0.39260  0.59380  Biso   1.000  H
  C135     1.0000 0.19640  0.48370  0.57940  Biso   1.000  C
  C136     1.0000 0.20360  0.54000  0.60720  Biso   1.000  C
  H51      1.0000 0.20180  0.57550  0.58420  Biso   1.000  H
  N17      1.0000 0.19260  0.47621  0.51372  Biso   1.000  N
  Fe18     1.0000 0.73934  0.67957  0.19656  Biso   1.000  Fe
  O69      1.0000 0.75441  0.60690  0.25072  Biso   1.000  O
  O70      1.0000 0.79623  0.64920  0.33411  Biso   1.000  O
  O71      1.0000 0.77348  0.37422  0.23740  Biso   1.000  O
  O72      1.0000 0.81383  0.32914  0.31890  Biso   1.000  O
  C137     1.0000 0.77819  0.60426  0.30270  Biso   1.000  C
  C138     1.0000 0.79390  0.37463  0.29100  Biso   1.000  C
  C139     1.0000 0.78410  0.48946  0.29720  Biso   1.000  C
  H52      1.0000 0.77610  0.49130  0.25560  Biso   1.000  H
  C140     1.0000 0.78650  0.54274  0.33110  Biso   1.000  C
  C141     1.0000 0.79380  0.43328  0.32500  Biso   1.000  C
  C142     1.0000 0.80290  0.43005  0.38720  Biso   1.000  C
  H53      1.0000 0.80850  0.39260  0.40620  Biso   1.000  H
  C143     1.0000 0.80360  0.48370  0.42060  Biso   1.000  C
  C144     1.0000 0.79640  0.54000  0.39280  Biso   1.000  C
  H54      1.0000 0.79820  0.57550  0.41580  Biso   1.000  H
  N18      1.0000 0.80740  0.47621  0.48628  Biso   1.000  N
  Fe19     1.0000 0.73934  0.32043  0.80344  Biso   1.000  Fe
  O73      1.0000 0.75441  0.39310  0.74928  Biso   1.000  O
  O74      1.0000 0.79623  0.35080  0.66589  Biso   1.000  O
  O75      1.0000 0.77348  0.62578  0.76260  Biso   1.000  O
  O76      1.0000 0.81383  0.67086  0.68110  Biso   1.000  O
  C145     1.0000 0.77819  0.39574  0.69730  Biso   1.000  C
  C146     1.0000 0.79390  0.62537  0.70900  Biso   1.000  C
  C147     1.0000 0.78410  0.51054  0.70280  Biso   1.000  C
  H55      1.0000 0.77610  0.50870  0.74440  Biso   1.000  H
  C148     1.0000 0.78650  0.45726  0.66890  Biso   1.000  C
  C149     1.0000 0.79380  0.56672  0.67500  Biso   1.000  C
  C150     1.0000 0.80290  0.56995  0.61280  Biso   1.000  C
  H56      1.0000 0.80850  0.60740  0.59380  Biso   1.000  H
  C151     1.0000 0.80360  0.51630  0.57940  Biso   1.000  C
  C152     1.0000 0.79640  0.46000  0.60720  Biso   1.000  C
  H57      1.0000 0.79820  0.42450  0.58420  Biso   1.000  H
  N19      1.0000 0.80740  0.52379  0.51372  Biso   1.000  N
  Fe20     1.0000 0.26066  0.32043  0.19656  Biso   1.000  Fe
  O77      1.0000 0.24559  0.39310  0.25072  Biso   1.000  O
  O78      1.0000 0.20377  0.35080  0.33411  Biso   1.000  O
  O79      1.0000 0.22652  0.62578  0.23740  Biso   1.000  O
  O80      1.0000 0.18617  0.67086  0.31890  Biso   1.000  O
  C153     1.0000 0.22181  0.39574  0.30270  Biso   1.000  C
  C154     1.0000 0.20610  0.62537  0.29100  Biso   1.000  C
  C155     1.0000 0.21590  0.51054  0.29720  Biso   1.000  C
  H58      1.0000 0.22390  0.50870  0.25560  Biso   1.000  H
  C156     1.0000 0.21350  0.45726  0.33110  Biso   1.000  C
  C157     1.0000 0.20620  0.56672  0.32500  Biso   1.000  C
  C158     1.0000 0.19710  0.56995  0.38720  Biso   1.000  C
  H59      1.0000 0.19150  0.60740  0.40620  Biso   1.000  H
  C159     1.0000 0.19640  0.51630  0.42060  Biso   1.000  C
  C160     1.0000 0.20360  0.46000  0.39280  Biso   1.000  C
  H60      1.0000 0.20180  0.42450  0.41580  Biso   1.000  H
  N20      1.0000 0.19260  0.52379  0.48628  Biso   1.000  N
  Fe21     1.0000 0.67957  0.80344  0.26066  Biso   1.000  Fe
  O81      1.0000 0.60690  0.74928  0.24559  Biso   1.000  O
  O82      1.0000 0.64920  0.66589  0.20377  Biso   1.000  O
  O83      1.0000 0.37422  0.76260  0.22652  Biso   1.000  O
  O84      1.0000 0.32914  0.68110  0.18617  Biso   1.000  O
  C161     1.0000 0.60426  0.69730  0.22181  Biso   1.000  C
  C162     1.0000 0.37463  0.70900  0.20610  Biso   1.000  C
  C163     1.0000 0.48946  0.70280  0.21590  Biso   1.000  C
  H61      1.0000 0.49130  0.74440  0.22390  Biso   1.000  H
  C164     1.0000 0.54274  0.66890  0.21350  Biso   1.000  C
  C165     1.0000 0.43328  0.67500  0.20620  Biso   1.000  C
  C166     1.0000 0.43005  0.61280  0.19710  Biso   1.000  C
  H62      1.0000 0.39260  0.59380  0.19150  Biso   1.000  H
  C167     1.0000 0.48370  0.57940  0.19640  Biso   1.000  C
  C168     1.0000 0.54000  0.60720  0.20360  Biso   1.000  C
  H63      1.0000 0.57550  0.58420  0.20180  Biso   1.000  H
  N21      1.0000 0.47621  0.51372  0.19260  Biso   1.000  N
  Fe22     1.0000 0.67957  0.19656  0.73934  Biso   1.000  Fe
  O85      1.0000 0.60690  0.25072  0.75441  Biso   1.000  O
  O86      1.0000 0.64920  0.33411  0.79623  Biso   1.000  O
  O87      1.0000 0.37422  0.23740  0.77348  Biso   1.000  O
  O88      1.0000 0.32914  0.31890  0.81383  Biso   1.000  O
  C169     1.0000 0.60426  0.30270  0.77819  Biso   1.000  C
  C170     1.0000 0.37463  0.29100  0.79390  Biso   1.000  C
  C171     1.0000 0.48946  0.29720  0.78410  Biso   1.000  C
  H64      1.0000 0.49130  0.25560  0.77610  Biso   1.000  H
  C172     1.0000 0.54274  0.33110  0.78650  Biso   1.000  C
  C173     1.0000 0.43328  0.32500  0.79380  Biso   1.000  C
  C174     1.0000 0.43005  0.38720  0.80290  Biso   1.000  C
  H65      1.0000 0.39260  0.40620  0.80850  Biso   1.000  H
  C175     1.0000 0.48370  0.42060  0.80360  Biso   1.000  C
  C176     1.0000 0.54000  0.39280  0.79640  Biso   1.000  C
  H66      1.0000 0.57550  0.41580  0.79820  Biso   1.000  H
  N22      1.0000 0.47621  0.48628  0.80740  Biso   1.000  N
  Fe23     1.0000 0.32043  0.80344  0.73934  Biso   1.000  Fe
  O89      1.0000 0.39310  0.74928  0.75441  Biso   1.000  O
  O90      1.0000 0.35080  0.66589  0.79623  Biso   1.000  O
  O91      1.0000 0.62578  0.76260  0.77348  Biso   1.000  O
  O92      1.0000 0.67086  0.68110  0.81383  Biso   1.000  O
  C177     1.0000 0.39574  0.69730  0.77819  Biso   1.000  C
  C178     1.0000 0.62537  0.70900  0.79390  Biso   1.000  C
  C179     1.0000 0.51054  0.70280  0.78410  Biso   1.000  C
  H67      1.0000 0.50870  0.74440  0.77610  Biso   1.000  H
  C180     1.0000 0.45726  0.66890  0.78650  Biso   1.000  C
  C181     1.0000 0.56672  0.67500  0.79380  Biso   1.000  C
  C182     1.0000 0.56995  0.61280  0.80290  Biso   1.000  C
  H68      1.0000 0.60740  0.59380  0.80850  Biso   1.000  H
  C183     1.0000 0.51630  0.57940  0.80360  Biso   1.000  C
  C184     1.0000 0.46000  0.60720  0.79640  Biso   1.000  C
  H69      1.0000 0.42450  0.58420  0.79820  Biso   1.000  H
  N23      1.0000 0.52379  0.51372  0.80740  Biso   1.000  N
  Fe24     1.0000 0.32043  0.19656  0.26066  Biso   1.000  Fe
  O93      1.0000 0.39310  0.25072  0.24559  Biso   1.000  O
  O94      1.0000 0.35080  0.33411  0.20377  Biso   1.000  O
  O95      1.0000 0.62578  0.23740  0.22652  Biso   1.000  O
  O96      1.0000 0.67086  0.31890  0.18617  Biso   1.000  O
  C185     1.0000 0.39574  0.30270  0.22181  Biso   1.000  C
  C186     1.0000 0.62537  0.29100  0.20610  Biso   1.000  C
  C187     1.0000 0.51054  0.29720  0.21590  Biso   1.000  C
  H70      1.0000 0.50870  0.25560  0.22390  Biso   1.000  H
  C188     1.0000 0.45726  0.33110  0.21350  Biso   1.000  C
  C189     1.0000 0.56672  0.32500  0.20620  Biso   1.000  C
  C190     1.0000 0.56995  0.38720  0.19710  Biso   1.000  C
  H71      1.0000 0.60740  0.40620  0.19150  Biso   1.000  H
  C191     1.0000 0.51630  0.42060  0.19640  Biso   1.000  C
  C192     1.0000 0.46000  0.39280  0.20360  Biso   1.000  C
  H72      1.0000 0.42450  0.41580  0.20180  Biso   1.000  H
  N24      1.0000 0.52379  0.48628  0.19260  Biso   1.000  N
  O97      1.0000 0.75942  0.24058  0.24058  Biso   1.000  O
  O98      1.0000 0.24058  0.75942  0.24058  Biso   1.000  O
  O99      1.0000 0.24058  0.24058  0.75942  Biso   1.000  O
  O100     1.0000 0.75942  0.75942  0.75942  Biso   1.000  O
  O101     1.0000 0.74058  0.25942  0.74058  Biso   1.000  O
  O102     1.0000 0.25942  0.74058  0.74058  Biso   1.000  O
  O103     1.0000 0.74058  0.74058  0.25942  Biso   1.000  O
  O104     1.0000 0.25942  0.25942  0.25942  Biso   1.000  O
