data_image0
_cell_length_a       12.5757
_cell_length_b       13.4705
_cell_length_c       14.2408
_cell_angle_alpha    99.641
_cell_angle_beta     95.823
_cell_angle_gamma    117.245

_symmetry_space_group_name_H-M    "P 1"
_symmetry_int_tables_number       1

loop_
  _symmetry_equiv_pos_as_xyz
  'x, y, z'

loop_
  _atom_site_label
  _atom_site_occupancy
  _atom_site_fract_x
  _atom_site_fract_y
  _atom_site_fract_z
  _atom_site_thermal_displace_type
  _atom_site_B_iso_or_equiv
  _atom_site_type_symbol
  N1       1.0000 0.91250  0.59264  0.49308  Biso   1.000  N
  N2       1.0000 0.82560  0.69310  0.44307  Biso   1.000  N
  N3       1.0000 0.81720  0.68649  0.53695  Biso   1.000  N
  N4       1.0000 0.56160  0.86833  0.74207  Biso   1.000  N
  N5       1.0000 0.44700  0.84790  0.70288  Biso   1.000  N
  N6       1.0000 0.50150  0.93673  0.86154  Biso   1.000  N
  N7       1.0000 0.54790  0.88810  0.04050  Biso   1.000  N
  N8       1.0000 0.55200  0.73020  0.04187  Biso   1.000  N
  N9       1.0000 0.65450  0.81350  0.10680  Biso   1.000  N
  N10      1.0000 0.13850  0.61749  0.44911  Biso   1.000  N
  N11      1.0000 0.23160  0.73020  0.35062  Biso   1.000  N
  N12      1.0000 0.29340  0.77883  0.44516  Biso   1.000  N
  C1       1.0000 0.88440  0.63660  0.42040  Biso   1.000  C
  H1       1.0000 0.90580  0.62690  0.35870  Biso   1.000  H
  C2       1.0000 0.86920  0.62670  0.56520  Biso   1.000  C
  H2       1.0000 0.87430  0.61090  0.62760  Biso   1.000  H
  C3       1.0000 0.80050  0.85310  0.61410  Biso   1.000  C
  C4       1.0000 0.91530  0.93050  0.59540  Biso   1.000  C
  H3       1.0000 0.96080  0.90110  0.56260  Biso   1.000  H
  C5       1.0000 0.95980  0.04570  0.62400  Biso   1.000  C
  H4       1.0000 0.03790  0.09630  0.61360  Biso   1.000  H
  C6       1.0000 0.89130  0.09200  0.66950  Biso   1.000  C
  H5       1.0000 0.92290  0.17300  0.68770  Biso   1.000  H
  C7       1.0000 0.78110  0.02110  0.68710  Biso   1.000  C
  H6       1.0000 0.73510  0.05280  0.71600  Biso   1.000  H
  C8       1.0000 0.73330  0.89980  0.66280  Biso   1.000  C
  C9       1.0000 0.62590  0.82280  0.68767  Biso   1.000  C
  C10      1.0000 0.58200  0.70470  0.66910  Biso   1.000  C
  C11      1.0000 0.47890  0.62930  0.70300  Biso   1.000  C
  H7       1.0000 0.43650  0.65980  0.73910  Biso   1.000  H
  C12      1.0000 0.44050  0.51490  0.68440  Biso   1.000  C
  H8       1.0000 0.37310  0.46620  0.70930  Biso   1.000  H
  C13      1.0000 0.50020  0.46740  0.62820  Biso   1.000  C
  H9       1.0000 0.47030  0.38660  0.61310  Biso   1.000  H
  C14      1.0000 0.59940  0.53600  0.59560  Biso   1.000  C
  H10      1.0000 0.63820  0.50250  0.55800  Biso   1.000  H
  C15      1.0000 0.64670  0.65770  0.61650  Biso   1.000  C
  C16      1.0000 0.75250  0.73380  0.58970  Biso   1.000  C
  C17      1.0000 0.59170  0.91990  0.83580  Biso   1.000  C
  H11      1.0000 0.66620  0.94150  0.87810  Biso   1.000  H
  C18      1.0000 0.41540  0.89060  0.77790  Biso   1.000  C
  H12      1.0000 0.33900  0.88940  0.77420  Biso   1.000  H
  C19      1.0000 0.48980  0.77530  0.00320  Biso   1.000  C
  H13      1.0000 0.41550  0.73370  0.95620  Biso   1.000  H
  C20      1.0000 0.64780  0.90670  0.10330  Biso   1.000  C
  H14      1.0000 0.70740  0.98090  0.14110  Biso   1.000  H
  C21      1.0000 0.52600  0.61260  0.02090  Biso   1.000  C
  C22      1.0000 0.58510  0.57920  0.95530  Biso   1.000  C
  C23      1.0000 0.67230  0.65720  0.91010  Biso   1.000  C
  H15      1.0000 0.69110  0.73560  0.92380  Biso   1.000  H
  C24      1.0000 0.72850  0.62070  0.84790  Biso   1.000  C
  H16      1.0000 0.78720  0.67360  0.81900  Biso   1.000  H
  C25      1.0000 0.70010  0.50360  0.82580  Biso   1.000  C
  H17      1.0000 0.74050  0.47910  0.78210  Biso   1.000  H
  C26      1.0000 0.61730  0.42630  0.86540  Biso   1.000  C
  H18      1.0000 0.59860  0.34800  0.84850  Biso   1.000  H
  C27      1.0000 0.55770  0.46150  0.93250  Biso   1.000  C
  C28      1.0000 0.39900  0.89200  0.47353  Biso   1.000  C
  C29      1.0000 0.50450  0.90730  0.43950  Biso   1.000  C
  C30      1.0000 0.51210  0.81570  0.37890  Biso   1.000  C
  H19      1.0000 0.44320  0.74080  0.36050  Biso   1.000  H
  C31      1.0000 0.61660  0.83430  0.34740  Biso   1.000  C
  H20      1.0000 0.62010  0.77240  0.30730  Biso   1.000  H
  C32      1.0000 0.72060  0.94570  0.37400  Biso   1.000  C
  H21      1.0000 0.79260  0.95810  0.35060  Biso   1.000  H
  C33      1.0000 0.71790  0.03460  0.43260  Biso   1.000  C
  H22      1.0000 0.78890  0.10800  0.45100  Biso   1.000  H
  C34      1.0000 0.61000  0.01940  0.46704  Biso   1.000  C
  C35      1.0000 0.13960  0.63350  0.35710  Biso   1.000  C
  H23      1.0000 0.07900  0.57920  0.30230  Biso   1.000  H
  C36      1.0000 0.23760  0.71070  0.50270  Biso   1.000  C
  H24      1.0000 0.26440  0.72640  0.57090  Biso   1.000  H
  N13      1.0000 0.08750  0.40736  0.50692  Biso   1.000  N
  N14      1.0000 0.17440  0.30690  0.55693  Biso   1.000  N
  N15      1.0000 0.18280  0.31351  0.46305  Biso   1.000  N
  N16      1.0000 0.43840  0.13167  0.25793  Biso   1.000  N
  N17      1.0000 0.55300  0.15210  0.29712  Biso   1.000  N
  N18      1.0000 0.49850  0.06327  0.13846  Biso   1.000  N
  N19      1.0000 0.45210  0.11190  0.95950  Biso   1.000  N
  N20      1.0000 0.44800  0.26980  0.95813  Biso   1.000  N
  N21      1.0000 0.34550  0.18650  0.89320  Biso   1.000  N
  N22      1.0000 0.86150  0.38251  0.55089  Biso   1.000  N
  N23      1.0000 0.76840  0.26980  0.64938  Biso   1.000  N
  N24      1.0000 0.70660  0.22117  0.55484  Biso   1.000  N
  C37      1.0000 0.11560  0.36340  0.57960  Biso   1.000  C
  H25      1.0000 0.09420  0.37310  0.64130  Biso   1.000  H
  C38      1.0000 0.13080  0.37330  0.43480  Biso   1.000  C
  H26      1.0000 0.12570  0.38910  0.37240  Biso   1.000  H
  C39      1.0000 0.19950  0.14690  0.38590  Biso   1.000  C
  C40      1.0000 0.08470  0.06950  0.40460  Biso   1.000  C
  H27      1.0000 0.03920  0.09890  0.43740  Biso   1.000  H
  C41      1.0000 0.04020  0.95430  0.37600  Biso   1.000  C
  H28      1.0000 0.96210  0.90370  0.38640  Biso   1.000  H
  C42      1.0000 0.10870  0.90800  0.33050  Biso   1.000  C
  H29      1.0000 0.07710  0.82700  0.31230  Biso   1.000  H
  C43      1.0000 0.21890  0.97890  0.31290  Biso   1.000  C
  H30      1.0000 0.26490  0.94720  0.28400  Biso   1.000  H
  C44      1.0000 0.26670  0.10020  0.33720  Biso   1.000  C
  C45      1.0000 0.37410  0.17720  0.31233  Biso   1.000  C
  C46      1.0000 0.41800  0.29530  0.33090  Biso   1.000  C
  C47      1.0000 0.52110  0.37070  0.29700  Biso   1.000  C
  H31      1.0000 0.56350  0.34020  0.26090  Biso   1.000  H
  C48      1.0000 0.55950  0.48510  0.31560  Biso   1.000  C
  H32      1.0000 0.62690  0.53380  0.29070  Biso   1.000  H
  C49      1.0000 0.49980  0.53260  0.37180  Biso   1.000  C
  H33      1.0000 0.52970  0.61340  0.38690  Biso   1.000  H
  C50      1.0000 0.40060  0.46400  0.40440  Biso   1.000  C
  H34      1.0000 0.36180  0.49750  0.44200  Biso   1.000  H
  C51      1.0000 0.35330  0.34230  0.38350  Biso   1.000  C
  C52      1.0000 0.24750  0.26620  0.41030  Biso   1.000  C
  C53      1.0000 0.40830  0.08010  0.16420  Biso   1.000  C
  H35      1.0000 0.33380  0.05850  0.12190  Biso   1.000  H
  C54      1.0000 0.58460  0.10940  0.22210  Biso   1.000  C
  H36      1.0000 0.66100  0.11060  0.22580  Biso   1.000  H
  C55      1.0000 0.51020  0.22470  0.99680  Biso   1.000  C
  H37      1.0000 0.58450  0.26630  0.04380  Biso   1.000  H
  C56      1.0000 0.35220  0.09330  0.89670  Biso   1.000  C
  H38      1.0000 0.29260  0.01910  0.85890  Biso   1.000  H
  C57      1.0000 0.47400  0.38740  0.97910  Biso   1.000  C
  C58      1.0000 0.41490  0.42080  0.04470  Biso   1.000  C
  C59      1.0000 0.32770  0.34280  0.08990  Biso   1.000  C
  H39      1.0000 0.30890  0.26440  0.07620  Biso   1.000  H
  C60      1.0000 0.27150  0.37930  0.15210  Biso   1.000  C
  H40      1.0000 0.21280  0.32640  0.18100  Biso   1.000  H
  C61      1.0000 0.29990  0.49640  0.17420  Biso   1.000  C
  H41      1.0000 0.25950  0.52090  0.21790  Biso   1.000  H
  C62      1.0000 0.38270  0.57370  0.13460  Biso   1.000  C
  H42      1.0000 0.40140  0.65200  0.15150  Biso   1.000  H
  C63      1.0000 0.44230  0.53850  0.06750  Biso   1.000  C
  C64      1.0000 0.60100  0.10800  0.52647  Biso   1.000  C
  C65      1.0000 0.49550  0.09270  0.56050  Biso   1.000  C
  C66      1.0000 0.48790  0.18430  0.62110  Biso   1.000  C
  H43      1.0000 0.55680  0.25920  0.63950  Biso   1.000  H
  C67      1.0000 0.38340  0.16570  0.65260  Biso   1.000  C
  H44      1.0000 0.37990  0.22760  0.69270  Biso   1.000  H
  C68      1.0000 0.27940  0.05430  0.62600  Biso   1.000  C
  H45      1.0000 0.20740  0.04190  0.64940  Biso   1.000  H
  C69      1.0000 0.28210  0.96540  0.56740  Biso   1.000  C
  H46      1.0000 0.21110  0.89200  0.54900  Biso   1.000  H
  C70      1.0000 0.39000  0.98060  0.53296  Biso   1.000  C
  C71      1.0000 0.86040  0.36650  0.64290  Biso   1.000  C
  H47      1.0000 0.92100  0.42080  0.69770  Biso   1.000  H
  C72      1.0000 0.76240  0.28930  0.49730  Biso   1.000  C
  H48      1.0000 0.73560  0.27360  0.42910  Biso   1.000  H
  Cu1      1.0000 0.00000  0.50000  0.50000  Biso   1.000  Cu
  Cu2      1.0000 0.50000  0.00000  0.00000  Biso   1.000  Cu
