data_image0
_cell_length_a       9.7373
_cell_length_b       15.1542
_cell_length_c       21.1695
_cell_angle_alpha    90
_cell_angle_beta     98.756
_cell_angle_gamma    90

_symmetry_space_group_name_H-M    "P 1"
_symmetry_int_tables_number       1

loop_
  _symmetry_equiv_pos_as_xyz
  'x, y, z'

loop_
  _atom_site_label
  _atom_site_occupancy
  _atom_site_fract_x
  _atom_site_fract_y
  _atom_site_fract_z
  _atom_site_thermal_displace_type
  _atom_site_B_iso_or_equiv
  _atom_site_type_symbol
  C1       1.0000 0.42110  0.33620  0.16324  Biso   1.000  C
  C2       1.0000 0.45450  0.41750  0.12812  Biso   1.000  C
  C3       1.0000 0.46600  0.49620  0.16242  Biso   1.000  C
  H1       1.0000 0.45180  0.49570  0.20580  Biso   1.000  H
  C4       1.0000 0.49740  0.57500  0.13521  Biso   1.000  C
  C5       1.0000 0.52100  0.65350  0.17922  Biso   1.000  C
  C6       1.0000 0.51050  0.57850  0.06964  Biso   1.000  C
  C7       1.0000 0.53190  0.65990  0.03789  Biso   1.000  C
  H2       1.0000 0.54040  0.71330  0.06160  Biso   1.000  H
  C8       1.0000 0.45970  0.33820  0.02525  Biso   1.000  C
  H3       1.0000 0.44600  0.28320  0.04500  Biso   1.000  H
  C9       1.0000 0.47090  0.41690  0.06317  Biso   1.000  C
  C10      1.0000 0.49540  0.49890  0.03372  Biso   1.000  C
  C11      1.0000 0.18350  0.39570  0.33692  Biso   1.000  C
  C12      1.0000 0.08820  0.45260  0.37032  Biso   1.000  C
  C13      1.0000 0.99950  0.51070  0.33383  Biso   1.000  C
  H4       1.0000 0.99960  0.51380  0.28900  Biso   1.000  H
  C14      1.0000 0.91000  0.56490  0.36200  Biso   1.000  C
  C15      1.0000 0.80880  0.62260  0.31973  Biso   1.000  C
  C16      1.0000 0.09090  0.44710  0.43676  Biso   1.000  C
  C17      1.0000 0.18000  0.38700  0.47661  Biso   1.000  C
  H5       1.0000 0.23980  0.34920  0.45760  Biso   1.000  H
  C18      1.0000 0.81920  0.61700  0.45951  Biso   1.000  C
  H6       1.0000 0.75820  0.65710  0.43470  Biso   1.000  H
  C19      1.0000 0.90900  0.56170  0.42833  Biso   1.000  C
  C20      1.0000 0.99980  0.50240  0.46606  Biso   1.000  C
  O1       1.0000 0.47480  0.26456  0.15315  Biso   1.000  O
  O2       1.0000 0.33780  0.35008  0.20298  Biso   1.000  O
  O3       1.0000 0.44480  0.66348  0.22020  Biso   1.000  O
  O4       1.0000 0.62490  0.70148  0.17184  Biso   1.000  O
  O5       1.0000 0.12490  0.33651  0.29945  Biso   1.000  O
  O6       1.0000 0.30950  0.40953  0.34639  Biso   1.000  O
  O7       1.0000 0.68490  0.60314  0.31301  Biso   1.000  O
  O8       1.0000 0.85990  0.68768  0.29286  Biso   1.000  O
  Li1      1.0000 0.49620  0.15010  0.18910  Biso   1.000  Li
  Zn1      1.0000 0.26936  0.27102  0.26169  Biso   1.000  Zn
  C21      1.0000 0.57890  0.83620  0.33676  Biso   1.000  C
  C22      1.0000 0.54550  0.91750  0.37188  Biso   1.000  C
  C23      1.0000 0.53400  0.99620  0.33758  Biso   1.000  C
  H7       1.0000 0.54820  0.99570  0.29420  Biso   1.000  H
  C24      1.0000 0.50260  0.07500  0.36479  Biso   1.000  C
  C25      1.0000 0.47900  0.15350  0.32078  Biso   1.000  C
  C26      1.0000 0.48950  0.07850  0.43036  Biso   1.000  C
  C27      1.0000 0.46810  0.15990  0.46211  Biso   1.000  C
  H8       1.0000 0.45960  0.21330  0.43840  Biso   1.000  H
  C28      1.0000 0.54030  0.83820  0.47475  Biso   1.000  C
  H9       1.0000 0.55400  0.78320  0.45500  Biso   1.000  H
  C29      1.0000 0.52910  0.91690  0.43683  Biso   1.000  C
  C30      1.0000 0.50460  0.99890  0.46628  Biso   1.000  C
  C31      1.0000 0.81650  0.89570  0.16308  Biso   1.000  C
  C32      1.0000 0.91180  0.95260  0.12968  Biso   1.000  C
  C33      1.0000 0.00050  0.01070  0.16617  Biso   1.000  C
  H10      1.0000 0.00040  0.01380  0.21100  Biso   1.000  H
  C34      1.0000 0.09000  0.06490  0.13800  Biso   1.000  C
  C35      1.0000 0.19120  0.12260  0.18027  Biso   1.000  C
  C36      1.0000 0.90910  0.94710  0.06324  Biso   1.000  C
  C37      1.0000 0.82000  0.88700  0.02339  Biso   1.000  C
  H11      1.0000 0.76020  0.84920  0.04240  Biso   1.000  H
  C38      1.0000 0.18080  0.11700  0.04049  Biso   1.000  C
  H12      1.0000 0.24180  0.15710  0.06530  Biso   1.000  H
  C39      1.0000 0.09100  0.06170  0.07167  Biso   1.000  C
  C40      1.0000 0.00020  0.00240  0.03394  Biso   1.000  C
  O9       1.0000 0.52520  0.76456  0.34685  Biso   1.000  O
  O10      1.0000 0.66220  0.85008  0.29702  Biso   1.000  O
  O11      1.0000 0.55520  0.16348  0.27980  Biso   1.000  O
  O12      1.0000 0.37510  0.20148  0.32816  Biso   1.000  O
  O13      1.0000 0.87510  0.83651  0.20055  Biso   1.000  O
  O14      1.0000 0.69050  0.90953  0.15361  Biso   1.000  O
  O15      1.0000 0.31510  0.10314  0.18699  Biso   1.000  O
  O16      1.0000 0.14010  0.18768  0.20714  Biso   1.000  O
  Li2      1.0000 0.50380  0.65010  0.31090  Biso   1.000  Li
  Zn2      1.0000 0.73064  0.77102  0.23831  Biso   1.000  Zn
  C41      1.0000 0.57890  0.66380  0.83676  Biso   1.000  C
  C42      1.0000 0.54550  0.58250  0.87188  Biso   1.000  C
  C43      1.0000 0.53400  0.50380  0.83758  Biso   1.000  C
  H13      1.0000 0.54820  0.50430  0.79420  Biso   1.000  H
  C44      1.0000 0.50260  0.42500  0.86479  Biso   1.000  C
  C45      1.0000 0.47900  0.34650  0.82078  Biso   1.000  C
  C46      1.0000 0.48950  0.42150  0.93036  Biso   1.000  C
  C47      1.0000 0.46810  0.34010  0.96211  Biso   1.000  C
  H14      1.0000 0.45960  0.28670  0.93840  Biso   1.000  H
  C48      1.0000 0.54030  0.66180  0.97475  Biso   1.000  C
  H15      1.0000 0.55400  0.71680  0.95500  Biso   1.000  H
  C49      1.0000 0.52910  0.58310  0.93683  Biso   1.000  C
  C50      1.0000 0.50460  0.50110  0.96628  Biso   1.000  C
  C51      1.0000 0.81650  0.60430  0.66308  Biso   1.000  C
  C52      1.0000 0.91180  0.54740  0.62968  Biso   1.000  C
  C53      1.0000 0.00050  0.48930  0.66617  Biso   1.000  C
  H16      1.0000 0.00040  0.48620  0.71100  Biso   1.000  H
  C54      1.0000 0.09000  0.43510  0.63800  Biso   1.000  C
  C55      1.0000 0.19120  0.37740  0.68027  Biso   1.000  C
  C56      1.0000 0.90910  0.55290  0.56324  Biso   1.000  C
  C57      1.0000 0.82000  0.61300  0.52339  Biso   1.000  C
  H17      1.0000 0.76020  0.65080  0.54240  Biso   1.000  H
  C58      1.0000 0.18080  0.38300  0.54049  Biso   1.000  C
  H18      1.0000 0.24180  0.34290  0.56530  Biso   1.000  H
  C59      1.0000 0.09100  0.43830  0.57167  Biso   1.000  C
  C60      1.0000 0.00020  0.49760  0.53394  Biso   1.000  C
  O17      1.0000 0.52520  0.73544  0.84685  Biso   1.000  O
  O18      1.0000 0.66220  0.64992  0.79702  Biso   1.000  O
  O19      1.0000 0.55520  0.33652  0.77980  Biso   1.000  O
  O20      1.0000 0.37510  0.29852  0.82816  Biso   1.000  O
  O21      1.0000 0.87510  0.66349  0.70055  Biso   1.000  O
  O22      1.0000 0.69050  0.59047  0.65361  Biso   1.000  O
  O23      1.0000 0.31510  0.39686  0.68699  Biso   1.000  O
  O24      1.0000 0.14010  0.31232  0.70714  Biso   1.000  O
  Li3      1.0000 0.50380  0.84990  0.81090  Biso   1.000  Li
  Zn3      1.0000 0.73064  0.72898  0.73831  Biso   1.000  Zn
  C61      1.0000 0.42110  0.16380  0.66324  Biso   1.000  C
  C62      1.0000 0.45450  0.08250  0.62812  Biso   1.000  C
  C63      1.0000 0.46600  0.00380  0.66242  Biso   1.000  C
  H19      1.0000 0.45180  0.00430  0.70580  Biso   1.000  H
  C64      1.0000 0.49740  0.92500  0.63521  Biso   1.000  C
  C65      1.0000 0.52100  0.84650  0.67922  Biso   1.000  C
  C66      1.0000 0.51050  0.92150  0.56964  Biso   1.000  C
  C67      1.0000 0.53190  0.84010  0.53789  Biso   1.000  C
  H20      1.0000 0.54040  0.78670  0.56160  Biso   1.000  H
  C68      1.0000 0.45970  0.16180  0.52525  Biso   1.000  C
  H21      1.0000 0.44600  0.21680  0.54500  Biso   1.000  H
  C69      1.0000 0.47090  0.08310  0.56317  Biso   1.000  C
  C70      1.0000 0.49540  0.00110  0.53372  Biso   1.000  C
  C71      1.0000 0.18350  0.10430  0.83692  Biso   1.000  C
  C72      1.0000 0.08820  0.04740  0.87032  Biso   1.000  C
  C73      1.0000 0.99950  0.98930  0.83383  Biso   1.000  C
  H22      1.0000 0.99960  0.98620  0.78900  Biso   1.000  H
  C74      1.0000 0.91000  0.93510  0.86200  Biso   1.000  C
  C75      1.0000 0.80880  0.87740  0.81973  Biso   1.000  C
  C76      1.0000 0.09090  0.05290  0.93676  Biso   1.000  C
  C77      1.0000 0.18000  0.11300  0.97661  Biso   1.000  C
  H23      1.0000 0.23980  0.15080  0.95760  Biso   1.000  H
  C78      1.0000 0.81920  0.88300  0.95951  Biso   1.000  C
  H24      1.0000 0.75820  0.84290  0.93470  Biso   1.000  H
  C79      1.0000 0.90900  0.93830  0.92833  Biso   1.000  C
  C80      1.0000 0.99980  0.99760  0.96606  Biso   1.000  C
  O25      1.0000 0.47480  0.23544  0.65315  Biso   1.000  O
  O26      1.0000 0.33780  0.14992  0.70298  Biso   1.000  O
  O27      1.0000 0.44480  0.83652  0.72020  Biso   1.000  O
  O28      1.0000 0.62490  0.79852  0.67184  Biso   1.000  O
  O29      1.0000 0.12490  0.16349  0.79945  Biso   1.000  O
  O30      1.0000 0.30950  0.09047  0.84639  Biso   1.000  O
  O31      1.0000 0.68490  0.89686  0.81301  Biso   1.000  O
  O32      1.0000 0.85990  0.81232  0.79286  Biso   1.000  O
  Li4      1.0000 0.49620  0.34990  0.68910  Biso   1.000  Li
  Zn4      1.0000 0.26936  0.22898  0.76169  Biso   1.000  Zn
