data_image0
_cell_length_a       17.8892
_cell_length_b       17.8892
_cell_length_c       52.1012
_cell_angle_alpha    90
_cell_angle_beta     90
_cell_angle_gamma    120

_symmetry_space_group_name_H-M    "P 1"
_symmetry_int_tables_number       1

loop_
  _symmetry_equiv_pos_as_xyz
  'x, y, z'

loop_
  _atom_site_label
  _atom_site_occupancy
  _atom_site_fract_x
  _atom_site_fract_y
  _atom_site_fract_z
  _atom_site_thermal_displace_type
  _atom_site_B_iso_or_equiv
  _atom_site_type_symbol
  C1       1.0000 0.88520  0.25030  0.15720  Biso   1.000  C
  H1       1.0000 0.05740  0.40890  0.48300  Biso   1.000  H
  O1       1.0000 0.49340  0.31000  0.11990  Biso   1.000  O
  C2       1.0000 0.55187  0.58363  0.49053  Biso   1.000  C
  H2       1.0000 0.72407  0.74223  0.81633  Biso   1.000  H
  O2       1.0000 0.16007  0.64333  0.45323  Biso   1.000  O
  C3       1.0000 0.21853  0.91697  0.82387  Biso   1.000  C
  H3       1.0000 0.39073  0.07557  0.14967  Biso   1.000  H
  O3       1.0000 0.82673  0.97667  0.78657  Biso   1.000  O
  C4       1.0000 0.74970  0.63490  0.15720  Biso   1.000  C
  H4       1.0000 0.59110  0.64850  0.48300  Biso   1.000  H
  O4       1.0000 0.69000  0.18340  0.11990  Biso   1.000  O
  C5       1.0000 0.41637  0.96823  0.49053  Biso   1.000  C
  H5       1.0000 0.25777  0.98183  0.81633  Biso   1.000  H
  O5       1.0000 0.35667  0.51673  0.45323  Biso   1.000  O
  C6       1.0000 0.08303  0.30157  0.82387  Biso   1.000  C
  H6       1.0000 0.92443  0.31517  0.14967  Biso   1.000  H
  O6       1.0000 0.02333  0.85007  0.78657  Biso   1.000  O
  C7       1.0000 0.36510  0.11480  0.15720  Biso   1.000  C
  H7       1.0000 0.35150  0.94260  0.48300  Biso   1.000  H
  O7       1.0000 0.81660  0.50660  0.11990  Biso   1.000  O
  C8       1.0000 0.03177  0.44813  0.49053  Biso   1.000  C
  H8       1.0000 0.01817  0.27593  0.81633  Biso   1.000  H
  O8       1.0000 0.48327  0.83993  0.45323  Biso   1.000  O
  C9       1.0000 0.69843  0.78147  0.82387  Biso   1.000  C
  H9       1.0000 0.68483  0.60927  0.14967  Biso   1.000  H
  O9       1.0000 0.14993  0.17327  0.78657  Biso   1.000  O
  C10      1.0000 0.25030  0.88520  0.84280  Biso   1.000  C
  H10      1.0000 0.40890  0.05740  0.51700  Biso   1.000  H
  O10      1.0000 0.31000  0.49340  0.88010  Biso   1.000  O
  C11      1.0000 0.91697  0.21853  0.17613  Biso   1.000  C
  H11      1.0000 0.07557  0.39073  0.85033  Biso   1.000  H
  O11      1.0000 0.97667  0.82673  0.21343  Biso   1.000  O
  C12      1.0000 0.58363  0.55187  0.50947  Biso   1.000  C
  H12      1.0000 0.74223  0.72407  0.18367  Biso   1.000  H
  O12      1.0000 0.64333  0.16007  0.54677  Biso   1.000  O
  C13      1.0000 0.63490  0.74970  0.84280  Biso   1.000  C
  H13      1.0000 0.64850  0.59110  0.51700  Biso   1.000  H
  O13      1.0000 0.18340  0.69000  0.88010  Biso   1.000  O
  C14      1.0000 0.30157  0.08303  0.17613  Biso   1.000  C
  H14      1.0000 0.31517  0.92443  0.85033  Biso   1.000  H
  O14      1.0000 0.85007  0.02333  0.21343  Biso   1.000  O
  C15      1.0000 0.96823  0.41637  0.50947  Biso   1.000  C
  H15      1.0000 0.98183  0.25777  0.18367  Biso   1.000  H
  O15      1.0000 0.51673  0.35667  0.54677  Biso   1.000  O
  C16      1.0000 0.11480  0.36510  0.84280  Biso   1.000  C
  H16      1.0000 0.94260  0.35150  0.51700  Biso   1.000  H
  O16      1.0000 0.50660  0.81660  0.88010  Biso   1.000  O
  C17      1.0000 0.78147  0.69843  0.17613  Biso   1.000  C
  H17      1.0000 0.60927  0.68483  0.85033  Biso   1.000  H
  O17      1.0000 0.17327  0.14993  0.21343  Biso   1.000  O
  C18      1.0000 0.44813  0.03177  0.50947  Biso   1.000  C
  H18      1.0000 0.27593  0.01817  0.18367  Biso   1.000  H
  O18      1.0000 0.83993  0.48327  0.54677  Biso   1.000  O
  C19      1.0000 0.11480  0.74970  0.84280  Biso   1.000  C
  H19      1.0000 0.94260  0.59110  0.51700  Biso   1.000  H
  O19      1.0000 0.50660  0.69000  0.88010  Biso   1.000  O
  C20      1.0000 0.78147  0.08303  0.17613  Biso   1.000  C
  H20      1.0000 0.60927  0.92443  0.85033  Biso   1.000  H
  O20      1.0000 0.17327  0.02333  0.21343  Biso   1.000  O
  C21      1.0000 0.44813  0.41637  0.50947  Biso   1.000  C
  H21      1.0000 0.27593  0.25777  0.18367  Biso   1.000  H
  O21      1.0000 0.83993  0.35667  0.54677  Biso   1.000  O
  C22      1.0000 0.25030  0.36510  0.84280  Biso   1.000  C
  H22      1.0000 0.40890  0.35150  0.51700  Biso   1.000  H
  O22      1.0000 0.31000  0.81660  0.88010  Biso   1.000  O
  C23      1.0000 0.91697  0.69843  0.17613  Biso   1.000  C
  H23      1.0000 0.07557  0.68483  0.85033  Biso   1.000  H
  O23      1.0000 0.97667  0.14993  0.21343  Biso   1.000  O
  C24      1.0000 0.58363  0.03177  0.50947  Biso   1.000  C
  H24      1.0000 0.74223  0.01817  0.18367  Biso   1.000  H
  O24      1.0000 0.64333  0.48327  0.54677  Biso   1.000  O
  C25      1.0000 0.63490  0.88520  0.84280  Biso   1.000  C
  H25      1.0000 0.64850  0.05740  0.51700  Biso   1.000  H
  O25      1.0000 0.18340  0.49340  0.88010  Biso   1.000  O
  C26      1.0000 0.30157  0.21853  0.17613  Biso   1.000  C
  H26      1.0000 0.31517  0.39073  0.85033  Biso   1.000  H
  O26      1.0000 0.85007  0.82673  0.21343  Biso   1.000  O
  C27      1.0000 0.96823  0.55187  0.50947  Biso   1.000  C
  H27      1.0000 0.98183  0.72407  0.18367  Biso   1.000  H
  O27      1.0000 0.51673  0.16007  0.54677  Biso   1.000  O
  C28      1.0000 0.74970  0.11480  0.15720  Biso   1.000  C
  H28      1.0000 0.59110  0.94260  0.48300  Biso   1.000  H
  O28      1.0000 0.69000  0.50660  0.11990  Biso   1.000  O
  C29      1.0000 0.41637  0.44813  0.49053  Biso   1.000  C
  H29      1.0000 0.25777  0.27593  0.81633  Biso   1.000  H
  O29      1.0000 0.35667  0.83993  0.45323  Biso   1.000  O
  C30      1.0000 0.08303  0.78147  0.82387  Biso   1.000  C
  H30      1.0000 0.92443  0.60927  0.14967  Biso   1.000  H
  O30      1.0000 0.02333  0.17327  0.78657  Biso   1.000  O
  C31      1.0000 0.36510  0.25030  0.15720  Biso   1.000  C
  H31      1.0000 0.35150  0.40890  0.48300  Biso   1.000  H
  O31      1.0000 0.81660  0.31000  0.11990  Biso   1.000  O
  C32      1.0000 0.03177  0.58363  0.49053  Biso   1.000  C
  H32      1.0000 0.01817  0.74223  0.81633  Biso   1.000  H
  O32      1.0000 0.48327  0.64333  0.45323  Biso   1.000  O
  C33      1.0000 0.69843  0.91697  0.82387  Biso   1.000  C
  H33      1.0000 0.68483  0.07557  0.14967  Biso   1.000  H
  O33      1.0000 0.14993  0.97667  0.78657  Biso   1.000  O
  C34      1.0000 0.88520  0.63490  0.15720  Biso   1.000  C
  H34      1.0000 0.05740  0.64850  0.48300  Biso   1.000  H
  O34      1.0000 0.49340  0.18340  0.11990  Biso   1.000  O
  C35      1.0000 0.55187  0.96823  0.49053  Biso   1.000  C
  H35      1.0000 0.72407  0.98183  0.81633  Biso   1.000  H
  O35      1.0000 0.16007  0.51673  0.45323  Biso   1.000  O
  C36      1.0000 0.21853  0.30157  0.82387  Biso   1.000  C
  H36      1.0000 0.39073  0.31517  0.14967  Biso   1.000  H
  O36      1.0000 0.82673  0.85007  0.78657  Biso   1.000  O
  C37      1.0000 0.56950  0.43050  0.03740  Biso   1.000  C
  C38      1.0000 0.76660  0.23340  0.12760  Biso   1.000  C
  C39      1.0000 0.54290  0.45710  0.99170  Biso   1.000  C
  C40      1.0000 0.49050  0.50950  0.02620  Biso   1.000  C
  C41      1.0000 0.53360  0.46640  0.01800  Biso   1.000  C
  C42      1.0000 0.80140  0.19860  0.14770  Biso   1.000  C
  H37      1.0000 0.09030  0.90970  0.34780  Biso   1.000  H
  O37      1.0000 0.55870  0.44130  0.06090  Biso   1.000  O
  O38      1.0000 0.60780  0.39220  0.02870  Biso   1.000  O
  C43      1.0000 0.23617  0.76383  0.37073  Biso   1.000  C
  C44      1.0000 0.43327  0.56673  0.46093  Biso   1.000  C
  C45      1.0000 0.20957  0.79043  0.32503  Biso   1.000  C
  C46      1.0000 0.15717  0.84283  0.35953  Biso   1.000  C
  C47      1.0000 0.20027  0.79973  0.35133  Biso   1.000  C
  C48      1.0000 0.46807  0.53193  0.48103  Biso   1.000  C
  H38      1.0000 0.75697  0.24303  0.68113  Biso   1.000  H
  O39      1.0000 0.22537  0.77463  0.39423  Biso   1.000  O
  O40      1.0000 0.27447  0.72553  0.36203  Biso   1.000  O
  C49      1.0000 0.90283  0.09717  0.70407  Biso   1.000  C
  C50      1.0000 0.09993  0.90007  0.79427  Biso   1.000  C
  C51      1.0000 0.87623  0.12377  0.65837  Biso   1.000  C
  C52      1.0000 0.82383  0.17617  0.69287  Biso   1.000  C
  C53      1.0000 0.86693  0.13307  0.68467  Biso   1.000  C
  C54      1.0000 0.13473  0.86527  0.81437  Biso   1.000  C
  H39      1.0000 0.42363  0.57637  0.01447  Biso   1.000  H
  O41      1.0000 0.89203  0.10797  0.72757  Biso   1.000  O
  O42      1.0000 0.94113  0.05887  0.69537  Biso   1.000  O
  C55      1.0000 0.56950  0.13900  0.03740  Biso   1.000  C
  C56      1.0000 0.76660  0.53320  0.12760  Biso   1.000  C
  C57      1.0000 0.54290  0.08580  0.99170  Biso   1.000  C
  C58      1.0000 0.49050  0.98100  0.02620  Biso   1.000  C
  C59      1.0000 0.53360  0.06720  0.01800  Biso   1.000  C
  C60      1.0000 0.80140  0.60280  0.14770  Biso   1.000  C
  H40      1.0000 0.09030  0.18060  0.34780  Biso   1.000  H
  O43      1.0000 0.55870  0.11740  0.06090  Biso   1.000  O
  O44      1.0000 0.60780  0.21560  0.02870  Biso   1.000  O
  C61      1.0000 0.23617  0.47233  0.37073  Biso   1.000  C
  C62      1.0000 0.43327  0.86653  0.46093  Biso   1.000  C
  C63      1.0000 0.20957  0.41913  0.32503  Biso   1.000  C
  C64      1.0000 0.15717  0.31433  0.35953  Biso   1.000  C
  C65      1.0000 0.20027  0.40053  0.35133  Biso   1.000  C
  C66      1.0000 0.46807  0.93613  0.48103  Biso   1.000  C
  H41      1.0000 0.75697  0.51393  0.68113  Biso   1.000  H
  O45      1.0000 0.22537  0.45073  0.39423  Biso   1.000  O
  O46      1.0000 0.27447  0.54893  0.36203  Biso   1.000  O
  C67      1.0000 0.90283  0.80567  0.70407  Biso   1.000  C
  C68      1.0000 0.09993  0.19987  0.79427  Biso   1.000  C
  C69      1.0000 0.87623  0.75247  0.65837  Biso   1.000  C
  C70      1.0000 0.82383  0.64767  0.69287  Biso   1.000  C
  C71      1.0000 0.86693  0.73387  0.68467  Biso   1.000  C
  C72      1.0000 0.13473  0.26947  0.81437  Biso   1.000  C
  H42      1.0000 0.42363  0.84727  0.01447  Biso   1.000  H
  O47      1.0000 0.89203  0.78407  0.72757  Biso   1.000  O
  O48      1.0000 0.94113  0.88227  0.69537  Biso   1.000  O
  C73      1.0000 0.86100  0.43050  0.03740  Biso   1.000  C
  C74      1.0000 0.46680  0.23340  0.12760  Biso   1.000  C
  C75      1.0000 0.91420  0.45710  0.99170  Biso   1.000  C
  C76      1.0000 0.01900  0.50950  0.02620  Biso   1.000  C
  C77      1.0000 0.93280  0.46640  0.01800  Biso   1.000  C
  C78      1.0000 0.39720  0.19860  0.14770  Biso   1.000  C
  H43      1.0000 0.81940  0.90970  0.34780  Biso   1.000  H
  O49      1.0000 0.88260  0.44130  0.06090  Biso   1.000  O
  O50      1.0000 0.78440  0.39220  0.02870  Biso   1.000  O
  C79      1.0000 0.52767  0.76383  0.37073  Biso   1.000  C
  C80      1.0000 0.13347  0.56673  0.46093  Biso   1.000  C
  C81      1.0000 0.58087  0.79043  0.32503  Biso   1.000  C
  C82      1.0000 0.68567  0.84283  0.35953  Biso   1.000  C
  C83      1.0000 0.59947  0.79973  0.35133  Biso   1.000  C
  C84      1.0000 0.06387  0.53193  0.48103  Biso   1.000  C
  H44      1.0000 0.48607  0.24303  0.68113  Biso   1.000  H
  O51      1.0000 0.54927  0.77463  0.39423  Biso   1.000  O
  O52      1.0000 0.45107  0.72553  0.36203  Biso   1.000  O
  C85      1.0000 0.19433  0.09717  0.70407  Biso   1.000  C
  C86      1.0000 0.80013  0.90007  0.79427  Biso   1.000  C
  C87      1.0000 0.24753  0.12377  0.65837  Biso   1.000  C
  C88      1.0000 0.35233  0.17617  0.69287  Biso   1.000  C
  C89      1.0000 0.26613  0.13307  0.68467  Biso   1.000  C
  C90      1.0000 0.73053  0.86527  0.81437  Biso   1.000  C
  H45      1.0000 0.15273  0.57637  0.01447  Biso   1.000  H
  O53      1.0000 0.21593  0.10797  0.72757  Biso   1.000  O
  O54      1.0000 0.11773  0.05887  0.69537  Biso   1.000  O
  C91      1.0000 0.43050  0.56950  0.96260  Biso   1.000  C
  C92      1.0000 0.23340  0.76660  0.87240  Biso   1.000  C
  C93      1.0000 0.45710  0.54290  0.00830  Biso   1.000  C
  C94      1.0000 0.50950  0.49050  0.97380  Biso   1.000  C
  C95      1.0000 0.46640  0.53360  0.98200  Biso   1.000  C
  C96      1.0000 0.19860  0.80140  0.85230  Biso   1.000  C
  H46      1.0000 0.90970  0.09030  0.65220  Biso   1.000  H
  O55      1.0000 0.44130  0.55870  0.93910  Biso   1.000  O
  O56      1.0000 0.39220  0.60780  0.97130  Biso   1.000  O
  C97      1.0000 0.09717  0.90283  0.29593  Biso   1.000  C
  C98      1.0000 0.90007  0.09993  0.20573  Biso   1.000  C
  C99      1.0000 0.12377  0.87623  0.34163  Biso   1.000  C
  C100     1.0000 0.17617  0.82383  0.30713  Biso   1.000  C
  C101     1.0000 0.13307  0.86693  0.31533  Biso   1.000  C
  C102     1.0000 0.86527  0.13473  0.18563  Biso   1.000  C
  H47      1.0000 0.57637  0.42363  0.98553  Biso   1.000  H
  O57      1.0000 0.10797  0.89203  0.27243  Biso   1.000  O
  O58      1.0000 0.05887  0.94113  0.30463  Biso   1.000  O
  C103     1.0000 0.76383  0.23617  0.62927  Biso   1.000  C
  C104     1.0000 0.56673  0.43327  0.53907  Biso   1.000  C
  C105     1.0000 0.79043  0.20957  0.67497  Biso   1.000  C
  C106     1.0000 0.84283  0.15717  0.64047  Biso   1.000  C
  C107     1.0000 0.79973  0.20027  0.64867  Biso   1.000  C
  C108     1.0000 0.53193  0.46807  0.51897  Biso   1.000  C
  H48      1.0000 0.24303  0.75697  0.31887  Biso   1.000  H
  O59      1.0000 0.77463  0.22537  0.60577  Biso   1.000  O
  O60      1.0000 0.72553  0.27447  0.63797  Biso   1.000  O
  C109     1.0000 0.13900  0.56950  0.96260  Biso   1.000  C
  C110     1.0000 0.53320  0.76660  0.87240  Biso   1.000  C
  C111     1.0000 0.08580  0.54290  0.00830  Biso   1.000  C
  C112     1.0000 0.98100  0.49050  0.97380  Biso   1.000  C
  C113     1.0000 0.06720  0.53360  0.98200  Biso   1.000  C
  C114     1.0000 0.60280  0.80140  0.85230  Biso   1.000  C
  H49      1.0000 0.18060  0.09030  0.65220  Biso   1.000  H
  O61      1.0000 0.11740  0.55870  0.93910  Biso   1.000  O
  O62      1.0000 0.21560  0.60780  0.97130  Biso   1.000  O
  C115     1.0000 0.80567  0.90283  0.29593  Biso   1.000  C
  C116     1.0000 0.19987  0.09993  0.20573  Biso   1.000  C
  C117     1.0000 0.75247  0.87623  0.34163  Biso   1.000  C
  C118     1.0000 0.64767  0.82383  0.30713  Biso   1.000  C
  C119     1.0000 0.73387  0.86693  0.31533  Biso   1.000  C
  C120     1.0000 0.26947  0.13473  0.18563  Biso   1.000  C
  H50      1.0000 0.84727  0.42363  0.98553  Biso   1.000  H
  O63      1.0000 0.78407  0.89203  0.27243  Biso   1.000  O
  O64      1.0000 0.88227  0.94113  0.30463  Biso   1.000  O
  C121     1.0000 0.47233  0.23617  0.62927  Biso   1.000  C
  C122     1.0000 0.86653  0.43327  0.53907  Biso   1.000  C
  C123     1.0000 0.41913  0.20957  0.67497  Biso   1.000  C
  C124     1.0000 0.31433  0.15717  0.64047  Biso   1.000  C
  C125     1.0000 0.40053  0.20027  0.64867  Biso   1.000  C
  C126     1.0000 0.93613  0.46807  0.51897  Biso   1.000  C
  H51      1.0000 0.51393  0.75697  0.31887  Biso   1.000  H
  O65      1.0000 0.45073  0.22537  0.60577  Biso   1.000  O
  O66      1.0000 0.54893  0.27447  0.63797  Biso   1.000  O
  C127     1.0000 0.43050  0.86100  0.96260  Biso   1.000  C
  C128     1.0000 0.23340  0.46680  0.87240  Biso   1.000  C
  C129     1.0000 0.45710  0.91420  0.00830  Biso   1.000  C
  C130     1.0000 0.50950  0.01900  0.97380  Biso   1.000  C
  C131     1.0000 0.46640  0.93280  0.98200  Biso   1.000  C
  C132     1.0000 0.19860  0.39720  0.85230  Biso   1.000  C
  H52      1.0000 0.90970  0.81940  0.65220  Biso   1.000  H
  O67      1.0000 0.44130  0.88260  0.93910  Biso   1.000  O
  O68      1.0000 0.39220  0.78440  0.97130  Biso   1.000  O
  C133     1.0000 0.09717  0.19433  0.29593  Biso   1.000  C
  C134     1.0000 0.90007  0.80013  0.20573  Biso   1.000  C
  C135     1.0000 0.12377  0.24753  0.34163  Biso   1.000  C
  C136     1.0000 0.17617  0.35233  0.30713  Biso   1.000  C
  C137     1.0000 0.13307  0.26613  0.31533  Biso   1.000  C
  C138     1.0000 0.86527  0.73053  0.18563  Biso   1.000  C
  H53      1.0000 0.57637  0.15273  0.98553  Biso   1.000  H
  O69      1.0000 0.10797  0.21593  0.27243  Biso   1.000  O
  O70      1.0000 0.05887  0.11773  0.30463  Biso   1.000  O
  C139     1.0000 0.76383  0.52767  0.62927  Biso   1.000  C
  C140     1.0000 0.56673  0.13347  0.53907  Biso   1.000  C
  C141     1.0000 0.79043  0.58087  0.67497  Biso   1.000  C
  C142     1.0000 0.84283  0.68567  0.64047  Biso   1.000  C
  C143     1.0000 0.79973  0.59947  0.64867  Biso   1.000  C
  C144     1.0000 0.53193  0.06387  0.51897  Biso   1.000  C
  H54      1.0000 0.24303  0.48607  0.31887  Biso   1.000  H
  O71      1.0000 0.77463  0.54927  0.60577  Biso   1.000  O
  O72      1.0000 0.72553  0.45107  0.63797  Biso   1.000  O
  Cd1      1.0000 0.20080  0.60040  0.90500  Biso   1.000  Cd
  H55      1.0000 0.69930  0.84965  0.38000  Biso   1.000  H
  Cd2      1.0000 0.86747  0.93373  0.23833  Biso   1.000  Cd
  H56      1.0000 0.36597  0.18298  0.71333  Biso   1.000  H
  Cd3      1.0000 0.53413  0.26707  0.57167  Biso   1.000  Cd
  H57      1.0000 0.03263  0.51632  0.04667  Biso   1.000  H
  Cd4      1.0000 0.39960  0.60040  0.90500  Biso   1.000  Cd
  H58      1.0000 0.15035  0.84965  0.38000  Biso   1.000  H
  Cd5      1.0000 0.06627  0.93373  0.23833  Biso   1.000  Cd
  H59      1.0000 0.81702  0.18298  0.71333  Biso   1.000  H
  Cd6      1.0000 0.73293  0.26707  0.57167  Biso   1.000  Cd
  H60      1.0000 0.48368  0.51632  0.04667  Biso   1.000  H
  Cd7      1.0000 0.39960  0.79920  0.90500  Biso   1.000  Cd
  H61      1.0000 0.15035  0.30070  0.38000  Biso   1.000  H
  Cd8      1.0000 0.06627  0.13253  0.23833  Biso   1.000  Cd
  H62      1.0000 0.81702  0.63403  0.71333  Biso   1.000  H
  Cd9      1.0000 0.73293  0.46587  0.57167  Biso   1.000  Cd
  H63      1.0000 0.48368  0.96737  0.04667  Biso   1.000  H
  Cd10     1.0000 0.60040  0.20080  0.09500  Biso   1.000  Cd
  H64      1.0000 0.84965  0.69930  0.62000  Biso   1.000  H
  Cd11     1.0000 0.26707  0.53413  0.42833  Biso   1.000  Cd
  H65      1.0000 0.51632  0.03263  0.95333  Biso   1.000  H
  Cd12     1.0000 0.93373  0.86747  0.76167  Biso   1.000  Cd
  H66      1.0000 0.18298  0.36597  0.28667  Biso   1.000  H
  Cd13     1.0000 0.60040  0.39960  0.09500  Biso   1.000  Cd
  H67      1.0000 0.84965  0.15035  0.62000  Biso   1.000  H
  Cd14     1.0000 0.26707  0.73293  0.42833  Biso   1.000  Cd
  H68      1.0000 0.51632  0.48368  0.95333  Biso   1.000  H
  Cd15     1.0000 0.93373  0.06627  0.76167  Biso   1.000  Cd
  H69      1.0000 0.18298  0.81702  0.28667  Biso   1.000  H
  Cd16     1.0000 0.79920  0.39960  0.09500  Biso   1.000  Cd
  H70      1.0000 0.30070  0.15035  0.62000  Biso   1.000  H
  Cd17     1.0000 0.46587  0.73293  0.42833  Biso   1.000  Cd
  H71      1.0000 0.96737  0.48368  0.95333  Biso   1.000  H
  Cd18     1.0000 0.13253  0.06627  0.76167  Biso   1.000  Cd
  H72      1.0000 0.63403  0.81702  0.28667  Biso   1.000  H
  O73      1.0000 0.33333  0.66667  0.91960  Biso   1.000  O
  O74      1.0000 0.00000  0.00000  0.25293  Biso   1.000  O
  O75      1.0000 0.66667  0.33333  0.58627  Biso   1.000  O
  O76      1.0000 0.66667  0.33333  0.08040  Biso   1.000  O
  O77      1.0000 0.33333  0.66667  0.41373  Biso   1.000  O
  O78      1.0000 0.00000  0.00000  0.74707  Biso   1.000  O
  Zn1      1.0000 0.00000  0.00000  0.29010  Biso   1.000  Zn
  Zn2      1.0000 0.66667  0.33333  0.62343  Biso   1.000  Zn
  Zn3      1.0000 0.33333  0.66667  0.95677  Biso   1.000  Zn
  Zn4      1.0000 0.00000  0.00000  0.70990  Biso   1.000  Zn
  Zn5      1.0000 0.66667  0.33333  0.04323  Biso   1.000  Zn
  Zn6      1.0000 0.33333  0.66667  0.37657  Biso   1.000  Zn
