data_image0
_cell_length_a       18.5474
_cell_length_b       18.5474
_cell_length_c       18.5474
_cell_angle_alpha    90
_cell_angle_beta     90
_cell_angle_gamma    90

_symmetry_space_group_name_H-M    "P 1"
_symmetry_int_tables_number       1

loop_
  _symmetry_equiv_pos_as_xyz
  'x, y, z'

loop_
  _atom_site_label
  _atom_site_occupancy
  _atom_site_fract_x
  _atom_site_fract_y
  _atom_site_fract_z
  _atom_site_thermal_displace_type
  _atom_site_B_iso_or_equiv
  _atom_site_type_symbol
  C1       1.0000 0.32030  0.34940  0.24710  Biso   1.000  C
  C2       1.0000 0.29400  0.26470  0.36750  Biso   1.000  C
  C3       1.0000 0.39070  0.18160  0.33100  Biso   1.000  C
  C4       1.0000 0.40230  0.14800  0.39520  Biso   1.000  C
  C5       1.0000 0.35720  0.07550  0.77880  Biso   1.000  C
  N1       1.0000 0.38260  0.44330  0.08860  Biso   1.000  N
  N2       1.0000 0.04290  0.18940  0.58540  Biso   1.000  N
  C6       1.0000 0.67970  0.65060  0.24710  Biso   1.000  C
  C7       1.0000 0.70600  0.73530  0.36750  Biso   1.000  C
  C8       1.0000 0.60930  0.81840  0.33100  Biso   1.000  C
  C9       1.0000 0.59770  0.85200  0.39520  Biso   1.000  C
  C10      1.0000 0.64280  0.92450  0.77880  Biso   1.000  C
  N3       1.0000 0.61740  0.55670  0.08860  Biso   1.000  N
  N4       1.0000 0.95710  0.81060  0.58540  Biso   1.000  N
  C11      1.0000 0.67970  0.34940  0.75290  Biso   1.000  C
  C12      1.0000 0.70600  0.26470  0.63250  Biso   1.000  C
  C13      1.0000 0.60930  0.18160  0.66900  Biso   1.000  C
  C14      1.0000 0.59770  0.14800  0.60480  Biso   1.000  C
  C15      1.0000 0.64280  0.07550  0.22120  Biso   1.000  C
  N5       1.0000 0.61740  0.44330  0.91140  Biso   1.000  N
  N6       1.0000 0.95710  0.18940  0.41460  Biso   1.000  N
  C16      1.0000 0.32030  0.65060  0.75290  Biso   1.000  C
  C17      1.0000 0.29400  0.73530  0.63250  Biso   1.000  C
  C18      1.0000 0.39070  0.81840  0.66900  Biso   1.000  C
  C19      1.0000 0.40230  0.85200  0.60480  Biso   1.000  C
  C20      1.0000 0.35720  0.92450  0.22120  Biso   1.000  C
  N7       1.0000 0.38260  0.55670  0.91140  Biso   1.000  N
  N8       1.0000 0.04290  0.81060  0.41460  Biso   1.000  N
  C21      1.0000 0.24710  0.32030  0.34940  Biso   1.000  C
  C22      1.0000 0.36750  0.29400  0.26470  Biso   1.000  C
  C23      1.0000 0.33100  0.39070  0.18160  Biso   1.000  C
  C24      1.0000 0.39520  0.40230  0.14800  Biso   1.000  C
  C25      1.0000 0.77880  0.35720  0.07550  Biso   1.000  C
  N9       1.0000 0.08860  0.38260  0.44330  Biso   1.000  N
  N10      1.0000 0.58540  0.04290  0.18940  Biso   1.000  N
  C26      1.0000 0.24710  0.67970  0.65060  Biso   1.000  C
  C27      1.0000 0.36750  0.70600  0.73530  Biso   1.000  C
  C28      1.0000 0.33100  0.60930  0.81840  Biso   1.000  C
  C29      1.0000 0.39520  0.59770  0.85200  Biso   1.000  C
  C30      1.0000 0.77880  0.64280  0.92450  Biso   1.000  C
  N11      1.0000 0.08860  0.61740  0.55670  Biso   1.000  N
  N12      1.0000 0.58540  0.95710  0.81060  Biso   1.000  N
  C31      1.0000 0.75290  0.67970  0.34940  Biso   1.000  C
  C32      1.0000 0.63250  0.70600  0.26470  Biso   1.000  C
  C33      1.0000 0.66900  0.60930  0.18160  Biso   1.000  C
  C34      1.0000 0.60480  0.59770  0.14800  Biso   1.000  C
  C35      1.0000 0.22120  0.64280  0.07550  Biso   1.000  C
  N13      1.0000 0.91140  0.61740  0.44330  Biso   1.000  N
  N14      1.0000 0.41460  0.95710  0.18940  Biso   1.000  N
  C36      1.0000 0.75290  0.32030  0.65060  Biso   1.000  C
  C37      1.0000 0.63250  0.29400  0.73530  Biso   1.000  C
  C38      1.0000 0.66900  0.39070  0.81840  Biso   1.000  C
  C39      1.0000 0.60480  0.40230  0.85200  Biso   1.000  C
  C40      1.0000 0.22120  0.35720  0.92450  Biso   1.000  C
  N15      1.0000 0.91140  0.38260  0.55670  Biso   1.000  N
  N16      1.0000 0.41460  0.04290  0.81060  Biso   1.000  N
  C41      1.0000 0.34940  0.24710  0.32030  Biso   1.000  C
  C42      1.0000 0.26470  0.36750  0.29400  Biso   1.000  C
  C43      1.0000 0.18160  0.33100  0.39070  Biso   1.000  C
  C44      1.0000 0.14800  0.39520  0.40230  Biso   1.000  C
  C45      1.0000 0.07550  0.77880  0.35720  Biso   1.000  C
  N17      1.0000 0.44330  0.08860  0.38260  Biso   1.000  N
  N18      1.0000 0.18940  0.58540  0.04290  Biso   1.000  N
  C46      1.0000 0.65060  0.24710  0.67970  Biso   1.000  C
  C47      1.0000 0.73530  0.36750  0.70600  Biso   1.000  C
  C48      1.0000 0.81840  0.33100  0.60930  Biso   1.000  C
  C49      1.0000 0.85200  0.39520  0.59770  Biso   1.000  C
  C50      1.0000 0.92450  0.77880  0.64280  Biso   1.000  C
  N19      1.0000 0.55670  0.08860  0.61740  Biso   1.000  N
  N20      1.0000 0.81060  0.58540  0.95710  Biso   1.000  N
  C51      1.0000 0.34940  0.75290  0.67970  Biso   1.000  C
  C52      1.0000 0.26470  0.63250  0.70600  Biso   1.000  C
  C53      1.0000 0.18160  0.66900  0.60930  Biso   1.000  C
  C54      1.0000 0.14800  0.60480  0.59770  Biso   1.000  C
  C55      1.0000 0.07550  0.22120  0.64280  Biso   1.000  C
  N21      1.0000 0.44330  0.91140  0.61740  Biso   1.000  N
  N22      1.0000 0.18940  0.41460  0.95710  Biso   1.000  N
  C56      1.0000 0.65060  0.75290  0.32030  Biso   1.000  C
  C57      1.0000 0.73530  0.63250  0.29400  Biso   1.000  C
  C58      1.0000 0.81840  0.66900  0.39070  Biso   1.000  C
  C59      1.0000 0.85200  0.60480  0.40230  Biso   1.000  C
  C60      1.0000 0.92450  0.22120  0.35720  Biso   1.000  C
  N23      1.0000 0.55670  0.91140  0.38260  Biso   1.000  N
  N24      1.0000 0.81060  0.41460  0.04290  Biso   1.000  N
  C61      1.0000 0.84940  0.82030  0.74710  Biso   1.000  C
  C62      1.0000 0.76470  0.79400  0.86750  Biso   1.000  C
  C63      1.0000 0.68160  0.89070  0.83100  Biso   1.000  C
  C64      1.0000 0.64800  0.90230  0.89520  Biso   1.000  C
  C65      1.0000 0.57550  0.85720  0.27880  Biso   1.000  C
  N25      1.0000 0.94330  0.88260  0.58860  Biso   1.000  N
  N26      1.0000 0.68940  0.54290  0.08540  Biso   1.000  N
  C66      1.0000 0.15060  0.17970  0.74710  Biso   1.000  C
  C67      1.0000 0.23530  0.20600  0.86750  Biso   1.000  C
  C68      1.0000 0.31840  0.10930  0.83100  Biso   1.000  C
  C69      1.0000 0.35200  0.09770  0.89520  Biso   1.000  C
  C70      1.0000 0.42450  0.14280  0.27880  Biso   1.000  C
  N27      1.0000 0.05670  0.11740  0.58860  Biso   1.000  N
  N28      1.0000 0.31060  0.45710  0.08540  Biso   1.000  N
  C71      1.0000 0.84940  0.17970  0.25290  Biso   1.000  C
  C72      1.0000 0.76470  0.20600  0.13250  Biso   1.000  C
  C73      1.0000 0.68160  0.10930  0.16900  Biso   1.000  C
  C74      1.0000 0.64800  0.09770  0.10480  Biso   1.000  C
  C75      1.0000 0.57550  0.14280  0.72120  Biso   1.000  C
  N29      1.0000 0.94330  0.11740  0.41140  Biso   1.000  N
  N30      1.0000 0.68940  0.45710  0.91460  Biso   1.000  N
  C76      1.0000 0.15060  0.82030  0.25290  Biso   1.000  C
  C77      1.0000 0.23530  0.79400  0.13250  Biso   1.000  C
  C78      1.0000 0.31840  0.89070  0.16900  Biso   1.000  C
  C79      1.0000 0.35200  0.90230  0.10480  Biso   1.000  C
  C80      1.0000 0.42450  0.85720  0.72120  Biso   1.000  C
  N31      1.0000 0.05670  0.88260  0.41140  Biso   1.000  N
  N32      1.0000 0.31060  0.54290  0.91460  Biso   1.000  N
  C81      1.0000 0.82030  0.74710  0.84940  Biso   1.000  C
  C82      1.0000 0.79400  0.86750  0.76470  Biso   1.000  C
  C83      1.0000 0.89070  0.83100  0.68160  Biso   1.000  C
  C84      1.0000 0.90230  0.89520  0.64800  Biso   1.000  C
  C85      1.0000 0.85720  0.27880  0.57550  Biso   1.000  C
  N33      1.0000 0.88260  0.58860  0.94330  Biso   1.000  N
  N34      1.0000 0.54290  0.08540  0.68940  Biso   1.000  N
  C86      1.0000 0.17970  0.74710  0.15060  Biso   1.000  C
  C87      1.0000 0.20600  0.86750  0.23530  Biso   1.000  C
  C88      1.0000 0.10930  0.83100  0.31840  Biso   1.000  C
  C89      1.0000 0.09770  0.89520  0.35200  Biso   1.000  C
  C90      1.0000 0.14280  0.27880  0.42450  Biso   1.000  C
  N35      1.0000 0.11740  0.58860  0.05670  Biso   1.000  N
  N36      1.0000 0.45710  0.08540  0.31060  Biso   1.000  N
  C91      1.0000 0.17970  0.25290  0.84940  Biso   1.000  C
  C92      1.0000 0.20600  0.13250  0.76470  Biso   1.000  C
  C93      1.0000 0.10930  0.16900  0.68160  Biso   1.000  C
  C94      1.0000 0.09770  0.10480  0.64800  Biso   1.000  C
  C95      1.0000 0.14280  0.72120  0.57550  Biso   1.000  C
  N37      1.0000 0.11740  0.41140  0.94330  Biso   1.000  N
  N38      1.0000 0.45710  0.91460  0.68940  Biso   1.000  N
  C96      1.0000 0.82030  0.25290  0.15060  Biso   1.000  C
  C97      1.0000 0.79400  0.13250  0.23530  Biso   1.000  C
  C98      1.0000 0.89070  0.16900  0.31840  Biso   1.000  C
  C99      1.0000 0.90230  0.10480  0.35200  Biso   1.000  C
  C100     1.0000 0.85720  0.72120  0.42450  Biso   1.000  C
  N39      1.0000 0.88260  0.41140  0.05670  Biso   1.000  N
  N40      1.0000 0.54290  0.91460  0.31060  Biso   1.000  N
  C101     1.0000 0.74710  0.84940  0.82030  Biso   1.000  C
  C102     1.0000 0.86750  0.76470  0.79400  Biso   1.000  C
  C103     1.0000 0.83100  0.68160  0.89070  Biso   1.000  C
  C104     1.0000 0.89520  0.64800  0.90230  Biso   1.000  C
  C105     1.0000 0.27880  0.57550  0.85720  Biso   1.000  C
  N41      1.0000 0.58860  0.94330  0.88260  Biso   1.000  N
  N42      1.0000 0.08540  0.68940  0.54290  Biso   1.000  N
  C106     1.0000 0.74710  0.15060  0.17970  Biso   1.000  C
  C107     1.0000 0.86750  0.23530  0.20600  Biso   1.000  C
  C108     1.0000 0.83100  0.31840  0.10930  Biso   1.000  C
  C109     1.0000 0.89520  0.35200  0.09770  Biso   1.000  C
  C110     1.0000 0.27880  0.42450  0.14280  Biso   1.000  C
  N43      1.0000 0.58860  0.05670  0.11740  Biso   1.000  N
  N44      1.0000 0.08540  0.31060  0.45710  Biso   1.000  N
  C111     1.0000 0.25290  0.84940  0.17970  Biso   1.000  C
  C112     1.0000 0.13250  0.76470  0.20600  Biso   1.000  C
  C113     1.0000 0.16900  0.68160  0.10930  Biso   1.000  C
  C114     1.0000 0.10480  0.64800  0.09770  Biso   1.000  C
  C115     1.0000 0.72120  0.57550  0.14280  Biso   1.000  C
  N45      1.0000 0.41140  0.94330  0.11740  Biso   1.000  N
  N46      1.0000 0.91460  0.68940  0.45710  Biso   1.000  N
  C116     1.0000 0.25290  0.15060  0.82030  Biso   1.000  C
  C117     1.0000 0.13250  0.23530  0.79400  Biso   1.000  C
  C118     1.0000 0.16900  0.31840  0.89070  Biso   1.000  C
  C119     1.0000 0.10480  0.35200  0.90230  Biso   1.000  C
  C120     1.0000 0.72120  0.42450  0.85720  Biso   1.000  C
  N47      1.0000 0.41140  0.05670  0.88260  Biso   1.000  N
  N48      1.0000 0.91460  0.31060  0.54290  Biso   1.000  N
  O1       1.0000 0.57000  0.00000  0.50000  Biso   1.000  O
  O2       1.0000 0.43000  0.00000  0.50000  Biso   1.000  O
  O3       1.0000 0.50000  0.57000  0.00000  Biso   1.000  O
  O4       1.0000 0.50000  0.43000  0.00000  Biso   1.000  O
  O5       1.0000 0.00000  0.50000  0.57000  Biso   1.000  O
  O6       1.0000 0.00000  0.50000  0.43000  Biso   1.000  O
  O7       1.0000 0.50000  0.07000  0.00000  Biso   1.000  O
  O8       1.0000 0.50000  0.93000  0.00000  Biso   1.000  O
  O9       1.0000 0.07000  0.00000  0.50000  Biso   1.000  O
  O10      1.0000 0.93000  0.00000  0.50000  Biso   1.000  O
  O11      1.0000 0.00000  0.50000  0.07000  Biso   1.000  O
  O12      1.0000 0.00000  0.50000  0.93000  Biso   1.000  O
  Zn1      1.0000 0.50000  0.00000  0.42000  Biso   1.000  Zn
  Zn2      1.0000 0.50000  0.00000  0.58000  Biso   1.000  Zn
  Zn3      1.0000 0.42000  0.50000  0.00000  Biso   1.000  Zn
  Zn4      1.0000 0.58000  0.50000  0.00000  Biso   1.000  Zn
  Zn5      1.0000 0.00000  0.42000  0.50000  Biso   1.000  Zn
  Zn6      1.0000 0.00000  0.58000  0.50000  Biso   1.000  Zn
  Zn7      1.0000 0.50000  0.00000  0.92000  Biso   1.000  Zn
  Zn8      1.0000 0.50000  0.00000  0.08000  Biso   1.000  Zn
  Zn9      1.0000 0.00000  0.92000  0.50000  Biso   1.000  Zn
  Zn10     1.0000 0.00000  0.08000  0.50000  Biso   1.000  Zn
  Zn11     1.0000 0.92000  0.50000  0.00000  Biso   1.000  Zn
  Zn12     1.0000 0.08000  0.50000  0.00000  Biso   1.000  Zn
  Zn13     1.0000 0.00000  0.25000  0.50000  Biso   1.000  Zn
  Zn14     1.0000 0.00000  0.75000  0.50000  Biso   1.000  Zn
  Zn15     1.0000 0.50000  0.00000  0.25000  Biso   1.000  Zn
  Zn16     1.0000 0.50000  0.00000  0.75000  Biso   1.000  Zn
  Zn17     1.0000 0.25000  0.50000  0.00000  Biso   1.000  Zn
  Zn18     1.0000 0.75000  0.50000  0.00000  Biso   1.000  Zn
