data_image0
_cell_length_a       14.8273
_cell_length_b       14.8273
_cell_length_c       20.9174
_cell_angle_alpha    90
_cell_angle_beta     90
_cell_angle_gamma    90

_symmetry_space_group_name_H-M    "P 1"
_symmetry_int_tables_number       1

loop_
  _symmetry_equiv_pos_as_xyz
  'x, y, z'

loop_
  _atom_site_label
  _atom_site_occupancy
  _atom_site_fract_x
  _atom_site_fract_y
  _atom_site_fract_z
  _atom_site_thermal_displace_type
  _atom_site_B_iso_or_equiv
  _atom_site_type_symbol
  C1       1.0000 0.84640  0.15970  0.15010  Biso   1.000  C
  C2       1.0000 0.28940  0.70090  0.29890  Biso   1.000  C
  C3       1.0000 0.27550  0.73470  0.81380  Biso   1.000  C
  C4       1.0000 0.41880  0.04690  0.50790  Biso   1.000  C
  C5       1.0000 0.30940  0.31980  0.23530  Biso   1.000  C
  H1       1.0000 0.08460  0.64410  0.49220  Biso   1.000  H
  H2       1.0000 0.86030  0.87070  0.72570  Biso   1.000  H
  H3       1.0000 0.27980  0.28980  0.13630  Biso   1.000  H
  O1       1.0000 0.40290  0.60230  0.66930  Biso   1.000  O
  O2       1.0000 0.76500  0.42420  0.49590  Biso   1.000  O
  O3       1.0000 0.67270  0.67470  0.59220  Biso   1.000  O
  C6       1.0000 0.34640  0.65970  0.65010  Biso   1.000  C
  C7       1.0000 0.78940  0.20090  0.79890  Biso   1.000  C
  C8       1.0000 0.77550  0.23470  0.31380  Biso   1.000  C
  C9       1.0000 0.91880  0.54690  0.00790  Biso   1.000  C
  C10      1.0000 0.80940  0.81980  0.73530  Biso   1.000  C
  H4       1.0000 0.58460  0.14410  0.99220  Biso   1.000  H
  H5       1.0000 0.36030  0.37070  0.22570  Biso   1.000  H
  H6       1.0000 0.77980  0.78980  0.63630  Biso   1.000  H
  O4       1.0000 0.90290  0.10230  0.16930  Biso   1.000  O
  O5       1.0000 0.26500  0.92420  0.99590  Biso   1.000  O
  O6       1.0000 0.17270  0.17470  0.09220  Biso   1.000  O
  C11      1.0000 0.15360  0.84030  0.15010  Biso   1.000  C
  C12      1.0000 0.71060  0.29910  0.29890  Biso   1.000  C
  C13      1.0000 0.72450  0.26530  0.81380  Biso   1.000  C
  C14      1.0000 0.58120  0.95310  0.50790  Biso   1.000  C
  C15      1.0000 0.69060  0.68020  0.23530  Biso   1.000  C
  H7       1.0000 0.91540  0.35590  0.49220  Biso   1.000  H
  H8       1.0000 0.13970  0.12930  0.72570  Biso   1.000  H
  H9       1.0000 0.72020  0.71020  0.13630  Biso   1.000  H
  O7       1.0000 0.59710  0.39770  0.66930  Biso   1.000  O
  O8       1.0000 0.23500  0.57580  0.49590  Biso   1.000  O
  O9       1.0000 0.32730  0.32530  0.59220  Biso   1.000  O
  C16      1.0000 0.65360  0.34030  0.65010  Biso   1.000  C
  C17      1.0000 0.21060  0.79910  0.79890  Biso   1.000  C
  C18      1.0000 0.22450  0.76530  0.31380  Biso   1.000  C
  C19      1.0000 0.08120  0.45310  0.00790  Biso   1.000  C
  C20      1.0000 0.19060  0.18020  0.73530  Biso   1.000  C
  H10      1.0000 0.41540  0.85590  0.99220  Biso   1.000  H
  H11      1.0000 0.63970  0.62930  0.22570  Biso   1.000  H
  H12      1.0000 0.22020  0.21020  0.63630  Biso   1.000  H
  O10      1.0000 0.09710  0.89770  0.16930  Biso   1.000  O
  O11      1.0000 0.73500  0.07580  0.99590  Biso   1.000  O
  O12      1.0000 0.82730  0.82530  0.09220  Biso   1.000  O
  C21      1.0000 0.15970  0.15360  0.84990  Biso   1.000  C
  C22      1.0000 0.70090  0.71060  0.70110  Biso   1.000  C
  C23      1.0000 0.73470  0.72450  0.18620  Biso   1.000  C
  C24      1.0000 0.04690  0.58120  0.49210  Biso   1.000  C
  C25      1.0000 0.31980  0.69060  0.76470  Biso   1.000  C
  H13      1.0000 0.64410  0.91540  0.50780  Biso   1.000  H
  H14      1.0000 0.87070  0.13970  0.27430  Biso   1.000  H
  H15      1.0000 0.28980  0.72020  0.86370  Biso   1.000  H
  O13      1.0000 0.60230  0.59710  0.33070  Biso   1.000  O
  O14      1.0000 0.42420  0.23500  0.50410  Biso   1.000  O
  O15      1.0000 0.67470  0.32730  0.40780  Biso   1.000  O
  C26      1.0000 0.65970  0.65360  0.34990  Biso   1.000  C
  C27      1.0000 0.20090  0.21060  0.20110  Biso   1.000  C
  C28      1.0000 0.23470  0.22450  0.68620  Biso   1.000  C
  C29      1.0000 0.54690  0.08120  0.99210  Biso   1.000  C
  C30      1.0000 0.81980  0.19060  0.26470  Biso   1.000  C
  H16      1.0000 0.14410  0.41540  0.00780  Biso   1.000  H
  H17      1.0000 0.37070  0.63970  0.77430  Biso   1.000  H
  H18      1.0000 0.78980  0.22020  0.36370  Biso   1.000  H
  O16      1.0000 0.10230  0.09710  0.83070  Biso   1.000  O
  O17      1.0000 0.92420  0.73500  0.00410  Biso   1.000  O
  O18      1.0000 0.17470  0.82730  0.90780  Biso   1.000  O
  C31      1.0000 0.84030  0.84640  0.84990  Biso   1.000  C
  C32      1.0000 0.29910  0.28940  0.70110  Biso   1.000  C
  C33      1.0000 0.26530  0.27550  0.18620  Biso   1.000  C
  C34      1.0000 0.95310  0.41880  0.49210  Biso   1.000  C
  C35      1.0000 0.68020  0.30940  0.76470  Biso   1.000  C
  H19      1.0000 0.35590  0.08460  0.50780  Biso   1.000  H
  H20      1.0000 0.12930  0.86030  0.27430  Biso   1.000  H
  H21      1.0000 0.71020  0.27980  0.86370  Biso   1.000  H
  O19      1.0000 0.39770  0.40290  0.33070  Biso   1.000  O
  O20      1.0000 0.57580  0.76500  0.50410  Biso   1.000  O
  O21      1.0000 0.32530  0.67270  0.40780  Biso   1.000  O
  C36      1.0000 0.34030  0.34640  0.34990  Biso   1.000  C
  C37      1.0000 0.79910  0.78940  0.20110  Biso   1.000  C
  C38      1.0000 0.76530  0.77550  0.68620  Biso   1.000  C
  C39      1.0000 0.45310  0.91880  0.99210  Biso   1.000  C
  C40      1.0000 0.18020  0.80940  0.26470  Biso   1.000  C
  H22      1.0000 0.85590  0.58460  0.00780  Biso   1.000  H
  H23      1.0000 0.62930  0.36030  0.77430  Biso   1.000  H
  H24      1.0000 0.21020  0.77980  0.36370  Biso   1.000  H
  O22      1.0000 0.89770  0.90290  0.83070  Biso   1.000  O
  O23      1.0000 0.07580  0.26500  0.00410  Biso   1.000  O
  O24      1.0000 0.82530  0.17270  0.90780  Biso   1.000  O
  C41      1.0000 0.84640  0.84030  0.15010  Biso   1.000  C
  C42      1.0000 0.28940  0.29910  0.29890  Biso   1.000  C
  C43      1.0000 0.27550  0.26530  0.81380  Biso   1.000  C
  C44      1.0000 0.41880  0.95310  0.50790  Biso   1.000  C
  C45      1.0000 0.30940  0.68020  0.23530  Biso   1.000  C
  H25      1.0000 0.08460  0.35590  0.49220  Biso   1.000  H
  H26      1.0000 0.86030  0.12930  0.72570  Biso   1.000  H
  H27      1.0000 0.27980  0.71020  0.13630  Biso   1.000  H
  O25      1.0000 0.40290  0.39770  0.66930  Biso   1.000  O
  O26      1.0000 0.76500  0.57580  0.49590  Biso   1.000  O
  O27      1.0000 0.67270  0.32530  0.59220  Biso   1.000  O
  C46      1.0000 0.34640  0.34030  0.65010  Biso   1.000  C
  C47      1.0000 0.78940  0.79910  0.79890  Biso   1.000  C
  C48      1.0000 0.77550  0.76530  0.31380  Biso   1.000  C
  C49      1.0000 0.91880  0.45310  0.00790  Biso   1.000  C
  C50      1.0000 0.80940  0.18020  0.73530  Biso   1.000  C
  H28      1.0000 0.58460  0.85590  0.99220  Biso   1.000  H
  H29      1.0000 0.36030  0.62930  0.22570  Biso   1.000  H
  H30      1.0000 0.77980  0.21020  0.63630  Biso   1.000  H
  O28      1.0000 0.90290  0.89770  0.16930  Biso   1.000  O
  O29      1.0000 0.26500  0.07580  0.99590  Biso   1.000  O
  O30      1.0000 0.17270  0.82530  0.09220  Biso   1.000  O
  C51      1.0000 0.15360  0.15970  0.15010  Biso   1.000  C
  C52      1.0000 0.71060  0.70090  0.29890  Biso   1.000  C
  C53      1.0000 0.72450  0.73470  0.81380  Biso   1.000  C
  C54      1.0000 0.58120  0.04690  0.50790  Biso   1.000  C
  C55      1.0000 0.69060  0.31980  0.23530  Biso   1.000  C
  H31      1.0000 0.91540  0.64410  0.49220  Biso   1.000  H
  H32      1.0000 0.13970  0.87070  0.72570  Biso   1.000  H
  H33      1.0000 0.72020  0.28980  0.13630  Biso   1.000  H
  O31      1.0000 0.59710  0.60230  0.66930  Biso   1.000  O
  O32      1.0000 0.23500  0.42420  0.49590  Biso   1.000  O
  O33      1.0000 0.32730  0.67470  0.59220  Biso   1.000  O
  C56      1.0000 0.65360  0.65970  0.65010  Biso   1.000  C
  C57      1.0000 0.21060  0.20090  0.79890  Biso   1.000  C
  C58      1.0000 0.22450  0.23470  0.31380  Biso   1.000  C
  C59      1.0000 0.08120  0.54690  0.00790  Biso   1.000  C
  C60      1.0000 0.19060  0.81980  0.73530  Biso   1.000  C
  H34      1.0000 0.41540  0.14410  0.99220  Biso   1.000  H
  H35      1.0000 0.63970  0.37070  0.22570  Biso   1.000  H
  H36      1.0000 0.22020  0.78980  0.63630  Biso   1.000  H
  O34      1.0000 0.09710  0.10230  0.16930  Biso   1.000  O
  O35      1.0000 0.73500  0.92420  0.99590  Biso   1.000  O
  O36      1.0000 0.82730  0.17470  0.09220  Biso   1.000  O
  C61      1.0000 0.15970  0.84640  0.84990  Biso   1.000  C
  C62      1.0000 0.70090  0.28940  0.70110  Biso   1.000  C
  C63      1.0000 0.73470  0.27550  0.18620  Biso   1.000  C
  C64      1.0000 0.04690  0.41880  0.49210  Biso   1.000  C
  C65      1.0000 0.31980  0.30940  0.76470  Biso   1.000  C
  H37      1.0000 0.64410  0.08460  0.50780  Biso   1.000  H
  H38      1.0000 0.87070  0.86030  0.27430  Biso   1.000  H
  H39      1.0000 0.28980  0.27980  0.86370  Biso   1.000  H
  O37      1.0000 0.60230  0.40290  0.33070  Biso   1.000  O
  O38      1.0000 0.42420  0.76500  0.50410  Biso   1.000  O
  O39      1.0000 0.67470  0.67270  0.40780  Biso   1.000  O
  C66      1.0000 0.65970  0.34640  0.34990  Biso   1.000  C
  C67      1.0000 0.20090  0.78940  0.20110  Biso   1.000  C
  C68      1.0000 0.23470  0.77550  0.68620  Biso   1.000  C
  C69      1.0000 0.54690  0.91880  0.99210  Biso   1.000  C
  C70      1.0000 0.81980  0.80940  0.26470  Biso   1.000  C
  H40      1.0000 0.14410  0.58460  0.00780  Biso   1.000  H
  H41      1.0000 0.37070  0.36030  0.77430  Biso   1.000  H
  H42      1.0000 0.78980  0.77980  0.36370  Biso   1.000  H
  O40      1.0000 0.10230  0.90290  0.83070  Biso   1.000  O
  O41      1.0000 0.92420  0.26500  0.00410  Biso   1.000  O
  O42      1.0000 0.17470  0.17270  0.90780  Biso   1.000  O
  C71      1.0000 0.84030  0.15360  0.84990  Biso   1.000  C
  C72      1.0000 0.29910  0.71060  0.70110  Biso   1.000  C
  C73      1.0000 0.26530  0.72450  0.18620  Biso   1.000  C
  C74      1.0000 0.95310  0.58120  0.49210  Biso   1.000  C
  C75      1.0000 0.68020  0.69060  0.76470  Biso   1.000  C
  H43      1.0000 0.35590  0.91540  0.50780  Biso   1.000  H
  H44      1.0000 0.12930  0.13970  0.27430  Biso   1.000  H
  H45      1.0000 0.71020  0.72020  0.86370  Biso   1.000  H
  O43      1.0000 0.39770  0.59710  0.33070  Biso   1.000  O
  O44      1.0000 0.57580  0.23500  0.50410  Biso   1.000  O
  O45      1.0000 0.32530  0.32730  0.40780  Biso   1.000  O
  C76      1.0000 0.34030  0.65360  0.34990  Biso   1.000  C
  C77      1.0000 0.79910  0.21060  0.20110  Biso   1.000  C
  C78      1.0000 0.76530  0.22450  0.68620  Biso   1.000  C
  C79      1.0000 0.45310  0.08120  0.99210  Biso   1.000  C
  C80      1.0000 0.18020  0.19060  0.26470  Biso   1.000  C
  H46      1.0000 0.85590  0.41540  0.00780  Biso   1.000  H
  H47      1.0000 0.62930  0.63970  0.77430  Biso   1.000  H
  H48      1.0000 0.21020  0.22020  0.36370  Biso   1.000  H
  O46      1.0000 0.89770  0.09710  0.83070  Biso   1.000  O
  O47      1.0000 0.07580  0.73500  0.00410  Biso   1.000  O
  O48      1.0000 0.82530  0.82730  0.90780  Biso   1.000  O
  C81      1.0000 0.50000  0.09450  0.50760  Biso   1.000  C
  C82      1.0000 0.00000  0.59450  0.00760  Biso   1.000  C
  C83      1.0000 0.50000  0.90550  0.50760  Biso   1.000  C
  C84      1.0000 0.00000  0.40550  0.00760  Biso   1.000  C
  C85      1.0000 0.09450  0.50000  0.49240  Biso   1.000  C
  C86      1.0000 0.59450  0.00000  0.99240  Biso   1.000  C
  C87      1.0000 0.90550  0.50000  0.49240  Biso   1.000  C
  C88      1.0000 0.40550  0.00000  0.99240  Biso   1.000  C
  C89      1.0000 0.19590  0.50000  0.49440  Biso   1.000  C
  O49      1.0000 0.39960  0.50000  0.45140  Biso   1.000  O
  O50      1.0000 0.36250  0.50000  0.56550  Biso   1.000  O
  C90      1.0000 0.69590  0.00000  0.99440  Biso   1.000  C
  O51      1.0000 0.89960  0.00000  0.95140  Biso   1.000  O
  O52      1.0000 0.86250  0.00000  0.06550  Biso   1.000  O
  C91      1.0000 0.80410  0.50000  0.49440  Biso   1.000  C
  O53      1.0000 0.60040  0.50000  0.45140  Biso   1.000  O
  O54      1.0000 0.63750  0.50000  0.56550  Biso   1.000  O
  C92      1.0000 0.30410  0.00000  0.99440  Biso   1.000  C
  O55      1.0000 0.10040  0.00000  0.95140  Biso   1.000  O
  O56      1.0000 0.13750  0.00000  0.06550  Biso   1.000  O
  C93      1.0000 0.50000  0.80410  0.50560  Biso   1.000  C
  O57      1.0000 0.50000  0.60040  0.54860  Biso   1.000  O
  O58      1.0000 0.50000  0.63750  0.43450  Biso   1.000  O
  C94      1.0000 0.00000  0.30410  0.00560  Biso   1.000  C
  O59      1.0000 0.00000  0.10040  0.04860  Biso   1.000  O
  O60      1.0000 0.00000  0.13750  0.93450  Biso   1.000  O
  C95      1.0000 0.50000  0.19590  0.50560  Biso   1.000  C
  O61      1.0000 0.50000  0.39960  0.54860  Biso   1.000  O
  O62      1.0000 0.50000  0.36250  0.43450  Biso   1.000  O
  C96      1.0000 0.00000  0.69590  0.00560  Biso   1.000  C
  O63      1.0000 0.00000  0.89960  0.04860  Biso   1.000  O
  O64      1.0000 0.00000  0.86250  0.93450  Biso   1.000  O
  Ce1      1.0000 0.00000  0.00000  0.87590  Biso   1.000  Ce
  Ce2      1.0000 0.50000  0.50000  0.37590  Biso   1.000  Ce
  Ce3      1.0000 0.00000  0.00000  0.12410  Biso   1.000  Ce
  Ce4      1.0000 0.50000  0.50000  0.62410  Biso   1.000  Ce
  H49      1.0000 0.00000  0.80760  0.90980  Biso   1.000  H
  H50      1.0000 0.50000  0.30760  0.40980  Biso   1.000  H
  H51      1.0000 0.00000  0.19240  0.90980  Biso   1.000  H
  H52      1.0000 0.50000  0.69240  0.40980  Biso   1.000  H
  H53      1.0000 0.80760  0.00000  0.09020  Biso   1.000  H
  H54      1.0000 0.30760  0.50000  0.59020  Biso   1.000  H
  H55      1.0000 0.19240  0.00000  0.09020  Biso   1.000  H
  H56      1.0000 0.69240  0.50000  0.59020  Biso   1.000  H
  Zr1      1.0000 0.38010  0.38010  0.50000  Biso   1.000  Zr
  Zr2      1.0000 0.88010  0.88010  0.00000  Biso   1.000  Zr
  Zr3      1.0000 0.61990  0.61990  0.50000  Biso   1.000  Zr
  Zr4      1.0000 0.11990  0.11990  0.00000  Biso   1.000  Zr
  Zr5      1.0000 0.38010  0.61990  0.50000  Biso   1.000  Zr
  Zr6      1.0000 0.88010  0.11990  0.00000  Biso   1.000  Zr
  Zr7      1.0000 0.61990  0.38010  0.50000  Biso   1.000  Zr
  Zr8      1.0000 0.11990  0.88010  0.00000  Biso   1.000  Zr
