data_image0
_cell_length_a       25.0141
_cell_length_b       21.2383
_cell_length_c       10.0324
_cell_angle_alpha    90
_cell_angle_beta     97.166
_cell_angle_gamma    90

_symmetry_space_group_name_H-M    "P 1"
_symmetry_int_tables_number       1

loop_
  _symmetry_equiv_pos_as_xyz
  'x, y, z'

loop_
  _atom_site_label
  _atom_site_occupancy
  _atom_site_fract_x
  _atom_site_fract_y
  _atom_site_fract_z
  _atom_site_thermal_displace_type
  _atom_site_B_iso_or_equiv
  _atom_site_type_symbol
  C1       1.0000 0.28800  0.17220  0.09820  Biso   1.000  C
  C2       1.0000 0.27190  0.13340  0.97510  Biso   1.000  C
  C3       1.0000 0.25790  0.16510  0.85540  Biso   1.000  C
  H1       1.0000 0.25980  0.20976  0.85455  Biso   1.000  H
  C4       1.0000 0.24100  0.13350  0.73650  Biso   1.000  C
  C5       1.0000 0.22630  0.17380  0.61460  Biso   1.000  C
  C6       1.0000 0.23990  0.06720  0.73400  Biso   1.000  C
  C7       1.0000 0.22320  0.03160  0.61360  Biso   1.000  C
  H2       1.0000 0.21195  0.05343  0.53229  Biso   1.000  H
  C8       1.0000 0.28430  0.03190  0.09860  Biso   1.000  C
  H3       1.0000 0.29428  0.05366  0.18064  Biso   1.000  H
  C9       1.0000 0.26990  0.06700  0.97950  Biso   1.000  C
  C10      1.0000 0.25430  0.03380  0.85630  Biso   1.000  C
  C11      1.0000 0.40620  0.17200  0.38810  Biso   1.000  C
  C12      1.0000 0.45480  0.13320  0.44270  Biso   1.000  C
  C13      1.0000 0.40850  0.03190  0.37810  Biso   1.000  C
  H4       1.0000 0.37784  0.05379  0.33569  Biso   1.000  H
  C14      1.0000 0.45380  0.06730  0.44080  Biso   1.000  C
  C15      1.0000 0.39710  0.38400  0.23210  Biso   1.000  C
  C16      1.0000 0.41990  0.44290  0.17850  Biso   1.000  C
  C17      1.0000 0.48050  0.38430  0.04050  Biso   1.000  C
  H5       1.0000 0.46630  0.34533  0.06685  Biso   1.000  H
  C18      1.0000 0.45990  0.44190  0.08740  Biso   1.000  C
  Li1      1.0000 0.28830  0.18490  0.38530  Biso   1.000  Li
  O1       1.0000 0.32232  0.21496  0.08730  Biso   1.000  O
  O2       1.0000 0.26580  0.16183  0.20190  Biso   1.000  O
  O3       1.0000 0.19836  0.22332  0.63080  Biso   1.000  O
  O4       1.0000 0.24247  0.16055  0.50670  Biso   1.000  O
  O5       1.0000 0.41611  0.22117  0.32380  Biso   1.000  O
  O6       1.0000 0.36092  0.15550  0.40980  Biso   1.000  O
  O7       1.0000 0.38035  0.34161  0.14600  Biso   1.000  O
  O8       1.0000 0.39470  0.37890  0.35310  Biso   1.000  O
  Zn1      1.0000 0.35423  0.26896  0.23699  Biso   1.000  Zn
  C19      1.0000 0.78800  0.67220  0.09820  Biso   1.000  C
  C20      1.0000 0.77190  0.63340  0.97510  Biso   1.000  C
  C21      1.0000 0.75790  0.66510  0.85540  Biso   1.000  C
  H6       1.0000 0.75980  0.70976  0.85455  Biso   1.000  H
  C22      1.0000 0.74100  0.63350  0.73650  Biso   1.000  C
  C23      1.0000 0.72630  0.67380  0.61460  Biso   1.000  C
  C24      1.0000 0.73990  0.56720  0.73400  Biso   1.000  C
  C25      1.0000 0.72320  0.53160  0.61360  Biso   1.000  C
  H7       1.0000 0.71195  0.55343  0.53229  Biso   1.000  H
  C26      1.0000 0.78430  0.53190  0.09860  Biso   1.000  C
  H8       1.0000 0.79428  0.55366  0.18064  Biso   1.000  H
  C27      1.0000 0.76990  0.56700  0.97950  Biso   1.000  C
  C28      1.0000 0.75430  0.53380  0.85630  Biso   1.000  C
  C29      1.0000 0.90620  0.67200  0.38810  Biso   1.000  C
  C30      1.0000 0.95480  0.63320  0.44270  Biso   1.000  C
  C31      1.0000 0.90850  0.53190  0.37810  Biso   1.000  C
  H9       1.0000 0.87784  0.55379  0.33569  Biso   1.000  H
  C32      1.0000 0.95380  0.56730  0.44080  Biso   1.000  C
  C33      1.0000 0.89710  0.88400  0.23210  Biso   1.000  C
  C34      1.0000 0.91990  0.94290  0.17850  Biso   1.000  C
  C35      1.0000 0.98050  0.88430  0.04050  Biso   1.000  C
  H10      1.0000 0.96630  0.84533  0.06685  Biso   1.000  H
  C36      1.0000 0.95990  0.94190  0.08740  Biso   1.000  C
  Li2      1.0000 0.78830  0.68490  0.38530  Biso   1.000  Li
  O9       1.0000 0.82232  0.71496  0.08730  Biso   1.000  O
  O10      1.0000 0.76580  0.66183  0.20190  Biso   1.000  O
  O11      1.0000 0.69836  0.72332  0.63080  Biso   1.000  O
  O12      1.0000 0.74247  0.66055  0.50670  Biso   1.000  O
  O13      1.0000 0.91611  0.72117  0.32380  Biso   1.000  O
  O14      1.0000 0.86092  0.65550  0.40980  Biso   1.000  O
  O15      1.0000 0.88035  0.84161  0.14600  Biso   1.000  O
  O16      1.0000 0.89470  0.87890  0.35310  Biso   1.000  O
  Zn2      1.0000 0.85423  0.76896  0.23699  Biso   1.000  Zn
  C37      1.0000 0.71200  0.17220  0.90180  Biso   1.000  C
  C38      1.0000 0.72810  0.13340  0.02490  Biso   1.000  C
  C39      1.0000 0.74210  0.16510  0.14460  Biso   1.000  C
  H11      1.0000 0.74020  0.20976  0.14545  Biso   1.000  H
  C40      1.0000 0.75900  0.13350  0.26350  Biso   1.000  C
  C41      1.0000 0.77370  0.17380  0.38540  Biso   1.000  C
  C42      1.0000 0.76010  0.06720  0.26600  Biso   1.000  C
  C43      1.0000 0.77680  0.03160  0.38640  Biso   1.000  C
  H12      1.0000 0.78805  0.05343  0.46771  Biso   1.000  H
  C44      1.0000 0.71570  0.03190  0.90140  Biso   1.000  C
  H13      1.0000 0.70572  0.05366  0.81936  Biso   1.000  H
  C45      1.0000 0.73010  0.06700  0.02050  Biso   1.000  C
  C46      1.0000 0.74570  0.03380  0.14370  Biso   1.000  C
  C47      1.0000 0.59380  0.17200  0.61190  Biso   1.000  C
  C48      1.0000 0.54520  0.13320  0.55730  Biso   1.000  C
  C49      1.0000 0.59150  0.03190  0.62190  Biso   1.000  C
  H14      1.0000 0.62216  0.05379  0.66431  Biso   1.000  H
  C50      1.0000 0.54620  0.06730  0.55920  Biso   1.000  C
  C51      1.0000 0.60290  0.38400  0.76790  Biso   1.000  C
  C52      1.0000 0.58010  0.44290  0.82150  Biso   1.000  C
  C53      1.0000 0.51950  0.38430  0.95950  Biso   1.000  C
  H15      1.0000 0.53370  0.34533  0.93315  Biso   1.000  H
  C54      1.0000 0.54010  0.44190  0.91260  Biso   1.000  C
  Li3      1.0000 0.71170  0.18490  0.61470  Biso   1.000  Li
  O17      1.0000 0.67768  0.21496  0.91270  Biso   1.000  O
  O18      1.0000 0.73420  0.16183  0.79810  Biso   1.000  O
  O19      1.0000 0.80164  0.22332  0.36920  Biso   1.000  O
  O20      1.0000 0.75753  0.16055  0.49330  Biso   1.000  O
  O21      1.0000 0.58389  0.22117  0.67620  Biso   1.000  O
  O22      1.0000 0.63908  0.15550  0.59020  Biso   1.000  O
  O23      1.0000 0.61965  0.34161  0.85400  Biso   1.000  O
  O24      1.0000 0.60530  0.37890  0.64690  Biso   1.000  O
  Zn3      1.0000 0.64577  0.26896  0.76301  Biso   1.000  Zn
  C55      1.0000 0.21200  0.67220  0.90180  Biso   1.000  C
  C56      1.0000 0.22810  0.63340  0.02490  Biso   1.000  C
  C57      1.0000 0.24210  0.66510  0.14460  Biso   1.000  C
  H16      1.0000 0.24020  0.70976  0.14545  Biso   1.000  H
  C58      1.0000 0.25900  0.63350  0.26350  Biso   1.000  C
  C59      1.0000 0.27370  0.67380  0.38540  Biso   1.000  C
  C60      1.0000 0.26010  0.56720  0.26600  Biso   1.000  C
  C61      1.0000 0.27680  0.53160  0.38640  Biso   1.000  C
  H17      1.0000 0.28805  0.55343  0.46771  Biso   1.000  H
  C62      1.0000 0.21570  0.53190  0.90140  Biso   1.000  C
  H18      1.0000 0.20572  0.55366  0.81936  Biso   1.000  H
  C63      1.0000 0.23010  0.56700  0.02050  Biso   1.000  C
  C64      1.0000 0.24570  0.53380  0.14370  Biso   1.000  C
  C65      1.0000 0.09380  0.67200  0.61190  Biso   1.000  C
  C66      1.0000 0.04520  0.63320  0.55730  Biso   1.000  C
  C67      1.0000 0.09150  0.53190  0.62190  Biso   1.000  C
  H19      1.0000 0.12216  0.55379  0.66431  Biso   1.000  H
  C68      1.0000 0.04620  0.56730  0.55920  Biso   1.000  C
  C69      1.0000 0.10290  0.88400  0.76790  Biso   1.000  C
  C70      1.0000 0.08010  0.94290  0.82150  Biso   1.000  C
  C71      1.0000 0.01950  0.88430  0.95950  Biso   1.000  C
  H20      1.0000 0.03370  0.84533  0.93315  Biso   1.000  H
  C72      1.0000 0.04010  0.94190  0.91260  Biso   1.000  C
  Li4      1.0000 0.21170  0.68490  0.61470  Biso   1.000  Li
  O25      1.0000 0.17768  0.71496  0.91270  Biso   1.000  O
  O26      1.0000 0.23420  0.66183  0.79810  Biso   1.000  O
  O27      1.0000 0.30164  0.72332  0.36920  Biso   1.000  O
  O28      1.0000 0.25753  0.66055  0.49330  Biso   1.000  O
  O29      1.0000 0.08389  0.72117  0.67620  Biso   1.000  O
  O30      1.0000 0.13908  0.65550  0.59020  Biso   1.000  O
  O31      1.0000 0.11965  0.84161  0.85400  Biso   1.000  O
  O32      1.0000 0.10530  0.87890  0.64690  Biso   1.000  O
  Zn4      1.0000 0.14577  0.76896  0.76301  Biso   1.000  Zn
  C73      1.0000 0.71200  0.82780  0.90180  Biso   1.000  C
  C74      1.0000 0.72810  0.86660  0.02490  Biso   1.000  C
  C75      1.0000 0.74210  0.83490  0.14460  Biso   1.000  C
  H21      1.0000 0.74020  0.79024  0.14545  Biso   1.000  H
  C76      1.0000 0.75900  0.86650  0.26350  Biso   1.000  C
  C77      1.0000 0.77370  0.82620  0.38540  Biso   1.000  C
  C78      1.0000 0.76010  0.93280  0.26600  Biso   1.000  C
  C79      1.0000 0.77680  0.96840  0.38640  Biso   1.000  C
  H22      1.0000 0.78805  0.94657  0.46771  Biso   1.000  H
  C80      1.0000 0.71570  0.96810  0.90140  Biso   1.000  C
  H23      1.0000 0.70572  0.94633  0.81936  Biso   1.000  H
  C81      1.0000 0.73010  0.93300  0.02050  Biso   1.000  C
  C82      1.0000 0.74570  0.96620  0.14370  Biso   1.000  C
  C83      1.0000 0.59380  0.82800  0.61190  Biso   1.000  C
  C84      1.0000 0.54520  0.86680  0.55730  Biso   1.000  C
  C85      1.0000 0.59150  0.96810  0.62190  Biso   1.000  C
  H24      1.0000 0.62216  0.94621  0.66431  Biso   1.000  H
  C86      1.0000 0.54620  0.93270  0.55920  Biso   1.000  C
  C87      1.0000 0.60290  0.61600  0.76790  Biso   1.000  C
  C88      1.0000 0.58010  0.55710  0.82150  Biso   1.000  C
  C89      1.0000 0.51950  0.61570  0.95950  Biso   1.000  C
  H25      1.0000 0.53370  0.65467  0.93315  Biso   1.000  H
  C90      1.0000 0.54010  0.55810  0.91260  Biso   1.000  C
  Li5      1.0000 0.71170  0.81510  0.61470  Biso   1.000  Li
  O33      1.0000 0.67768  0.78504  0.91270  Biso   1.000  O
  O34      1.0000 0.73420  0.83817  0.79810  Biso   1.000  O
  O35      1.0000 0.80164  0.77668  0.36920  Biso   1.000  O
  O36      1.0000 0.75753  0.83945  0.49330  Biso   1.000  O
  O37      1.0000 0.58389  0.77883  0.67620  Biso   1.000  O
  O38      1.0000 0.63908  0.84450  0.59020  Biso   1.000  O
  O39      1.0000 0.61965  0.65839  0.85400  Biso   1.000  O
  O40      1.0000 0.60530  0.62110  0.64690  Biso   1.000  O
  Zn5      1.0000 0.64577  0.73104  0.76301  Biso   1.000  Zn
  C91      1.0000 0.21200  0.32780  0.90180  Biso   1.000  C
  C92      1.0000 0.22810  0.36660  0.02490  Biso   1.000  C
  C93      1.0000 0.24210  0.33490  0.14460  Biso   1.000  C
  H26      1.0000 0.24020  0.29024  0.14545  Biso   1.000  H
  C94      1.0000 0.25900  0.36650  0.26350  Biso   1.000  C
  C95      1.0000 0.27370  0.32620  0.38540  Biso   1.000  C
  C96      1.0000 0.26010  0.43280  0.26600  Biso   1.000  C
  C97      1.0000 0.27680  0.46840  0.38640  Biso   1.000  C
  H27      1.0000 0.28805  0.44657  0.46771  Biso   1.000  H
  C98      1.0000 0.21570  0.46810  0.90140  Biso   1.000  C
  H28      1.0000 0.20572  0.44633  0.81936  Biso   1.000  H
  C99      1.0000 0.23010  0.43300  0.02050  Biso   1.000  C
  C100     1.0000 0.24570  0.46620  0.14370  Biso   1.000  C
  C101     1.0000 0.09380  0.32800  0.61190  Biso   1.000  C
  C102     1.0000 0.04520  0.36680  0.55730  Biso   1.000  C
  C103     1.0000 0.09150  0.46810  0.62190  Biso   1.000  C
  H29      1.0000 0.12216  0.44621  0.66431  Biso   1.000  H
  C104     1.0000 0.04620  0.43270  0.55920  Biso   1.000  C
  C105     1.0000 0.10290  0.11600  0.76790  Biso   1.000  C
  C106     1.0000 0.08010  0.05710  0.82150  Biso   1.000  C
  C107     1.0000 0.01950  0.11570  0.95950  Biso   1.000  C
  H30      1.0000 0.03370  0.15467  0.93315  Biso   1.000  H
  C108     1.0000 0.04010  0.05810  0.91260  Biso   1.000  C
  Li6      1.0000 0.21170  0.31510  0.61470  Biso   1.000  Li
  O41      1.0000 0.17768  0.28504  0.91270  Biso   1.000  O
  O42      1.0000 0.23420  0.33817  0.79810  Biso   1.000  O
  O43      1.0000 0.30164  0.27668  0.36920  Biso   1.000  O
  O44      1.0000 0.25753  0.33945  0.49330  Biso   1.000  O
  O45      1.0000 0.08389  0.27883  0.67620  Biso   1.000  O
  O46      1.0000 0.13908  0.34450  0.59020  Biso   1.000  O
  O47      1.0000 0.11965  0.15839  0.85400  Biso   1.000  O
  O48      1.0000 0.10530  0.12110  0.64690  Biso   1.000  O
  Zn6      1.0000 0.14577  0.23104  0.76301  Biso   1.000  Zn
  C109     1.0000 0.28800  0.82780  0.09820  Biso   1.000  C
  C110     1.0000 0.27190  0.86660  0.97510  Biso   1.000  C
  C111     1.0000 0.25790  0.83490  0.85540  Biso   1.000  C
  H31      1.0000 0.25980  0.79024  0.85455  Biso   1.000  H
  C112     1.0000 0.24100  0.86650  0.73650  Biso   1.000  C
  C113     1.0000 0.22630  0.82620  0.61460  Biso   1.000  C
  C114     1.0000 0.23990  0.93280  0.73400  Biso   1.000  C
  C115     1.0000 0.22320  0.96840  0.61360  Biso   1.000  C
  H32      1.0000 0.21195  0.94657  0.53229  Biso   1.000  H
  C116     1.0000 0.28430  0.96810  0.09860  Biso   1.000  C
  H33      1.0000 0.29428  0.94633  0.18064  Biso   1.000  H
  C117     1.0000 0.26990  0.93300  0.97950  Biso   1.000  C
  C118     1.0000 0.25430  0.96620  0.85630  Biso   1.000  C
  C119     1.0000 0.40620  0.82800  0.38810  Biso   1.000  C
  C120     1.0000 0.45480  0.86680  0.44270  Biso   1.000  C
  C121     1.0000 0.40850  0.96810  0.37810  Biso   1.000  C
  H34      1.0000 0.37784  0.94621  0.33569  Biso   1.000  H
  C122     1.0000 0.45380  0.93270  0.44080  Biso   1.000  C
  C123     1.0000 0.39710  0.61600  0.23210  Biso   1.000  C
  C124     1.0000 0.41990  0.55710  0.17850  Biso   1.000  C
  C125     1.0000 0.48050  0.61570  0.04050  Biso   1.000  C
  H35      1.0000 0.46630  0.65467  0.06685  Biso   1.000  H
  C126     1.0000 0.45990  0.55810  0.08740  Biso   1.000  C
  Li7      1.0000 0.28830  0.81510  0.38530  Biso   1.000  Li
  O49      1.0000 0.32232  0.78504  0.08730  Biso   1.000  O
  O50      1.0000 0.26580  0.83817  0.20190  Biso   1.000  O
  O51      1.0000 0.19836  0.77668  0.63080  Biso   1.000  O
  O52      1.0000 0.24247  0.83945  0.50670  Biso   1.000  O
  O53      1.0000 0.41611  0.77883  0.32380  Biso   1.000  O
  O54      1.0000 0.36092  0.84450  0.40980  Biso   1.000  O
  O55      1.0000 0.38035  0.65839  0.14600  Biso   1.000  O
  O56      1.0000 0.39470  0.62110  0.35310  Biso   1.000  O
  Zn7      1.0000 0.35423  0.73104  0.23699  Biso   1.000  Zn
  C127     1.0000 0.78800  0.32780  0.09820  Biso   1.000  C
  C128     1.0000 0.77190  0.36660  0.97510  Biso   1.000  C
  C129     1.0000 0.75790  0.33490  0.85540  Biso   1.000  C
  H36      1.0000 0.75980  0.29024  0.85455  Biso   1.000  H
  C130     1.0000 0.74100  0.36650  0.73650  Biso   1.000  C
  C131     1.0000 0.72630  0.32620  0.61460  Biso   1.000  C
  C132     1.0000 0.73990  0.43280  0.73400  Biso   1.000  C
  C133     1.0000 0.72320  0.46840  0.61360  Biso   1.000  C
  H37      1.0000 0.71195  0.44657  0.53229  Biso   1.000  H
  C134     1.0000 0.78430  0.46810  0.09860  Biso   1.000  C
  H38      1.0000 0.79428  0.44633  0.18064  Biso   1.000  H
  C135     1.0000 0.76990  0.43300  0.97950  Biso   1.000  C
  C136     1.0000 0.75430  0.46620  0.85630  Biso   1.000  C
  C137     1.0000 0.90620  0.32800  0.38810  Biso   1.000  C
  C138     1.0000 0.95480  0.36680  0.44270  Biso   1.000  C
  C139     1.0000 0.90850  0.46810  0.37810  Biso   1.000  C
  H39      1.0000 0.87784  0.44621  0.33569  Biso   1.000  H
  C140     1.0000 0.95380  0.43270  0.44080  Biso   1.000  C
  C141     1.0000 0.89710  0.11600  0.23210  Biso   1.000  C
  C142     1.0000 0.91990  0.05710  0.17850  Biso   1.000  C
  C143     1.0000 0.98050  0.11570  0.04050  Biso   1.000  C
  H40      1.0000 0.96630  0.15467  0.06685  Biso   1.000  H
  C144     1.0000 0.95990  0.05810  0.08740  Biso   1.000  C
  Li8      1.0000 0.78830  0.31510  0.38530  Biso   1.000  Li
  O57      1.0000 0.82232  0.28504  0.08730  Biso   1.000  O
  O58      1.0000 0.76580  0.33817  0.20190  Biso   1.000  O
  O59      1.0000 0.69836  0.27668  0.63080  Biso   1.000  O
  O60      1.0000 0.74247  0.33945  0.50670  Biso   1.000  O
  O61      1.0000 0.91611  0.27883  0.32380  Biso   1.000  O
  O62      1.0000 0.86092  0.34450  0.40980  Biso   1.000  O
  O63      1.0000 0.88035  0.15839  0.14600  Biso   1.000  O
  O64      1.0000 0.89470  0.12110  0.35310  Biso   1.000  O
  Zn8      1.0000 0.85423  0.23104  0.23699  Biso   1.000  Zn
  C145     1.0000 0.50000  0.16500  0.50000  Biso   1.000  C
  H41      1.0000 0.50000  0.20970  0.50000  Biso   1.000  H
  C146     1.0000 0.50000  0.03370  0.50000  Biso   1.000  C
  C147     1.0000 0.00000  0.66500  0.50000  Biso   1.000  C
  H42      1.0000 0.00000  0.70970  0.50000  Biso   1.000  H
  C148     1.0000 0.00000  0.53370  0.50000  Biso   1.000  C
  C149     1.0000 0.50000  0.83500  0.50000  Biso   1.000  C
  H43      1.0000 0.50000  0.79030  0.50000  Biso   1.000  H
  C150     1.0000 0.50000  0.96630  0.50000  Biso   1.000  C
  C151     1.0000 0.00000  0.33500  0.50000  Biso   1.000  C
  H44      1.0000 0.00000  0.29030  0.50000  Biso   1.000  H
  C152     1.0000 0.00000  0.46630  0.50000  Biso   1.000  C
  C153     1.0000 0.40320  0.50000  0.22390  Biso   1.000  C
  H45      1.0000 0.37899  0.50000  0.28968  Biso   1.000  H
  C154     1.0000 0.47950  0.50000  0.04450  Biso   1.000  C
  C155     1.0000 0.90320  0.00000  0.22390  Biso   1.000  C
  H46      1.0000 0.87899  0.00000  0.28968  Biso   1.000  H
  C156     1.0000 0.97950  0.00000  0.04450  Biso   1.000  C
  C157     1.0000 0.59680  0.50000  0.77610  Biso   1.000  C
  H47      1.0000 0.62101  0.50000  0.71032  Biso   1.000  H
  C158     1.0000 0.52050  0.50000  0.95550  Biso   1.000  C
  C159     1.0000 0.09680  0.00000  0.77610  Biso   1.000  C
  H48      1.0000 0.12101  0.00000  0.71032  Biso   1.000  H
  C160     1.0000 0.02050  0.00000  0.95550  Biso   1.000  C
