data_image0
_cell_length_a       8.4974
_cell_length_b       8.4974
_cell_length_c       19.8054
_cell_angle_alpha    89.9989
_cell_angle_beta     90.0049
_cell_angle_gamma    90.0044

_symmetry_space_group_name_H-M    "P 1"
_symmetry_int_tables_number       1

loop_
  _symmetry_equiv_pos_as_xyz
  'x, y, z'

loop_
  _atom_site_label
  _atom_site_occupancy
  _atom_site_fract_x
  _atom_site_fract_y
  _atom_site_fract_z
  _atom_site_thermal_displace_type
  _atom_site_B_iso_or_equiv
  _atom_site_type_symbol
  Zn1      1.0000 0.89222  0.62832  0.03476  Biso   1.000  Zn
  Zn2      1.0000 0.62849  0.89207  0.03475  Biso   1.000  Zn
  Zn3      1.0000 0.62844  0.62829  0.92160  Biso   1.000  Zn
  Zn4      1.0000 0.89221  0.89205  0.92158  Biso   1.000  Zn
  O1       1.0000 0.76034  0.76018  0.97817  Biso   1.000  O
  O2       1.0000 0.85727  0.66332  0.12947  Biso   1.000  O
  O3       1.0000 0.40772  0.85707  0.01974  Biso   1.000  O
  O4       1.0000 0.66342  0.40753  0.93662  Biso   1.000  O
  O5       1.0000 0.66350  0.85710  0.12947  Biso   1.000  O
  O6       1.0000 0.85722  0.40755  0.01975  Biso   1.000  O
  O7       1.0000 0.40768  0.66328  0.93661  Biso   1.000  O
  O8       1.0000 0.66340  0.66326  0.82688  Biso   1.000  O
  O9       1.0000 0.11297  0.85707  0.93659  Biso   1.000  O
  O10      1.0000 0.85719  0.85704  0.82687  Biso   1.000  O
  O11      1.0000 0.11298  0.66330  0.01974  Biso   1.000  O
  O12      1.0000 0.66349  0.11283  0.01973  Biso   1.000  O
  O13      1.0000 0.85724  0.11281  0.93659  Biso   1.000  O
  C1       1.0000 0.76029  0.76015  0.80232  Biso   1.000  C
  C2       1.0000 0.76030  0.76018  0.72709  Biso   1.000  C
  C3       1.0000 0.86105  0.86123  0.69175  Biso   1.000  C
  C4       1.0000 0.86107  0.86123  0.62106  Biso   1.000  C
  C5       1.0000 0.76034  0.76019  0.58571  Biso   1.000  C
  C6       1.0000 0.65959  0.65912  0.62105  Biso   1.000  C
  C7       1.0000 0.65958  0.65912  0.69173  Biso   1.000  C
  C8       1.0000 0.65964  0.65916  0.33597  Biso   1.000  C
  C9       1.0000 0.65966  0.65918  0.26528  Biso   1.000  C
  C10      1.0000 0.86114  0.86128  0.26530  Biso   1.000  C
  C11      1.0000 0.86112  0.86127  0.33599  Biso   1.000  C
  C12      1.0000 0.76038  0.76020  0.37132  Biso   1.000  C
  C13      1.0000 0.76036  0.76019  0.44797  Biso   1.000  C
  C14      1.0000 0.76035  0.76020  0.50906  Biso   1.000  C
  C15      1.0000 0.35046  0.76021  0.97818  Biso   1.000  C
  C16      1.0000 0.17182  0.76020  0.97817  Biso   1.000  C
  C17      1.0000 0.76036  0.17006  0.97817  Biso   1.000  C
  C18      1.0000 0.76034  0.34871  0.97818  Biso   1.000  C
  C19      1.0000 0.76039  0.76021  0.15472  Biso   1.000  C
  C20      1.0000 0.76041  0.76023  0.22995  Biso   1.000  C
  H1       1.0000 0.57755  0.57682  0.72050  Biso   1.000  H
  F1       1.0000 0.96825  0.96878  0.72937  Biso   1.000  F
  F2       1.0000 0.96836  0.96884  0.22770  Biso   1.000  F
  F3       1.0000 0.55243  0.55159  0.37357  Biso   1.000  F
  F4       1.0000 0.55240  0.55158  0.58342  Biso   1.000  F
  F5       1.0000 0.96830  0.96879  0.58346  Biso   1.000  F
  H2       1.0000 0.57763  0.57689  0.23650  Biso   1.000  H
  F6       1.0000 0.96833  0.96882  0.37362  Biso   1.000  F
