data_image0
_cell_length_a       19.1212
_cell_length_b       19.1211
_cell_length_c       12.7594
_cell_angle_alpha    92.4027
_cell_angle_beta     87.5339
_cell_angle_gamma    95.0025

_symmetry_space_group_name_H-M    "P 1"
_symmetry_int_tables_number       1

loop_
  _symmetry_equiv_pos_as_xyz
  'x, y, z'

loop_
  _atom_site_label
  _atom_site_occupancy
  _atom_site_fract_x
  _atom_site_fract_y
  _atom_site_fract_z
  _atom_site_thermal_displace_type
  _atom_site_B_iso_or_equiv
  _atom_site_type_symbol
  Zn1      1.0000 0.06376  0.76571  0.32296  Biso   1.000  Zn
  Zn2      1.0000 0.05864  0.64802  0.49148  Biso   1.000  Zn
  Zn3      1.0000 0.94609  0.76066  0.50584  Biso   1.000  Zn
  Zn4      1.0000 0.94104  0.64307  0.32306  Biso   1.000  Zn
  O1       1.0000 0.00238  0.70437  0.41083  Biso   1.000  O
  O2       1.0000 0.16155  0.75428  0.33926  Biso   1.000  O
  O3       1.0000 0.04369  0.66293  0.64040  Biso   1.000  O
  O4       1.0000 0.96595  0.85980  0.48755  Biso   1.000  O
  O5       1.0000 0.15779  0.66782  0.46308  Biso   1.000  O
  O6       1.0000 0.05241  0.86351  0.35319  Biso   1.000  O
  O7       1.0000 0.96099  0.74568  0.65095  Biso   1.000  O
  O8       1.0000 0.84695  0.74088  0.48764  Biso   1.000  O
  O9       1.0000 0.95734  0.65938  0.17602  Biso   1.000  O
  O10      1.0000 0.84324  0.65449  0.35335  Biso   1.000  O
  O11      1.0000 0.04751  0.74948  0.17595  Biso   1.000  O
  O12      1.0000 0.03879  0.54890  0.46317  Biso   1.000  O
  O13      1.0000 0.95238  0.54526  0.33943  Biso   1.000  O
  C1       1.0000 0.81956  0.69660  0.42207  Biso   1.000  C
  C2       1.0000 0.74135  0.69326  0.42685  Biso   1.000  C
  C3       1.0000 0.29891  0.67211  0.45708  Biso   1.000  C
  C4       1.0000 0.37240  0.67525  0.45260  Biso   1.000  C
  C5       1.0000 0.41110  0.72177  0.38578  Biso   1.000  C
  C6       1.0000 0.37631  0.76515  0.32345  Biso   1.000  C
  C7       1.0000 0.30282  0.76201  0.32794  Biso   1.000  C
  C8       1.0000 0.63308  0.73350  0.36900  Biso   1.000  C
  C9       1.0000 0.70657  0.73663  0.36452  Biso   1.000  C
  C10      1.0000 0.70265  0.64674  0.49367  Biso   1.000  C
  C11      1.0000 0.62917  0.64360  0.49814  Biso   1.000  C
  C12      1.0000 0.59438  0.68698  0.43582  Biso   1.000  C
  C13      1.0000 0.48621  0.72498  0.38120  Biso   1.000  C
  C14      1.0000 0.51927  0.68378  0.44041  Biso   1.000  C
  C15      1.0000 0.99450  0.52155  0.39973  Biso   1.000  C
  C16      1.0000 0.99119  0.44334  0.39494  Biso   1.000  C
  C17      1.0000 0.03466  0.40852  0.45705  Biso   1.000  C
  C18      1.0000 0.03155  0.33504  0.45254  Biso   1.000  C
  C19      1.0000 0.98498  0.29638  0.38592  Biso   1.000  C
  C20      1.0000 0.94151  0.33121  0.32380  Biso   1.000  C
  C21      1.0000 0.94462  0.40469  0.32830  Biso   1.000  C
  C22      1.0000 0.97333  0.07442  0.36908  Biso   1.000  C
  C23      1.0000 0.97023  0.00093  0.36458  Biso   1.000  C
  C24      1.0000 0.06028  0.00477  0.49333  Biso   1.000  C
  C25      1.0000 0.06338  0.07825  0.49784  Biso   1.000  C
  C26      1.0000 0.01991  0.11307  0.43571  Biso   1.000  C
  C27      1.0000 0.98180  0.22127  0.38131  Biso   1.000  C
  C28      1.0000 0.02309  0.18818  0.44031  Biso   1.000  C
  C29      1.0000 0.18591  0.71217  0.39956  Biso   1.000  C
  C30      1.0000 0.26412  0.71549  0.39475  Biso   1.000  C
  C31      1.0000 0.00243  0.70444  0.13680  Biso   1.000  C
  C32      1.0000 0.00245  0.70447  0.02003  Biso   1.000  C
  C33      1.0000 0.01031  0.88790  0.42196  Biso   1.000  C
  C34      1.0000 0.01369  0.96611  0.42670  Biso   1.000  C
  C35      1.0000 0.95941  0.74757  0.97065  Biso   1.000  C
  C36      1.0000 0.95943  0.74759  0.86093  Biso   1.000  C
  C37      1.0000 0.04554  0.66141  0.84996  Biso   1.000  C
  C38      1.0000 0.04551  0.66139  0.95968  Biso   1.000  C
  C39      1.0000 0.90970  0.79733  0.97698  Biso   1.000  C
  C40      1.0000 0.90972  0.79735  0.86726  Biso   1.000  C
  C41      1.0000 0.00238  0.70435  0.68380  Biso   1.000  C
  C42      1.0000 0.00250  0.70452  0.80058  Biso   1.000  C
  H1       1.0000 0.40782  0.80303  0.26905  Biso   1.000  H
  H2       1.0000 0.93230  0.96945  0.31031  Biso   1.000  H
  H3       1.0000 0.10131  0.10972  0.55208  Biso   1.000  H
  H4       1.0000 0.51773  0.76285  0.32679  Biso   1.000  H
  C43      1.0000 0.59482  0.78122  0.30043  Biso   1.000  C
  N1       1.0000 0.56601  0.81716  0.24878  Biso   1.000  N
  H5       1.0000 0.85712  0.77564  0.83522  Biso   1.000  H
  C44      1.0000 0.89027  0.28868  0.25051  Biso   1.000  C
  N2       1.0000 0.85167  0.25665  0.19532  Biso   1.000  N
  C45      1.0000 0.89680  0.44299  0.25997  Biso   1.000  C
  N3       1.0000 0.86078  0.47184  0.20850  Biso   1.000  N
  H6       1.0000 0.08060  0.62634  0.80082  Biso   1.000  H
  H7       1.0000 0.92667  0.85248  0.83988  Biso   1.000  H
  C46      1.0000 0.26456  0.80973  0.25937  Biso   1.000  C
  N4       1.0000 0.23573  0.84567  0.20772  Biso   1.000  N
  H8       1.0000 0.59766  0.60572  0.55255  Biso   1.000  H
  H9       1.0000 0.73098  0.61142  0.54441  Biso   1.000  H
  H10      1.0000 0.85456  0.78042  0.00921  Biso   1.000  H
  H11      1.0000 0.93794  0.10276  0.31850  Biso   1.000  H
  H12      1.0000 0.08055  0.62628  0.99988  Biso   1.000  H
  C47      1.0000 0.74914  0.78781  0.29101  Biso   1.000  C
  N5       1.0000 0.78120  0.82635  0.23565  Biso   1.000  N
  C48      1.0000 0.93908  0.86838  0.02558  Biso   1.000  C
  N6       1.0000 0.96121  0.92188  0.06218  Biso   1.000  N
  H13      1.0000 0.94387  0.18978  0.32707  Biso   1.000  H
  H14      1.0000 0.09567  0.97641  0.54391  Biso   1.000  H
  H15      1.0000 0.26741  0.63423  0.51148  Biso   1.000  H
  C49      1.0000 0.47670  0.63261  0.51391  Biso   1.000  C
  N7       1.0000 0.44462  0.59407  0.56926  Biso   1.000  N
  H16      1.0000 0.06102  0.21966  0.49456  Biso   1.000  H
  H17      1.0000 0.07259  0.43999  0.51131  Biso   1.000  H
  H18      1.0000 0.40072  0.63993  0.50335  Biso   1.000  H
  C50      1.0000 0.07937  0.29674  0.52088  Biso   1.000  C
  N8       1.0000 0.11539  0.26789  0.57236  Biso   1.000  N
