data_image0
_cell_length_a       10.6545
_cell_length_b       14.0442
_cell_length_c       9.7302
_cell_angle_alpha    89.9956
_cell_angle_beta     89.9999
_cell_angle_gamma    88.8364

_symmetry_space_group_name_H-M    "P 1"
_symmetry_int_tables_number       1

loop_
  _symmetry_equiv_pos_as_xyz
  'x, y, z'

loop_
  _atom_site_label
  _atom_site_occupancy
  _atom_site_fract_x
  _atom_site_fract_y
  _atom_site_fract_z
  _atom_site_thermal_displace_type
  _atom_site_B_iso_or_equiv
  _atom_site_type_symbol
  O1       1.0000 0.68123  0.13322  0.88575  Biso   1.000  O
  O2       1.0000 0.31702  0.14592  0.88574  Biso   1.000  O
  O3       1.0000 0.49366  0.00155  0.88575  Biso   1.000  O
  O4       1.0000 0.50459  0.27759  0.88573  Biso   1.000  O
  O5       1.0000 0.49365  0.00154  0.11433  Biso   1.000  O
  O6       1.0000 0.31702  0.14591  0.11432  Biso   1.000  O
  O7       1.0000 0.68122  0.13322  0.11433  Biso   1.000  O
  Zn1      1.0000 0.49912  0.13956  0.15061  Biso   1.000  Zn
  Zn2      1.0000 0.49912  0.13957  0.84945  Biso   1.000  Zn
  O8       1.0000 0.50458  0.27759  0.11431  Biso   1.000  O
  C1       1.0000 0.27013  0.14498  0.00002  Biso   1.000  C
  C2       1.0000 0.13040  0.14219  0.00002  Biso   1.000  C
  C3       1.0000 0.11978  0.31483  0.99999  Biso   1.000  C
  C4       1.0000 0.04883  0.39983  0.99996  Biso   1.000  C
  C5       1.0000 0.91755  0.39720  0.99996  Biso   1.000  C
  C6       1.0000 0.85722  0.30957  0.99999  Biso   1.000  C
  C7       1.0000 0.92817  0.22456  0.00001  Biso   1.000  C
  C8       1.0000 0.05945  0.22720  0.00001  Biso   1.000  C
  C9       1.0000 0.93879  0.05193  0.00005  Biso   1.000  C
  C10      1.0000 0.07007  0.05456  0.00005  Biso   1.000  C
  C11      1.0000 0.87846  0.96430  0.00008  Biso   1.000  C
  C12      1.0000 0.94941  0.87929  0.00009  Biso   1.000  C
  C13      1.0000 0.08070  0.88192  0.00009  Biso   1.000  C
  C14      1.0000 0.14103  0.96956  0.00007  Biso   1.000  C
  C15      1.0000 0.48887  0.96620  0.00005  Biso   1.000  C
  C16      1.0000 0.47459  0.86088  0.00005  Biso   1.000  C
  C17      1.0000 0.44849  0.66805  0.00003  Biso   1.000  C
  C18      1.0000 0.54974  0.61108  0.00003  Biso   1.000  C
  C19      1.0000 0.53522  0.50378  0.00001  Biso   1.000  C
  C20      1.0000 0.46301  0.77536  0.00004  Biso   1.000  C
  C21      1.0000 0.72811  0.13415  0.00004  Biso   1.000  C
  C22      1.0000 0.86784  0.13694  0.00003  Biso   1.000  C
  C23      1.0000 0.50937  0.31293  0.00001  Biso   1.000  C
  C24      1.0000 0.52365  0.41825  0.00000  Biso   1.000  C
  N1       1.0000 0.49912  0.13956  0.35615  Biso   1.000  N
  N2       1.0000 0.49913  0.13956  0.64391  Biso   1.000  N
  C25      1.0000 0.65561  0.01176  0.35616  Biso   1.000  C
  C26      1.0000 0.73385  0.94786  0.42810  Biso   1.000  C
  C27      1.0000 0.73387  0.94786  0.57198  Biso   1.000  C
  C28      1.0000 0.65562  0.01177  0.64392  Biso   1.000  C
  C29      1.0000 0.57737  0.07566  0.57198  Biso   1.000  C
  C30      1.0000 0.57737  0.07566  0.42809  Biso   1.000  C
  C31      1.0000 0.42088  0.20346  0.57197  Biso   1.000  C
  C32      1.0000 0.42087  0.20347  0.42809  Biso   1.000  C
  C33      1.0000 0.34263  0.26736  0.64391  Biso   1.000  C
  C34      1.0000 0.26439  0.33126  0.57196  Biso   1.000  C
  C35      1.0000 0.26438  0.33126  0.42808  Biso   1.000  C
  C36      1.0000 0.34262  0.26736  0.35615  Biso   1.000  C
  H1       1.0000 0.22668  0.31697  0.99996  Biso   1.000  H
  F1       1.0000 0.88520  0.78604  0.00013  Biso   1.000  F
  F2       1.0000 0.67730  0.65266  0.00004  Biso   1.000  F
  F3       1.0000 0.18111  0.39926  0.64853  Biso   1.000  F
  H2       1.0000 0.85978  0.46642  0.99995  Biso   1.000  H
  H3       1.0000 0.20065  0.38329  0.36951  Biso   1.000  H
  H4       1.0000 0.34263  0.26736  0.23899  Biso   1.000  H
  F4       1.0000 0.73874  0.96151  0.00009  Biso   1.000  F
  F5       1.0000 0.81714  0.87985  0.64855  Biso   1.000  F
  H5       1.0000 0.35092  0.63624  0.00002  Biso   1.000  H
  F6       1.0000 0.65561  0.01177  0.20303  Biso   1.000  F
  H6       1.0000 0.09797  0.47118  0.99995  Biso   1.000  H
  H7       1.0000 0.75032  0.30744  0.00000  Biso   1.000  H
  F7       1.0000 0.28075  0.97236  0.00006  Biso   1.000  F
  F8       1.0000 0.15620  0.79145  0.00013  Biso   1.000  F
  H8       1.0000 0.65562  0.01175  0.76108  Biso   1.000  H
  F9       1.0000 0.81713  0.87986  0.35153  Biso   1.000  F
  F10      1.0000 0.34264  0.26736  0.79704  Biso   1.000  F
