data_ACUTOI_clean
_audit_creation_date              2014-07-02
_audit_creation_method            'Materials Studio'
_symmetry_space_group_name_H-M    'P1'
_symmetry_Int_Tables_number       1
_symmetry_cell_setting            triclinic
loop_
_symmetry_equiv_pos_as_xyz
  x,y,z
_cell_length_a                    7.0822
_cell_length_b                    20.7200
_cell_length_c                    22.8780
_cell_angle_alpha                 90.0000
_cell_angle_beta                  90.0000
_cell_angle_gamma                 90.0000
loop_
_atom_site_label
_atom_site_type_symbol
_atom_site_fract_x
_atom_site_fract_y
_atom_site_fract_z
_atom_site_U_iso_or_equiv
_atom_site_adp_type
_atom_site_occupancy
Na1    Na    0.82640   0.54417   0.95041   0.01267  Uiso   1.00
Na2    Na    0.67360   0.95583   0.45041   0.01267  Uiso   1.00
Na3    Na    0.82640   0.45583   0.54959   0.01267  Uiso   1.00
Na4    Na    0.67360   0.04417   0.04959   0.01267  Uiso   1.00
Na5    Na    0.17360   0.45583   0.04959   0.01267  Uiso   1.00
Na6    Na    0.32640   0.04417   0.54959   0.01267  Uiso   1.00
Na7    Na    0.17360   0.54417   0.45041   0.01267  Uiso   1.00
Na8    Na    0.32640   0.95583   0.95041   0.01267  Uiso   1.00
Cd1    Cd    0.77942   0.04032   0.90310   0.01267  Uiso   1.00
Cd2    Cd    0.72058   0.45968   0.40310   0.01267  Uiso   1.00
Cd3    Cd    0.77942   0.95968   0.59690   0.01267  Uiso   1.00
Cd4    Cd    0.72058   0.54032   0.09690   0.01267  Uiso   1.00
Cd5    Cd    0.22058   0.95968   0.09690   0.01267  Uiso   1.00
Cd6    Cd    0.27942   0.54032   0.59690   0.01267  Uiso   1.00
Cd7    Cd    0.22058   0.04032   0.40310   0.01267  Uiso   1.00
Cd8    Cd    0.27942   0.45968   0.90310   0.01267  Uiso   1.00
H1     H     0.78090   0.27630   0.89020   0.01267  Uiso   1.00
H2     H     0.73710   0.20510   0.05200   0.01267  Uiso   1.00
H3     H     0.71070   0.30840   0.08870   0.01267  Uiso   1.00
H4     H     0.03010   0.97930   0.80480   0.01267  Uiso   1.00
H5     H     0.01970   0.05190   0.78580   0.01267  Uiso   1.00
H6     H     0.54810   0.95230   0.80950   0.01267  Uiso   1.00
H7     H     0.74610   0.91860   0.81430   0.01267  Uiso   1.00
H8     H     0.73220   0.10340   0.77880   0.01267  Uiso   1.00
H9     H     0.54200   0.06530   0.78450   0.01267  Uiso   1.00
H10    H     0.71910   0.22370   0.39020   0.01267  Uiso   1.00
H11    H     0.76290   0.29490   0.55200   0.01267  Uiso   1.00
H12    H     0.78930   0.19160   0.58870   0.01267  Uiso   1.00
H13    H     0.46990   0.52070   0.30480   0.01267  Uiso   1.00
H14    H     0.48030   0.44810   0.28580   0.01267  Uiso   1.00
H15    H     0.95190   0.54770   0.30950   0.01267  Uiso   1.00
H16    H     0.75390   0.58140   0.31430   0.01267  Uiso   1.00
H17    H     0.76780   0.39660   0.27880   0.01267  Uiso   1.00
H18    H     0.95800   0.43470   0.28450   0.01267  Uiso   1.00
H19    H     0.78090   0.72370   0.60980   0.01267  Uiso   1.00
H20    H     0.73710   0.79490   0.44800   0.01267  Uiso   1.00
H21    H     0.71070   0.69160   0.41130   0.01267  Uiso   1.00
H22    H     0.03010   0.02070   0.69520   0.01267  Uiso   1.00
H23    H     0.01970   0.94810   0.71420   0.01267  Uiso   1.00
H24    H     0.54810   0.04770   0.69050   0.01267  Uiso   1.00
H25    H     0.74610   0.08140   0.68570   0.01267  Uiso   1.00
H26    H     0.73220   0.89660   0.72120   0.01267  Uiso   1.00
H27    H     0.54200   0.93470   0.71550   0.01267  Uiso   1.00
H28    H     0.71910   0.77630   0.10980   0.01267  Uiso   1.00
H29    H     0.76290   0.70510   0.94800   0.01267  Uiso   1.00
H30    H     0.78930   0.80840   0.91130   0.01267  Uiso   1.00
H31    H     0.46990   0.47930   0.19520   0.01267  Uiso   1.00
H32    H     0.48030   0.55190   0.21420   0.01267  Uiso   1.00
H33    H     0.95190   0.45230   0.19050   0.01267  Uiso   1.00
H34    H     0.75390   0.41860   0.18570   0.01267  Uiso   1.00
H35    H     0.76780   0.60340   0.22120   0.01267  Uiso   1.00
H36    H     0.95800   0.56530   0.21550   0.01267  Uiso   1.00
H37    H     0.21910   0.72370   0.10980   0.01267  Uiso   1.00
H38    H     0.26290   0.79490   0.94800   0.01267  Uiso   1.00
H39    H     0.28930   0.69160   0.91130   0.01267  Uiso   1.00
H40    H     0.96990   0.02070   0.19520   0.01267  Uiso   1.00
H41    H     0.98030   0.94810   0.21420   0.01267  Uiso   1.00
H42    H     0.45190   0.04770   0.19050   0.01267  Uiso   1.00
H43    H     0.25390   0.08140   0.18570   0.01267  Uiso   1.00
H44    H     0.26780   0.89660   0.22120   0.01267  Uiso   1.00
H45    H     0.45800   0.93470   0.21550   0.01267  Uiso   1.00
H46    H     0.28090   0.77630   0.60980   0.01267  Uiso   1.00
H47    H     0.23710   0.70510   0.44800   0.01267  Uiso   1.00
H48    H     0.21070   0.80840   0.41130   0.01267  Uiso   1.00
H49    H     0.53010   0.47930   0.69520   0.01267  Uiso   1.00
H50    H     0.51970   0.55190   0.71420   0.01267  Uiso   1.00
H51    H     0.04810   0.45230   0.69050   0.01267  Uiso   1.00
H52    H     0.24610   0.41860   0.68570   0.01267  Uiso   1.00
H53    H     0.23220   0.60340   0.72120   0.01267  Uiso   1.00
H54    H     0.04200   0.56530   0.71550   0.01267  Uiso   1.00
H55    H     0.21910   0.27630   0.39020   0.01267  Uiso   1.00
H56    H     0.26290   0.20510   0.55200   0.01267  Uiso   1.00
H57    H     0.28930   0.30840   0.58870   0.01267  Uiso   1.00
H58    H     0.96990   0.97930   0.30480   0.01267  Uiso   1.00
H59    H     0.98030   0.05190   0.28580   0.01267  Uiso   1.00
H60    H     0.45190   0.95230   0.30950   0.01267  Uiso   1.00
H61    H     0.25390   0.91860   0.31430   0.01267  Uiso   1.00
H62    H     0.26780   0.10340   0.27880   0.01267  Uiso   1.00
H63    H     0.45800   0.06530   0.28450   0.01267  Uiso   1.00
H64    H     0.28090   0.22370   0.89020   0.01267  Uiso   1.00
H65    H     0.23710   0.29490   0.05200   0.01267  Uiso   1.00
H66    H     0.21070   0.19160   0.08870   0.01267  Uiso   1.00
H67    H     0.53010   0.52070   0.80480   0.01267  Uiso   1.00
H68    H     0.51970   0.44810   0.78580   0.01267  Uiso   1.00
H69    H     0.04810   0.54770   0.80950   0.01267  Uiso   1.00
H70    H     0.24610   0.58140   0.81430   0.01267  Uiso   1.00
H71    H     0.23220   0.39660   0.77880   0.01267  Uiso   1.00
H72    H     0.04200   0.43470   0.78450   0.01267  Uiso   1.00
C1     C     0.73820   0.35620   0.01170   0.01267  Uiso   1.00
C2     C     0.76970   0.28290   0.93030   0.01267  Uiso   1.00
C3     C     0.76940   0.16250   0.94320   0.01267  Uiso   1.00
C4     C     0.76140   0.34530   0.95120   0.01267  Uiso   1.00
C5     C     0.76200   0.22980   0.96690   0.01267  Uiso   1.00
C6     C     0.74150   0.24020   0.02670   0.01267  Uiso   1.00
C7     C     0.72740   0.30230   0.04870   0.01267  Uiso   1.00
C8     C     0.72000   0.42020   0.04140   0.01267  Uiso   1.00
C9     C     0.95830   0.01030   0.78210   0.01267  Uiso   1.00
C10    C     0.67600   0.95220   0.79440   0.01267  Uiso   1.00
C11    C     0.67200   0.06200   0.77180   0.01267  Uiso   1.00
C12    C     0.76180   0.14380   0.51170   0.01267  Uiso   1.00
C13    C     0.73030   0.21710   0.43030   0.01267  Uiso   1.00
C14    C     0.73060   0.33750   0.44320   0.01267  Uiso   1.00
C15    C     0.73860   0.15470   0.45120   0.01267  Uiso   1.00
C16    C     0.73800   0.27020   0.46690   0.01267  Uiso   1.00
C17    C     0.75850   0.25980   0.52670   0.01267  Uiso   1.00
C18    C     0.77260   0.19770   0.54870   0.01267  Uiso   1.00
C19    C     0.78000   0.07980   0.54140   0.01267  Uiso   1.00
C20    C     0.54170   0.48970   0.28210   0.01267  Uiso   1.00
C21    C     0.82400   0.54780   0.29440   0.01267  Uiso   1.00
C22    C     0.82800   0.43800   0.27180   0.01267  Uiso   1.00
C23    C     0.73820   0.64380   0.48830   0.01267  Uiso   1.00
C24    C     0.76970   0.71710   0.56970   0.01267  Uiso   1.00
C25    C     0.76940   0.83750   0.55680   0.01267  Uiso   1.00
C26    C     0.76140   0.65470   0.54880   0.01267  Uiso   1.00
C27    C     0.76200   0.77020   0.53310   0.01267  Uiso   1.00
C28    C     0.74150   0.75980   0.47330   0.01267  Uiso   1.00
C29    C     0.72740   0.69770   0.45130   0.01267  Uiso   1.00
C30    C     0.72000   0.57980   0.45860   0.01267  Uiso   1.00
C31    C     0.95830   0.98970   0.71790   0.01267  Uiso   1.00
C32    C     0.67600   0.04780   0.70560   0.01267  Uiso   1.00
C33    C     0.67200   0.93800   0.72820   0.01267  Uiso   1.00
C34    C     0.76180   0.85620   0.98830   0.01267  Uiso   1.00
C35    C     0.73030   0.78290   0.06970   0.01267  Uiso   1.00
C36    C     0.73060   0.66250   0.05680   0.01267  Uiso   1.00
C37    C     0.73860   0.84530   0.04880   0.01267  Uiso   1.00
C38    C     0.73800   0.72980   0.03310   0.01267  Uiso   1.00
C39    C     0.75850   0.74020   0.97330   0.01267  Uiso   1.00
C40    C     0.77260   0.80230   0.95130   0.01267  Uiso   1.00
C41    C     0.78000   0.92020   0.95860   0.01267  Uiso   1.00
C42    C     0.54170   0.51030   0.21790   0.01267  Uiso   1.00
C43    C     0.82400   0.45220   0.20560   0.01267  Uiso   1.00
C44    C     0.82800   0.56200   0.22820   0.01267  Uiso   1.00
C45    C     0.26180   0.64380   0.98830   0.01267  Uiso   1.00
C46    C     0.23030   0.71710   0.06970   0.01267  Uiso   1.00
C47    C     0.23060   0.83750   0.05680   0.01267  Uiso   1.00
C48    C     0.23860   0.65470   0.04880   0.01267  Uiso   1.00
C49    C     0.23800   0.77020   0.03310   0.01267  Uiso   1.00
C50    C     0.25850   0.75980   0.97330   0.01267  Uiso   1.00
C51    C     0.27260   0.69770   0.95130   0.01267  Uiso   1.00
C52    C     0.28000   0.57980   0.95860   0.01267  Uiso   1.00
C53    C     0.04170   0.98970   0.21790   0.01267  Uiso   1.00
C54    C     0.32400   0.04780   0.20560   0.01267  Uiso   1.00
C55    C     0.32800   0.93800   0.22820   0.01267  Uiso   1.00
C56    C     0.23820   0.85620   0.48830   0.01267  Uiso   1.00
C57    C     0.26970   0.78290   0.56970   0.01267  Uiso   1.00
C58    C     0.26940   0.66250   0.55680   0.01267  Uiso   1.00
C59    C     0.26140   0.84530   0.54880   0.01267  Uiso   1.00
C60    C     0.26200   0.72980   0.53310   0.01267  Uiso   1.00
C61    C     0.24150   0.74020   0.47330   0.01267  Uiso   1.00
C62    C     0.22740   0.80230   0.45130   0.01267  Uiso   1.00
C63    C     0.22000   0.92020   0.45860   0.01267  Uiso   1.00
C64    C     0.45830   0.51030   0.71790   0.01267  Uiso   1.00
C65    C     0.17600   0.45220   0.70560   0.01267  Uiso   1.00
C66    C     0.17200   0.56200   0.72820   0.01267  Uiso   1.00
C67    C     0.26180   0.35620   0.51170   0.01267  Uiso   1.00
C68    C     0.23030   0.28290   0.43030   0.01267  Uiso   1.00
C69    C     0.23060   0.16250   0.44320   0.01267  Uiso   1.00
C70    C     0.23860   0.34530   0.45120   0.01267  Uiso   1.00
C71    C     0.23800   0.22980   0.46690   0.01267  Uiso   1.00
C72    C     0.25850   0.24020   0.52670   0.01267  Uiso   1.00
C73    C     0.27260   0.30230   0.54870   0.01267  Uiso   1.00
C74    C     0.28000   0.42020   0.54140   0.01267  Uiso   1.00
C75    C     0.04170   0.01030   0.28210   0.01267  Uiso   1.00
C76    C     0.32400   0.95220   0.29440   0.01267  Uiso   1.00
C77    C     0.32800   0.06200   0.27180   0.01267  Uiso   1.00
C78    C     0.23820   0.14380   0.01170   0.01267  Uiso   1.00
C79    C     0.26970   0.21710   0.93030   0.01267  Uiso   1.00
C80    C     0.26940   0.33750   0.94320   0.01267  Uiso   1.00
C81    C     0.26140   0.15470   0.95120   0.01267  Uiso   1.00
C82    C     0.26200   0.27020   0.96690   0.01267  Uiso   1.00
C83    C     0.24150   0.25980   0.02670   0.01267  Uiso   1.00
C84    C     0.22740   0.19770   0.04870   0.01267  Uiso   1.00
C85    C     0.22000   0.07980   0.04140   0.01267  Uiso   1.00
C86    C     0.45830   0.48970   0.78210   0.01267  Uiso   1.00
C87    C     0.17600   0.54780   0.79440   0.01267  Uiso   1.00
C88    C     0.17200   0.43800   0.77180   0.01267  Uiso   1.00
S1     S     0.76330   0.40906   0.89904   0.01267  Uiso   1.00
S2     S     0.73670   0.09094   0.39904   0.01267  Uiso   1.00
S3     S     0.76330   0.59094   0.60096   0.01267  Uiso   1.00
S4     S     0.73670   0.90906   0.10096   0.01267  Uiso   1.00
S5     S     0.23670   0.59094   0.10096   0.01267  Uiso   1.00
S6     S     0.26330   0.90906   0.60096   0.01267  Uiso   1.00
S7     S     0.23670   0.40906   0.39904   0.01267  Uiso   1.00
S8     S     0.26330   0.09094   0.89904   0.01267  Uiso   1.00
N1     N     0.76400   0.01460   0.80600   0.01267  Uiso   1.00
N2     N     0.73600   0.48540   0.30600   0.01267  Uiso   1.00
N3     N     0.76400   0.98540   0.69400   0.01267  Uiso   1.00
N4     N     0.73600   0.51460   0.19400   0.01267  Uiso   1.00
N5     N     0.23600   0.98540   0.19400   0.01267  Uiso   1.00
N6     N     0.26400   0.51460   0.69400   0.01267  Uiso   1.00
N7     N     0.23600   0.01460   0.30600   0.01267  Uiso   1.00
N8     N     0.26400   0.48540   0.80600   0.01267  Uiso   1.00
O1     O     0.78390   0.15420   0.88970   0.01267  Uiso   1.00
O2     O     0.93970   0.44490   0.90450   0.01267  Uiso   1.00
O3     O     0.75990   0.11610   0.97840   0.01267  Uiso   1.00
O4     O     0.82800   0.46420   0.03000   0.01267  Uiso   1.00
O5     O     0.73650   0.37880   0.84380   0.01267  Uiso   1.00
O6     O     0.60920   0.45280   0.91510   0.01267  Uiso   1.00
O7     O     0.59490   0.42720   0.08110   0.01267  Uiso   1.00
O8     O     0.71610   0.34580   0.38970   0.01267  Uiso   1.00
O9     O     0.56030   0.05510   0.40450   0.01267  Uiso   1.00
O10    O     0.74010   0.38390   0.47840   0.01267  Uiso   1.00
O11    O     0.67200   0.03580   0.53000   0.01267  Uiso   1.00
O12    O     0.76350   0.12120   0.34380   0.01267  Uiso   1.00
O13    O     0.89080   0.04720   0.41510   0.01267  Uiso   1.00
O14    O     0.90510   0.07280   0.58110   0.01267  Uiso   1.00
O15    O     0.78390   0.84580   0.61030   0.01267  Uiso   1.00
O16    O     0.93970   0.55510   0.59550   0.01267  Uiso   1.00
O17    O     0.75990   0.88390   0.52160   0.01267  Uiso   1.00
O18    O     0.82800   0.53580   0.47000   0.01267  Uiso   1.00
O19    O     0.73650   0.62120   0.65620   0.01267  Uiso   1.00
O20    O     0.60920   0.54720   0.58490   0.01267  Uiso   1.00
O21    O     0.59490   0.57280   0.41890   0.01267  Uiso   1.00
O22    O     0.71610   0.65420   0.11030   0.01267  Uiso   1.00
O23    O     0.56030   0.94490   0.09550   0.01267  Uiso   1.00
O24    O     0.74010   0.61610   0.02160   0.01267  Uiso   1.00
O25    O     0.67200   0.96420   0.97000   0.01267  Uiso   1.00
O26    O     0.76350   0.87880   0.15620   0.01267  Uiso   1.00
O27    O     0.89080   0.95280   0.08490   0.01267  Uiso   1.00
O28    O     0.90510   0.92720   0.91890   0.01267  Uiso   1.00
O29    O     0.21610   0.84580   0.11030   0.01267  Uiso   1.00
O30    O     0.06030   0.55510   0.09550   0.01267  Uiso   1.00
O31    O     0.24010   0.88390   0.02160   0.01267  Uiso   1.00
O32    O     0.17200   0.53580   0.97000   0.01267  Uiso   1.00
O33    O     0.26350   0.62120   0.15620   0.01267  Uiso   1.00
O34    O     0.39080   0.54720   0.08490   0.01267  Uiso   1.00
O35    O     0.40510   0.57280   0.91890   0.01267  Uiso   1.00
O36    O     0.28390   0.65420   0.61030   0.01267  Uiso   1.00
O37    O     0.43970   0.94490   0.59550   0.01267  Uiso   1.00
O38    O     0.25990   0.61610   0.52160   0.01267  Uiso   1.00
O39    O     0.32800   0.96420   0.47000   0.01267  Uiso   1.00
O40    O     0.23650   0.87880   0.65620   0.01267  Uiso   1.00
O41    O     0.10920   0.95280   0.58490   0.01267  Uiso   1.00
O42    O     0.09490   0.92720   0.41890   0.01267  Uiso   1.00
O43    O     0.21610   0.15420   0.38970   0.01267  Uiso   1.00
O44    O     0.06030   0.44490   0.40450   0.01267  Uiso   1.00
O45    O     0.24010   0.11610   0.47840   0.01267  Uiso   1.00
O46    O     0.17200   0.46420   0.53000   0.01267  Uiso   1.00
O47    O     0.26350   0.37880   0.34380   0.01267  Uiso   1.00
O48    O     0.39080   0.45280   0.41510   0.01267  Uiso   1.00
O49    O     0.40510   0.42720   0.58110   0.01267  Uiso   1.00
O50    O     0.28390   0.34580   0.88970   0.01267  Uiso   1.00
O51    O     0.43970   0.05510   0.90450   0.01267  Uiso   1.00
O52    O     0.25990   0.38390   0.97840   0.01267  Uiso   1.00
O53    O     0.32800   0.03580   0.03000   0.01267  Uiso   1.00
O54    O     0.23650   0.12120   0.84380   0.01267  Uiso   1.00
O55    O     0.10920   0.04720   0.91510   0.01267  Uiso   1.00
O56    O     0.09490   0.07280   0.08110   0.01267  Uiso   1.00
