data_ADABIS_clean
_audit_creation_date              2014-07-02
_audit_creation_method            'Materials Studio'
_symmetry_space_group_name_H-M    'P1'
_symmetry_Int_Tables_number       1
_symmetry_cell_setting            triclinic
loop_
_symmetry_equiv_pos_as_xyz
  x,y,z
_cell_length_a                    9.2553
_cell_length_b                    9.3537
_cell_length_c                    13.8735
_cell_angle_alpha                 109.7010
_cell_angle_beta                  101.7580
_cell_angle_gamma                 90.0000
loop_
_atom_site_label
_atom_site_type_symbol
_atom_site_fract_x
_atom_site_fract_y
_atom_site_fract_z
_atom_site_U_iso_or_equiv
_atom_site_adp_type
_atom_site_occupancy
Cu1    Cu    0.03860   0.02030   0.38460   0.01267  Uiso   1.00
Cu2    Cu    0.46140   0.63570   0.61540   0.01267  Uiso   1.00
Cu3    Cu    0.96140   0.97970   0.61540   0.01267  Uiso   1.00
Cu4    Cu    0.53860   0.36430   0.38460   0.01267  Uiso   1.00
H1     H     0.82334   0.93081   0.18072   0.01267  Uiso   1.00
H2     H     0.68184   0.72310   0.04864   0.01267  Uiso   1.00
H3     H     0.81792   0.46746   0.23376   0.01267  Uiso   1.00
H4     H     0.95505   0.68382   0.35980   0.01267  Uiso   1.00
H5     H     0.58907   0.46518   0.99258   0.01267  Uiso   1.00
H6     H     0.58465   0.39326   0.07648   0.01267  Uiso   1.00
H7     H     0.80901   0.26485   0.04674   0.01267  Uiso   1.00
H8     H     0.67666   0.75009   0.81928   0.01267  Uiso   1.00
H9     H     0.81816   0.67446   0.95136   0.01267  Uiso   1.00
H10    H     0.68208   0.23370   0.76624   0.01267  Uiso   1.00
H11    H     0.54495   0.32402   0.64020   0.01267  Uiso   1.00
H12    H     0.91093   0.47260   0.00742   0.01267  Uiso   1.00
H13    H     0.91535   0.31678   0.92352   0.01267  Uiso   1.00
H14    H     0.69099   0.21811   0.95326   0.01267  Uiso   1.00
H15    H     0.17666   0.06919   0.81928   0.01267  Uiso   1.00
H16    H     0.31816   0.27690   0.95136   0.01267  Uiso   1.00
H17    H     0.18208   0.53254   0.76624   0.01267  Uiso   1.00
H18    H     0.04495   0.31618   0.64020   0.01267  Uiso   1.00
H19    H     0.41093   0.53482   0.00742   0.01267  Uiso   1.00
H20    H     0.41535   0.60674   0.92352   0.01267  Uiso   1.00
H21    H     0.19099   0.73515   0.95326   0.01267  Uiso   1.00
H22    H     0.32334   0.24991   0.18072   0.01267  Uiso   1.00
H23    H     0.18184   0.32554   0.04864   0.01267  Uiso   1.00
H24    H     0.31792   0.76630   0.23376   0.01267  Uiso   1.00
H25    H     0.45505   0.67598   0.35980   0.01267  Uiso   1.00
H26    H     0.08907   0.52740   0.99258   0.01267  Uiso   1.00
H27    H     0.08465   0.68322   0.07648   0.01267  Uiso   1.00
H28    H     0.30901   0.78189   0.04674   0.01267  Uiso   1.00
C1     C     0.76960   0.25680   0.30160   0.01267  Uiso   1.00
C2     C     0.77500   0.20250   0.39200   0.01267  Uiso   1.00
C3     C     0.82190   0.83460   0.19140   0.01267  Uiso   1.00
C4     C     0.73720   0.71240   0.11200   0.01267  Uiso   1.00
C5     C     0.73630   0.57390   0.12860   0.01267  Uiso   1.00
C6     C     0.81740   0.56250   0.22140   0.01267  Uiso   1.00
C7     C     0.89880   0.69170   0.29580   0.01267  Uiso   1.00
C8     C     0.64687   0.43600   0.04600   0.01267  Uiso   1.00
C9     C     0.73040   0.95520   0.69840   0.01267  Uiso   1.00
C10    C     0.72500   0.81050   0.60800   0.01267  Uiso   1.00
C11    C     0.67810   0.64320   0.80860   0.01267  Uiso   1.00
C12    C     0.76280   0.60040   0.88800   0.01267  Uiso   1.00
C13    C     0.76370   0.44530   0.87140   0.01267  Uiso   1.00
C14    C     0.68260   0.34110   0.77860   0.01267  Uiso   1.00
C15    C     0.60120   0.39590   0.70420   0.01267  Uiso   1.00
C16    C     0.85313   0.39000   0.95400   0.01267  Uiso   1.00
C17    C     0.23040   0.74320   0.69840   0.01267  Uiso   1.00
C18    C     0.22500   0.79750   0.60800   0.01267  Uiso   1.00
C19    C     0.17810   0.16540   0.80860   0.01267  Uiso   1.00
C20    C     0.26280   0.28760   0.88800   0.01267  Uiso   1.00
C21    C     0.26370   0.42610   0.87140   0.01267  Uiso   1.00
C22    C     0.18260   0.43750   0.77860   0.01267  Uiso   1.00
C23    C     0.10120   0.30830   0.70420   0.01267  Uiso   1.00
C24    C     0.35313   0.56400   0.95400   0.01267  Uiso   1.00
C25    C     0.26960   0.04480   0.30160   0.01267  Uiso   1.00
C26    C     0.27500   0.18950   0.39200   0.01267  Uiso   1.00
C27    C     0.32190   0.35680   0.19140   0.01267  Uiso   1.00
C28    C     0.23720   0.39960   0.11200   0.01267  Uiso   1.00
C29    C     0.23630   0.55470   0.12860   0.01267  Uiso   1.00
C30    C     0.31740   0.65890   0.22140   0.01267  Uiso   1.00
C31    C     0.39880   0.60410   0.29580   0.01267  Uiso   1.00
C32    C     0.14687   0.61000   0.04600   0.01267  Uiso   1.00
C33    C     0.75000   0.32000   0.00000   0.01267  Uiso   1.00
C34    C     0.25000   0.68000   0.00000   0.01267  Uiso   1.00
N1     N     0.67580   0.24640   0.45080   0.01267  Uiso   1.00
N2     N     0.70640   0.18270   0.52540   0.01267  Uiso   1.00
N3     N     0.82280   0.10190   0.50980   0.01267  Uiso   1.00
N4     N     0.86600   0.11350   0.42700   0.01267  Uiso   1.00
N5     N     0.90200   0.82740   0.28200   0.01267  Uiso   1.00
N6     N     0.82420   0.79560   0.54920   0.01267  Uiso   1.00
N7     N     0.79360   0.65730   0.47460   0.01267  Uiso   1.00
N8     N     0.67720   0.59210   0.49020   0.01267  Uiso   1.00
N9     N     0.63400   0.68650   0.57300   0.01267  Uiso   1.00
N10    N     0.59800   0.54540   0.71800   0.01267  Uiso   1.00
N11    N     0.32420   0.75360   0.54920   0.01267  Uiso   1.00
N12    N     0.29360   0.81730   0.47460   0.01267  Uiso   1.00
N13    N     0.17720   0.89810   0.49020   0.01267  Uiso   1.00
N14    N     0.13400   0.88650   0.57300   0.01267  Uiso   1.00
N15    N     0.09800   0.17260   0.71800   0.01267  Uiso   1.00
N16    N     0.17580   0.20440   0.45080   0.01267  Uiso   1.00
N17    N     0.20640   0.34270   0.52540   0.01267  Uiso   1.00
N18    N     0.32280   0.40790   0.50980   0.01267  Uiso   1.00
N19    N     0.36600   0.31350   0.42700   0.01267  Uiso   1.00
N20    N     0.40200   0.45460   0.28200   0.01267  Uiso   1.00
O1     O     0.86640   0.22820   0.25040   0.01267  Uiso   1.00
O2     O     0.65500   0.32950   0.28900   0.01267  Uiso   1.00
O3     O     0.63360   0.97780   0.74960   0.01267  Uiso   1.00
O4     O     0.84500   0.04050   0.71100   0.01267  Uiso   1.00
O5     O     0.13360   0.77180   0.74960   0.01267  Uiso   1.00
O6     O     0.34500   0.67050   0.71100   0.01267  Uiso   1.00
O7     O     0.36640   0.02220   0.25040   0.01267  Uiso   1.00
O8     O     0.15500   0.95950   0.28900   0.01267  Uiso   1.00
