data_ADASUV_clean
_audit_creation_date              2014-07-02
_audit_creation_method            'Materials Studio'
_symmetry_space_group_name_H-M    'P1'
_symmetry_Int_Tables_number       1
_symmetry_cell_setting            triclinic
loop_
_symmetry_equiv_pos_as_xyz
  x,y,z
_cell_length_a                    29.3951
_cell_length_b                    29.3951
_cell_length_c                    29.4188
_cell_angle_alpha                 60.0267
_cell_angle_beta                  60.0267
_cell_angle_gamma                 90.0000
loop_
_atom_site_label
_atom_site_type_symbol
_atom_site_fract_x
_atom_site_fract_y
_atom_site_fract_z
_atom_site_U_iso_or_equiv
_atom_site_adp_type
_atom_site_occupancy
Co1    Co    0.24154   0.50886   0.26906   0.01267  Uiso   1.00
Co2    Co    0.14435   0.51113   0.36696   0.01267  Uiso   1.00
Co3    Co    0.48940   0.22208   0.26906   0.01267  Uiso   1.00
Co4    Co    0.48869   0.12191   0.36696   0.01267  Uiso   1.00
Co5    Co    0.50886   0.48940   0.26906   0.01267  Uiso   1.00
Co6    Co    0.51113   0.48869   0.36696   0.01267  Uiso   1.00
Co7    Co    0.22208   0.24154   0.26906   0.01267  Uiso   1.00
Co8    Co    0.12191   0.14435   0.36696   0.01267  Uiso   1.00
Co9    Co    0.75846   0.49114   0.73094   0.01267  Uiso   1.00
Co10   Co    0.85565   0.48887   0.63304   0.01267  Uiso   1.00
Co11   Co    0.51060   0.77792   0.73094   0.01267  Uiso   1.00
Co12   Co    0.51131   0.87809   0.63304   0.01267  Uiso   1.00
Co13   Co    0.49114   0.51060   0.73094   0.01267  Uiso   1.00
Co14   Co    0.48887   0.51131   0.63304   0.01267  Uiso   1.00
Co15   Co    0.77792   0.75846   0.73094   0.01267  Uiso   1.00
Co16   Co    0.87809   0.85565   0.63304   0.01267  Uiso   1.00
Co17   Co    0.52208   0.86563   0.00000   0.01267  Uiso   1.00
Co18   Co    0.51883   0.76686   0.00000   0.01267  Uiso   1.00
Co19   Co    0.47792   0.13437   0.00000   0.01267  Uiso   1.00
Co20   Co    0.48117   0.23314   0.00000   0.01267  Uiso   1.00
Co21   Co    0.86563   0.47792   0.00000   0.01267  Uiso   1.00
Co22   Co    0.76686   0.48117   0.00000   0.01267  Uiso   1.00
Co23   Co    0.13437   0.52208   0.00000   0.01267  Uiso   1.00
Co24   Co    0.23314   0.51883   0.00000   0.01267  Uiso   1.00
H1     H     0.69090   0.82010   0.84220   0.01267  Uiso   1.00
H2     H     0.65030   0.31830   0.85100   0.01267  Uiso   1.00
H3     H     0.17210   0.34390   0.34160   0.01267  Uiso   1.00
H4     H     0.84290   0.94190   0.73560   0.01267  Uiso   1.00
H5     H     0.70130   0.94090   0.87000   0.01267  Uiso   1.00
H6     H     0.66170   0.17400   0.87040   0.01267  Uiso   1.00
H7     H     0.78300   0.32330   0.70360   0.01267  Uiso   1.00
H8     H     0.05180   0.32690   0.50660   0.01267  Uiso   1.00
H9     H     0.05110   0.19530   0.49780   0.01267  Uiso   1.00
H10    H     0.77320   0.01300   0.84240   0.01267  Uiso   1.00
H11    H     0.74330   0.03080   0.80560   0.01267  Uiso   1.00
H12    H     0.98800   0.15180   0.62000   0.01267  Uiso   1.00
H13    H     0.96600   0.16550   0.57600   0.01267  Uiso   1.00
H14    H     0.83540   0.22440   0.76680   0.01267  Uiso   1.00
H15    H     0.83670   0.26090   0.70300   0.01267  Uiso   1.00
H16    H     0.91830   0.23250   0.64360   0.01267  Uiso   1.00
H17    H     0.76660   0.11680   0.80000   0.01267  Uiso   1.00
H18    H     0.88640   0.07400   0.69660   0.01267  Uiso   1.00
H19    H     0.46690   0.33770   0.84220   0.01267  Uiso   1.00
H20    H     0.49870   0.83070   0.85100   0.01267  Uiso   1.00
H21    H     0.48630   0.31450   0.34160   0.01267  Uiso   1.00
H22    H     0.42150   0.32250   0.73560   0.01267  Uiso   1.00
H23    H     0.42870   0.18910   0.87000   0.01267  Uiso   1.00
H24    H     0.46790   0.95560   0.87040   0.01267  Uiso   1.00
H25    H     0.51340   0.97310   0.70360   0.01267  Uiso   1.00
H26    H     0.44160   0.16650   0.50660   0.01267  Uiso   1.00
H27    H     0.45110   0.30690   0.49780   0.01267  Uiso   1.00
H28    H     0.38440   0.14460   0.84240   0.01267  Uiso   1.00
H29    H     0.45110   0.16360   0.80560   0.01267  Uiso   1.00
H30    H     0.39200   0.22820   0.62000   0.01267  Uiso   1.00
H31    H     0.45800   0.25850   0.57600   0.01267  Uiso   1.00
H32    H     0.39780   0.00880   0.76680   0.01267  Uiso   1.00
H33    H     0.46030   0.03610   0.70300   0.01267  Uiso   1.00
H34    H     0.43810   0.12390   0.64360   0.01267  Uiso   1.00
H35    H     0.43340   0.08320   0.80000   0.01267  Uiso   1.00
H36    H     0.41700   0.22940   0.69660   0.01267  Uiso   1.00
H37    H     0.82010   0.46690   0.84220   0.01267  Uiso   1.00
H38    H     0.31830   0.49870   0.85100   0.01267  Uiso   1.00
H39    H     0.34390   0.48630   0.34160   0.01267  Uiso   1.00
H40    H     0.94190   0.42150   0.73560   0.01267  Uiso   1.00
H41    H     0.94090   0.42870   0.87000   0.01267  Uiso   1.00
H42    H     0.17400   0.46790   0.87040   0.01267  Uiso   1.00
H43    H     0.32330   0.51340   0.70360   0.01267  Uiso   1.00
H44    H     0.32690   0.44160   0.50660   0.01267  Uiso   1.00
H45    H     0.19530   0.45110   0.49780   0.01267  Uiso   1.00
H46    H     0.01300   0.38440   0.84240   0.01267  Uiso   1.00
H47    H     0.03080   0.45110   0.80560   0.01267  Uiso   1.00
H48    H     0.15180   0.39200   0.62000   0.01267  Uiso   1.00
H49    H     0.16550   0.45800   0.57600   0.01267  Uiso   1.00
H50    H     0.22440   0.39780   0.76680   0.01267  Uiso   1.00
H51    H     0.26090   0.46030   0.70300   0.01267  Uiso   1.00
H52    H     0.23250   0.43810   0.64360   0.01267  Uiso   1.00
H53    H     0.11680   0.43340   0.80000   0.01267  Uiso   1.00
H54    H     0.07400   0.41700   0.69660   0.01267  Uiso   1.00
H55    H     0.33770   0.69090   0.84220   0.01267  Uiso   1.00
H56    H     0.83070   0.65030   0.85100   0.01267  Uiso   1.00
H57    H     0.31450   0.17210   0.34160   0.01267  Uiso   1.00
H58    H     0.32250   0.84290   0.73560   0.01267  Uiso   1.00
H59    H     0.18910   0.70130   0.87000   0.01267  Uiso   1.00
H60    H     0.95560   0.66170   0.87040   0.01267  Uiso   1.00
H61    H     0.97310   0.78300   0.70360   0.01267  Uiso   1.00
H62    H     0.16650   0.05180   0.50660   0.01267  Uiso   1.00
H63    H     0.30690   0.05110   0.49780   0.01267  Uiso   1.00
H64    H     0.14460   0.77320   0.84240   0.01267  Uiso   1.00
H65    H     0.16360   0.74330   0.80560   0.01267  Uiso   1.00
H66    H     0.22820   0.98800   0.62000   0.01267  Uiso   1.00
H67    H     0.25850   0.96600   0.57600   0.01267  Uiso   1.00
H68    H     0.00880   0.83540   0.76680   0.01267  Uiso   1.00
H69    H     0.03610   0.83670   0.70300   0.01267  Uiso   1.00
H70    H     0.12390   0.91830   0.64360   0.01267  Uiso   1.00
H71    H     0.08320   0.76660   0.80000   0.01267  Uiso   1.00
H72    H     0.22940   0.88640   0.69660   0.01267  Uiso   1.00
H73    H     0.30910   0.17990   0.15780   0.01267  Uiso   1.00
H74    H     0.34970   0.68170   0.14900   0.01267  Uiso   1.00
H75    H     0.82790   0.65610   0.65840   0.01267  Uiso   1.00
H76    H     0.15710   0.05810   0.26440   0.01267  Uiso   1.00
H77    H     0.29870   0.05910   0.13000   0.01267  Uiso   1.00
H78    H     0.33830   0.82600   0.12960   0.01267  Uiso   1.00
H79    H     0.21700   0.67670   0.29640   0.01267  Uiso   1.00
H80    H     0.94820   0.67310   0.49340   0.01267  Uiso   1.00
H81    H     0.94890   0.80470   0.50220   0.01267  Uiso   1.00
H82    H     0.22680   0.98700   0.15760   0.01267  Uiso   1.00
H83    H     0.25670   0.96920   0.19440   0.01267  Uiso   1.00
H84    H     0.01200   0.84820   0.38000   0.01267  Uiso   1.00
H85    H     0.03400   0.83450   0.42400   0.01267  Uiso   1.00
H86    H     0.16460   0.77560   0.23320   0.01267  Uiso   1.00
H87    H     0.16330   0.73910   0.29700   0.01267  Uiso   1.00
H88    H     0.08170   0.76750   0.35640   0.01267  Uiso   1.00
H89    H     0.23340   0.88320   0.20000   0.01267  Uiso   1.00
H90    H     0.11360   0.92600   0.30340   0.01267  Uiso   1.00
H91    H     0.53310   0.66230   0.15780   0.01267  Uiso   1.00
H92    H     0.50130   0.16930   0.14900   0.01267  Uiso   1.00
H93    H     0.51370   0.68550   0.65840   0.01267  Uiso   1.00
H94    H     0.57850   0.67750   0.26440   0.01267  Uiso   1.00
H95    H     0.57130   0.81090   0.13000   0.01267  Uiso   1.00
H96    H     0.53210   0.04440   0.12960   0.01267  Uiso   1.00
H97    H     0.48660   0.02690   0.29640   0.01267  Uiso   1.00
H98    H     0.55840   0.83350   0.49340   0.01267  Uiso   1.00
H99    H     0.54890   0.69310   0.50220   0.01267  Uiso   1.00
H100   H     0.61560   0.85540   0.15760   0.01267  Uiso   1.00
H101   H     0.54890   0.83640   0.19440   0.01267  Uiso   1.00
H102   H     0.60800   0.77180   0.38000   0.01267  Uiso   1.00
H103   H     0.54200   0.74150   0.42400   0.01267  Uiso   1.00
H104   H     0.60220   0.99120   0.23320   0.01267  Uiso   1.00
H105   H     0.53970   0.96390   0.29700   0.01267  Uiso   1.00
H106   H     0.56190   0.87610   0.35640   0.01267  Uiso   1.00
H107   H     0.56660   0.91680   0.20000   0.01267  Uiso   1.00
H108   H     0.58300   0.77060   0.30340   0.01267  Uiso   1.00
H109   H     0.17990   0.53310   0.15780   0.01267  Uiso   1.00
H110   H     0.68170   0.50130   0.14900   0.01267  Uiso   1.00
H111   H     0.65610   0.51370   0.65840   0.01267  Uiso   1.00
H112   H     0.05810   0.57850   0.26440   0.01267  Uiso   1.00
H113   H     0.05910   0.57130   0.13000   0.01267  Uiso   1.00
H114   H     0.82600   0.53210   0.12960   0.01267  Uiso   1.00
H115   H     0.67670   0.48660   0.29640   0.01267  Uiso   1.00
H116   H     0.67310   0.55840   0.49340   0.01267  Uiso   1.00
H117   H     0.80470   0.54890   0.50220   0.01267  Uiso   1.00
H118   H     0.98700   0.61560   0.15760   0.01267  Uiso   1.00
H119   H     0.96920   0.54890   0.19440   0.01267  Uiso   1.00
H120   H     0.84820   0.60800   0.38000   0.01267  Uiso   1.00
H121   H     0.83450   0.54200   0.42400   0.01267  Uiso   1.00
H122   H     0.77560   0.60220   0.23320   0.01267  Uiso   1.00
H123   H     0.73910   0.53970   0.29700   0.01267  Uiso   1.00
H124   H     0.76750   0.56190   0.35640   0.01267  Uiso   1.00
H125   H     0.88320   0.56660   0.20000   0.01267  Uiso   1.00
H126   H     0.92600   0.58300   0.30340   0.01267  Uiso   1.00
H127   H     0.66230   0.30910   0.15780   0.01267  Uiso   1.00
H128   H     0.16930   0.34970   0.14900   0.01267  Uiso   1.00
H129   H     0.68550   0.82790   0.65840   0.01267  Uiso   1.00
H130   H     0.67750   0.15710   0.26440   0.01267  Uiso   1.00
H131   H     0.81090   0.29870   0.13000   0.01267  Uiso   1.00
H132   H     0.04440   0.33830   0.12960   0.01267  Uiso   1.00
H133   H     0.02690   0.21700   0.29640   0.01267  Uiso   1.00
H134   H     0.83350   0.94820   0.49340   0.01267  Uiso   1.00
H135   H     0.69310   0.94890   0.50220   0.01267  Uiso   1.00
H136   H     0.85540   0.22680   0.15760   0.01267  Uiso   1.00
H137   H     0.83640   0.25670   0.19440   0.01267  Uiso   1.00
H138   H     0.77180   0.01200   0.38000   0.01267  Uiso   1.00
H139   H     0.74150   0.03400   0.42400   0.01267  Uiso   1.00
H140   H     0.99120   0.16460   0.23320   0.01267  Uiso   1.00
H141   H     0.96390   0.16330   0.29700   0.01267  Uiso   1.00
H142   H     0.87610   0.08170   0.35640   0.01267  Uiso   1.00
H143   H     0.91680   0.23340   0.20000   0.01267  Uiso   1.00
H144   H     0.77060   0.11360   0.30340   0.01267  Uiso   1.00
C1     C     0.71110   0.85540   0.82720   0.01267  Uiso   1.00
C2     C     0.76660   0.88130   0.77440   0.01267  Uiso   1.00
C3     C     0.68510   0.87960   0.85780   0.01267  Uiso   1.00
C4     C     0.75410   0.38630   0.74780   0.01267  Uiso   1.00
C5     C     0.58320   0.21940   0.91240   0.01267  Uiso   1.00
C6     C     0.67060   0.29920   0.83420   0.01267  Uiso   1.00
C7     C     0.64560   0.24580   0.85960   0.01267  Uiso   1.00
C8     C     0.72670   0.32570   0.78280   0.01267  Uiso   1.00
C9     C     0.13820   0.24500   0.37300   0.01267  Uiso   1.00
C10    C     0.13870   0.40740   0.38600   0.01267  Uiso   1.00
C11    C     0.13740   0.32280   0.38240   0.01267  Uiso   1.00
C12    C     0.11190   0.34720   0.41560   0.01267  Uiso   1.00
C13    C     0.11190   0.26850   0.40940   0.01267  Uiso   1.00
C14    C     0.79250   0.85660   0.73740   0.01267  Uiso   1.00
C15    C     0.62330   0.85020   0.91100   0.01267  Uiso   1.00
C16    C     0.80350   0.92850   0.76340   0.01267  Uiso   1.00
C17    C     0.71830   0.92650   0.84520   0.01267  Uiso   1.00
C18    C     0.67810   0.21320   0.84580   0.01267  Uiso   1.00
C19    C     0.75510   0.30290   0.74860   0.01267  Uiso   1.00
C20    C     0.06630   0.31240   0.48160   0.01267  Uiso   1.00
C21    C     0.06600   0.23430   0.47620   0.01267  Uiso   1.00
C22    C     0.77350   0.94910   0.79800   0.01267  Uiso   1.00
C23    C     0.73290   0.23910   0.79700   0.01267  Uiso   1.00
C24    C     0.04380   0.25750   0.50840   0.01267  Uiso   1.00
C25    C     0.77910   0.02980   0.80040   0.01267  Uiso   1.00
C26    C     0.96730   0.17370   0.60420   0.01267  Uiso   1.00
C27    C     0.82100   0.22320   0.74320   0.01267  Uiso   1.00
C28    C     0.90880   0.15680   0.66060   0.01267  Uiso   1.00
C29    C     0.89300   0.19560   0.67200   0.01267  Uiso   1.00
C30    C     0.80360   0.12820   0.76440   0.01267  Uiso   1.00
C31    C     0.83700   0.18150   0.72800   0.01267  Uiso   1.00
C32    C     0.82280   0.08680   0.75040   0.01267  Uiso   1.00
C33    C     0.87320   0.10120   0.70300   0.01267  Uiso   1.00
C34    C     0.46170   0.31740   0.82720   0.01267  Uiso   1.00
C35    C     0.45900   0.34430   0.77440   0.01267  Uiso   1.00
C36    C     0.45710   0.26260   0.85780   0.01267  Uiso   1.00
C37    C     0.49810   0.86590   0.74780   0.01267  Uiso   1.00
C38    C     0.50440   0.86820   0.91240   0.01267  Uiso   1.00
C39    C     0.49520   0.86660   0.83420   0.01267  Uiso   1.00
C40    C     0.49480   0.89460   0.85960   0.01267  Uiso   1.00
C41    C     0.49050   0.89150   0.78280   0.01267  Uiso   1.00
C42    C     0.48880   0.38200   0.37300   0.01267  Uiso   1.00
C43    C     0.47530   0.20660   0.38600   0.01267  Uiso   1.00
C44    C     0.48020   0.29480   0.38240   0.01267  Uiso   1.00
C45    C     0.47250   0.23720   0.41560   0.01267  Uiso   1.00
C46    C     0.47870   0.32210   0.40940   0.01267  Uiso   1.00
C47    C     0.47010   0.40600   0.73740   0.01267  Uiso   1.00
C48    C     0.46570   0.23880   0.91100   0.01267  Uiso   1.00
C49    C     0.43310   0.30810   0.76340   0.01267  Uiso   1.00
C50    C     0.43650   0.22830   0.84520   0.01267  Uiso   1.00
C51    C     0.47610   0.94100   0.84580   0.01267  Uiso   1.00
C52    C     0.49630   0.94850   0.74860   0.01267  Uiso   1.00
C53    C     0.45210   0.20600   0.48160   0.01267  Uiso   1.00
C54    C     0.45780   0.28950   0.47620   0.01267  Uiso   1.00
C55    C     0.42850   0.25290   0.79800   0.01267  Uiso   1.00
C56    C     0.47010   0.96390   0.79700   0.01267  Uiso   1.00
C57    C     0.44780   0.23410   0.50840   0.01267  Uiso   1.00
C58    C     0.42050   0.16980   0.80040   0.01267  Uiso   1.00
C59    C     0.42850   0.22210   0.60420   0.01267  Uiso   1.00
C60    C     0.43580   0.03360   0.74320   0.01267  Uiso   1.00
C61    C     0.43060   0.18260   0.66060   0.01267  Uiso   1.00
C62    C     0.43500   0.13240   0.67200   0.01267  Uiso   1.00
C63    C     0.43200   0.10740   0.76440   0.01267  Uiso   1.00
C64    C     0.43500   0.09050   0.72800   0.01267  Uiso   1.00
C65    C     0.42680   0.16280   0.75040   0.01267  Uiso   1.00
C66    C     0.42380   0.19580   0.70300   0.01267  Uiso   1.00
C67    C     0.85540   0.46170   0.82720   0.01267  Uiso   1.00
C68    C     0.88130   0.45900   0.77440   0.01267  Uiso   1.00
C69    C     0.87960   0.45710   0.85780   0.01267  Uiso   1.00
C70    C     0.38630   0.49810   0.74780   0.01267  Uiso   1.00
C71    C     0.21940   0.50440   0.91240   0.01267  Uiso   1.00
C72    C     0.29920   0.49520   0.83420   0.01267  Uiso   1.00
C73    C     0.24580   0.49480   0.85960   0.01267  Uiso   1.00
C74    C     0.32570   0.49050   0.78280   0.01267  Uiso   1.00
C75    C     0.24500   0.48880   0.37300   0.01267  Uiso   1.00
C76    C     0.40740   0.47530   0.38600   0.01267  Uiso   1.00
C77    C     0.32280   0.48020   0.38240   0.01267  Uiso   1.00
C78    C     0.34720   0.47250   0.41560   0.01267  Uiso   1.00
C79    C     0.26850   0.47870   0.40940   0.01267  Uiso   1.00
C80    C     0.85660   0.47010   0.73740   0.01267  Uiso   1.00
C81    C     0.85020   0.46570   0.91100   0.01267  Uiso   1.00
C82    C     0.92850   0.43310   0.76340   0.01267  Uiso   1.00
C83    C     0.92650   0.43650   0.84520   0.01267  Uiso   1.00
C84    C     0.21320   0.47610   0.84580   0.01267  Uiso   1.00
C85    C     0.30290   0.49630   0.74860   0.01267  Uiso   1.00
C86    C     0.31240   0.45210   0.48160   0.01267  Uiso   1.00
C87    C     0.23430   0.45780   0.47620   0.01267  Uiso   1.00
C88    C     0.94910   0.42850   0.79800   0.01267  Uiso   1.00
C89    C     0.23910   0.47010   0.79700   0.01267  Uiso   1.00
C90    C     0.25750   0.44780   0.50840   0.01267  Uiso   1.00
C91    C     0.02980   0.42050   0.80040   0.01267  Uiso   1.00
C92    C     0.17370   0.42850   0.60420   0.01267  Uiso   1.00
C93    C     0.22320   0.43580   0.74320   0.01267  Uiso   1.00
C94    C     0.15680   0.43060   0.66060   0.01267  Uiso   1.00
C95    C     0.19560   0.43500   0.67200   0.01267  Uiso   1.00
C96    C     0.12820   0.43200   0.76440   0.01267  Uiso   1.00
C97    C     0.18150   0.43500   0.72800   0.01267  Uiso   1.00
C98    C     0.08680   0.42680   0.75040   0.01267  Uiso   1.00
C99    C     0.10120   0.42380   0.70300   0.01267  Uiso   1.00
C100   C     0.31740   0.71110   0.82720   0.01267  Uiso   1.00
C101   C     0.34430   0.76660   0.77440   0.01267  Uiso   1.00
C102   C     0.26260   0.68510   0.85780   0.01267  Uiso   1.00
C103   C     0.86590   0.75410   0.74780   0.01267  Uiso   1.00
C104   C     0.86820   0.58320   0.91240   0.01267  Uiso   1.00
C105   C     0.86660   0.67060   0.83420   0.01267  Uiso   1.00
C106   C     0.89460   0.64560   0.85960   0.01267  Uiso   1.00
C107   C     0.89150   0.72670   0.78280   0.01267  Uiso   1.00
C108   C     0.38200   0.13820   0.37300   0.01267  Uiso   1.00
C109   C     0.20660   0.13870   0.38600   0.01267  Uiso   1.00
C110   C     0.29480   0.13740   0.38240   0.01267  Uiso   1.00
C111   C     0.23720   0.11190   0.41560   0.01267  Uiso   1.00
C112   C     0.32210   0.11190   0.40940   0.01267  Uiso   1.00
C113   C     0.40600   0.79250   0.73740   0.01267  Uiso   1.00
C114   C     0.23880   0.62330   0.91100   0.01267  Uiso   1.00
C115   C     0.30810   0.80350   0.76340   0.01267  Uiso   1.00
C116   C     0.22830   0.71830   0.84520   0.01267  Uiso   1.00
C117   C     0.94100   0.67810   0.84580   0.01267  Uiso   1.00
C118   C     0.94850   0.75510   0.74860   0.01267  Uiso   1.00
C119   C     0.20600   0.06630   0.48160   0.01267  Uiso   1.00
C120   C     0.28950   0.06600   0.47620   0.01267  Uiso   1.00
C121   C     0.25290   0.77350   0.79800   0.01267  Uiso   1.00
C122   C     0.96390   0.73290   0.79700   0.01267  Uiso   1.00
C123   C     0.23410   0.04380   0.50840   0.01267  Uiso   1.00
C124   C     0.16980   0.77910   0.80040   0.01267  Uiso   1.00
C125   C     0.22210   0.96730   0.60420   0.01267  Uiso   1.00
C126   C     0.03360   0.82100   0.74320   0.01267  Uiso   1.00
C127   C     0.18260   0.90880   0.66060   0.01267  Uiso   1.00
C128   C     0.13240   0.89300   0.67200   0.01267  Uiso   1.00
C129   C     0.10740   0.80360   0.76440   0.01267  Uiso   1.00
C130   C     0.09050   0.83700   0.72800   0.01267  Uiso   1.00
C131   C     0.16280   0.82280   0.75040   0.01267  Uiso   1.00
C132   C     0.19580   0.87320   0.70300   0.01267  Uiso   1.00
C133   C     0.28890   0.14460   0.17280   0.01267  Uiso   1.00
C134   C     0.23340   0.11870   0.22560   0.01267  Uiso   1.00
C135   C     0.31490   0.12040   0.14220   0.01267  Uiso   1.00
C136   C     0.24590   0.61370   0.25220   0.01267  Uiso   1.00
C137   C     0.41680   0.78060   0.08760   0.01267  Uiso   1.00
C138   C     0.32940   0.70080   0.16580   0.01267  Uiso   1.00
C139   C     0.35440   0.75420   0.14040   0.01267  Uiso   1.00
C140   C     0.27330   0.67430   0.21720   0.01267  Uiso   1.00
C141   C     0.86180   0.75500   0.62700   0.01267  Uiso   1.00
C142   C     0.86130   0.59260   0.61400   0.01267  Uiso   1.00
C143   C     0.86260   0.67720   0.61760   0.01267  Uiso   1.00
C144   C     0.88810   0.65280   0.58440   0.01267  Uiso   1.00
C145   C     0.88810   0.73150   0.59060   0.01267  Uiso   1.00
C146   C     0.20750   0.14340   0.26260   0.01267  Uiso   1.00
C147   C     0.37670   0.14980   0.08900   0.01267  Uiso   1.00
C148   C     0.19650   0.07150   0.23660   0.01267  Uiso   1.00
C149   C     0.28170   0.07350   0.15480   0.01267  Uiso   1.00
C150   C     0.32190   0.78680   0.15420   0.01267  Uiso   1.00
C151   C     0.24490   0.69710   0.25140   0.01267  Uiso   1.00
C152   C     0.93370   0.68760   0.51840   0.01267  Uiso   1.00
C153   C     0.93400   0.76570   0.52380   0.01267  Uiso   1.00
C154   C     0.22650   0.05090   0.20200   0.01267  Uiso   1.00
C155   C     0.26710   0.76090   0.20300   0.01267  Uiso   1.00
C156   C     0.95620   0.74250   0.49160   0.01267  Uiso   1.00
C157   C     0.22090   0.97020   0.19960   0.01267  Uiso   1.00
C158   C     0.03270   0.82630   0.39580   0.01267  Uiso   1.00
C159   C     0.17900   0.77680   0.25680   0.01267  Uiso   1.00
C160   C     0.09120   0.84320   0.33940   0.01267  Uiso   1.00
C161   C     0.10700   0.80440   0.32800   0.01267  Uiso   1.00
C162   C     0.19640   0.87180   0.23560   0.01267  Uiso   1.00
C163   C     0.16300   0.81850   0.27200   0.01267  Uiso   1.00
C164   C     0.17720   0.91320   0.24960   0.01267  Uiso   1.00
C165   C     0.12680   0.89880   0.29700   0.01267  Uiso   1.00
C166   C     0.53830   0.68260   0.17280   0.01267  Uiso   1.00
C167   C     0.54100   0.65570   0.22560   0.01267  Uiso   1.00
C168   C     0.54290   0.73740   0.14220   0.01267  Uiso   1.00
C169   C     0.50190   0.13410   0.25220   0.01267  Uiso   1.00
C170   C     0.49560   0.13180   0.08760   0.01267  Uiso   1.00
C171   C     0.50480   0.13340   0.16580   0.01267  Uiso   1.00
C172   C     0.50520   0.10540   0.14040   0.01267  Uiso   1.00
C173   C     0.50950   0.10850   0.21720   0.01267  Uiso   1.00
C174   C     0.51120   0.61800   0.62700   0.01267  Uiso   1.00
C175   C     0.52470   0.79340   0.61400   0.01267  Uiso   1.00
C176   C     0.51980   0.70520   0.61760   0.01267  Uiso   1.00
C177   C     0.52750   0.76280   0.58440   0.01267  Uiso   1.00
C178   C     0.52130   0.67790   0.59060   0.01267  Uiso   1.00
C179   C     0.52990   0.59400   0.26260   0.01267  Uiso   1.00
C180   C     0.53430   0.76120   0.08900   0.01267  Uiso   1.00
C181   C     0.56690   0.69190   0.23660   0.01267  Uiso   1.00
C182   C     0.56350   0.77170   0.15480   0.01267  Uiso   1.00
C183   C     0.52390   0.05900   0.15420   0.01267  Uiso   1.00
C184   C     0.50370   0.05150   0.25140   0.01267  Uiso   1.00
C185   C     0.54790   0.79400   0.51840   0.01267  Uiso   1.00
C186   C     0.54220   0.71050   0.52380   0.01267  Uiso   1.00
C187   C     0.57150   0.74710   0.20200   0.01267  Uiso   1.00
C188   C     0.52990   0.03610   0.20300   0.01267  Uiso   1.00
C189   C     0.55220   0.76590   0.49160   0.01267  Uiso   1.00
C190   C     0.57950   0.83020   0.19960   0.01267  Uiso   1.00
C191   C     0.57150   0.77790   0.39580   0.01267  Uiso   1.00
C192   C     0.56420   0.96640   0.25680   0.01267  Uiso   1.00
C193   C     0.56940   0.81740   0.33940   0.01267  Uiso   1.00
C194   C     0.56500   0.86760   0.32800   0.01267  Uiso   1.00
C195   C     0.56800   0.89260   0.23560   0.01267  Uiso   1.00
C196   C     0.56500   0.90950   0.27200   0.01267  Uiso   1.00
C197   C     0.57320   0.83720   0.24960   0.01267  Uiso   1.00
C198   C     0.57620   0.80420   0.29700   0.01267  Uiso   1.00
C199   C     0.14460   0.53830   0.17280   0.01267  Uiso   1.00
C200   C     0.11870   0.54100   0.22560   0.01267  Uiso   1.00
C201   C     0.12040   0.54290   0.14220   0.01267  Uiso   1.00
C202   C     0.61370   0.50190   0.25220   0.01267  Uiso   1.00
C203   C     0.78060   0.49560   0.08760   0.01267  Uiso   1.00
C204   C     0.70080   0.50480   0.16580   0.01267  Uiso   1.00
C205   C     0.75420   0.50520   0.14040   0.01267  Uiso   1.00
C206   C     0.67430   0.50950   0.21720   0.01267  Uiso   1.00
C207   C     0.75500   0.51120   0.62700   0.01267  Uiso   1.00
C208   C     0.59260   0.52470   0.61400   0.01267  Uiso   1.00
C209   C     0.67720   0.51980   0.61760   0.01267  Uiso   1.00
C210   C     0.65280   0.52750   0.58440   0.01267  Uiso   1.00
C211   C     0.73150   0.52130   0.59060   0.01267  Uiso   1.00
C212   C     0.14340   0.52990   0.26260   0.01267  Uiso   1.00
C213   C     0.14980   0.53430   0.08900   0.01267  Uiso   1.00
C214   C     0.07150   0.56690   0.23660   0.01267  Uiso   1.00
C215   C     0.07350   0.56350   0.15480   0.01267  Uiso   1.00
C216   C     0.78680   0.52390   0.15420   0.01267  Uiso   1.00
C217   C     0.69710   0.50370   0.25140   0.01267  Uiso   1.00
C218   C     0.68760   0.54790   0.51840   0.01267  Uiso   1.00
C219   C     0.76570   0.54220   0.52380   0.01267  Uiso   1.00
C220   C     0.05090   0.57150   0.20200   0.01267  Uiso   1.00
C221   C     0.76090   0.52990   0.20300   0.01267  Uiso   1.00
C222   C     0.74250   0.55220   0.49160   0.01267  Uiso   1.00
C223   C     0.97020   0.57950   0.19960   0.01267  Uiso   1.00
C224   C     0.82630   0.57150   0.39580   0.01267  Uiso   1.00
C225   C     0.77680   0.56420   0.25680   0.01267  Uiso   1.00
C226   C     0.84320   0.56940   0.33940   0.01267  Uiso   1.00
C227   C     0.80440   0.56500   0.32800   0.01267  Uiso   1.00
C228   C     0.87180   0.56800   0.23560   0.01267  Uiso   1.00
C229   C     0.81850   0.56500   0.27200   0.01267  Uiso   1.00
C230   C     0.91320   0.57320   0.24960   0.01267  Uiso   1.00
C231   C     0.89880   0.57620   0.29700   0.01267  Uiso   1.00
C232   C     0.68260   0.28890   0.17280   0.01267  Uiso   1.00
C233   C     0.65570   0.23340   0.22560   0.01267  Uiso   1.00
C234   C     0.73740   0.31490   0.14220   0.01267  Uiso   1.00
C235   C     0.13410   0.24590   0.25220   0.01267  Uiso   1.00
C236   C     0.13180   0.41680   0.08760   0.01267  Uiso   1.00
C237   C     0.13340   0.32940   0.16580   0.01267  Uiso   1.00
C238   C     0.10540   0.35440   0.14040   0.01267  Uiso   1.00
C239   C     0.10850   0.27330   0.21720   0.01267  Uiso   1.00
C240   C     0.61800   0.86180   0.62700   0.01267  Uiso   1.00
C241   C     0.79340   0.86130   0.61400   0.01267  Uiso   1.00
C242   C     0.70520   0.86260   0.61760   0.01267  Uiso   1.00
C243   C     0.76280   0.88810   0.58440   0.01267  Uiso   1.00
C244   C     0.67790   0.88810   0.59060   0.01267  Uiso   1.00
C245   C     0.59400   0.20750   0.26260   0.01267  Uiso   1.00
C246   C     0.76120   0.37670   0.08900   0.01267  Uiso   1.00
C247   C     0.69190   0.19650   0.23660   0.01267  Uiso   1.00
C248   C     0.77170   0.28170   0.15480   0.01267  Uiso   1.00
C249   C     0.05900   0.32190   0.15420   0.01267  Uiso   1.00
C250   C     0.05150   0.24490   0.25140   0.01267  Uiso   1.00
C251   C     0.79400   0.93370   0.51840   0.01267  Uiso   1.00
C252   C     0.71050   0.93400   0.52380   0.01267  Uiso   1.00
C253   C     0.74710   0.22650   0.20200   0.01267  Uiso   1.00
C254   C     0.03610   0.26710   0.20300   0.01267  Uiso   1.00
C255   C     0.76590   0.95620   0.49160   0.01267  Uiso   1.00
C256   C     0.83020   0.22090   0.19960   0.01267  Uiso   1.00
C257   C     0.77790   0.03270   0.39580   0.01267  Uiso   1.00
C258   C     0.96640   0.17900   0.25680   0.01267  Uiso   1.00
C259   C     0.81740   0.09120   0.33940   0.01267  Uiso   1.00
C260   C     0.86760   0.10700   0.32800   0.01267  Uiso   1.00
C261   C     0.89260   0.19640   0.23560   0.01267  Uiso   1.00
C262   C     0.90950   0.16300   0.27200   0.01267  Uiso   1.00
C263   C     0.83720   0.17720   0.24960   0.01267  Uiso   1.00
C264   C     0.80420   0.12680   0.29700   0.01267  Uiso   1.00
O1     O     0.18709   0.43069   0.33422   0.01267  Uiso   1.00
O2     O     0.11155   0.42945   0.41170   0.01267  Uiso   1.00
O3     O     0.10942   0.19612   0.39636   0.01267  Uiso   1.00
O4     O     0.18705   0.27155   0.32230   0.01267  Uiso   1.00
O5     O     0.80260   0.40920   0.69760   0.01267  Uiso   1.00
O6     O     0.72770   0.40940   0.77260   0.01267  Uiso   1.00
O7     O     0.84266   0.88536   0.68528   0.01267  Uiso   1.00
O8     O     0.76570   0.80870   0.76120   0.01267  Uiso   1.00
O9     O     0.60118   0.88008   0.93364   0.01267  Uiso   1.00
O10    O     0.60001   0.80341   0.93218   0.01267  Uiso   1.00
O11    O     0.55990   0.17020   0.93260   0.01267  Uiso   1.00
O12    O     0.56043   0.24693   0.93254   0.01267  Uiso   1.00
O13    O     0.54480   0.94040   0.98360   0.01267  Uiso   1.00
O14    O     0.80440   0.00090   0.77240   0.01267  Uiso   1.00
O15    O     0.99510   0.23110   0.56900   0.01267  Uiso   1.00
O16    O     0.76130   0.20520   0.78200   0.01267  Uiso   1.00
O17    O     0.47869   0.23509   0.33422   0.01267  Uiso   1.00
O18    O     0.47675   0.15885   0.41170   0.01267  Uiso   1.00
O19    O     0.49422   0.40752   0.39636   0.01267  Uiso   1.00
O20    O     0.49065   0.40615   0.32230   0.01267  Uiso   1.00
O21    O     0.49980   0.89320   0.69760   0.01267  Uiso   1.00
O22    O     0.49970   0.81800   0.77260   0.01267  Uiso   1.00
O23    O     0.47206   0.42936   0.68528   0.01267  Uiso   1.00
O24    O     0.47310   0.43010   0.76120   0.01267  Uiso   1.00
O25    O     0.46518   0.18628   0.93364   0.01267  Uiso   1.00
O26    O     0.46781   0.26441   0.93218   0.01267  Uiso   1.00
O27    O     0.50750   0.89720   0.93260   0.01267  Uiso   1.00
O28    O     0.50703   0.82053   0.93254   0.01267  Uiso   1.00
O29    O     0.47160   0.07600   0.98360   0.01267  Uiso   1.00
O30    O     0.42320   0.22670   0.77240   0.01267  Uiso   1.00
O31    O     0.43590   0.19990   0.56900   0.01267  Uiso   1.00
O32    O     0.45670   0.01280   0.78200   0.01267  Uiso   1.00
O33    O     0.43069   0.47869   0.33422   0.01267  Uiso   1.00
O34    O     0.42945   0.47675   0.41170   0.01267  Uiso   1.00
O35    O     0.19612   0.49422   0.39636   0.01267  Uiso   1.00
O36    O     0.27155   0.49065   0.32230   0.01267  Uiso   1.00
O37    O     0.40920   0.49980   0.69760   0.01267  Uiso   1.00
O38    O     0.40940   0.49970   0.77260   0.01267  Uiso   1.00
O39    O     0.88536   0.47206   0.68528   0.01267  Uiso   1.00
O40    O     0.80870   0.47310   0.76120   0.01267  Uiso   1.00
O41    O     0.88008   0.46518   0.93364   0.01267  Uiso   1.00
O42    O     0.80341   0.46781   0.93218   0.01267  Uiso   1.00
O43    O     0.17020   0.50750   0.93260   0.01267  Uiso   1.00
O44    O     0.24693   0.50703   0.93254   0.01267  Uiso   1.00
O45    O     0.94040   0.47160   0.98360   0.01267  Uiso   1.00
O46    O     0.00090   0.42320   0.77240   0.01267  Uiso   1.00
O47    O     0.23110   0.43590   0.56900   0.01267  Uiso   1.00
O48    O     0.20520   0.45670   0.78200   0.01267  Uiso   1.00
O49    O     0.23509   0.18709   0.33422   0.01267  Uiso   1.00
O50    O     0.15885   0.11155   0.41170   0.01267  Uiso   1.00
O51    O     0.40752   0.10942   0.39636   0.01267  Uiso   1.00
O52    O     0.40615   0.18705   0.32230   0.01267  Uiso   1.00
O53    O     0.89320   0.80260   0.69760   0.01267  Uiso   1.00
O54    O     0.81800   0.72770   0.77260   0.01267  Uiso   1.00
O55    O     0.42936   0.84266   0.68528   0.01267  Uiso   1.00
O56    O     0.43010   0.76570   0.76120   0.01267  Uiso   1.00
O57    O     0.18628   0.60118   0.93364   0.01267  Uiso   1.00
O58    O     0.26441   0.60001   0.93218   0.01267  Uiso   1.00
O59    O     0.89720   0.55990   0.93260   0.01267  Uiso   1.00
O60    O     0.82053   0.56043   0.93254   0.01267  Uiso   1.00
O61    O     0.07600   0.54480   0.98360   0.01267  Uiso   1.00
O62    O     0.22670   0.80440   0.77240   0.01267  Uiso   1.00
O63    O     0.19990   0.99510   0.56900   0.01267  Uiso   1.00
O64    O     0.01280   0.76130   0.78200   0.01267  Uiso   1.00
O65    O     0.81291   0.56931   0.66578   0.01267  Uiso   1.00
O66    O     0.88845   0.57055   0.58830   0.01267  Uiso   1.00
O67    O     0.89058   0.80388   0.60364   0.01267  Uiso   1.00
O68    O     0.81295   0.72845   0.67770   0.01267  Uiso   1.00
O69    O     0.19740   0.59080   0.30240   0.01267  Uiso   1.00
O70    O     0.27230   0.59060   0.22740   0.01267  Uiso   1.00
O71    O     0.15734   0.11464   0.31472   0.01267  Uiso   1.00
O72    O     0.23430   0.19130   0.23880   0.01267  Uiso   1.00
O73    O     0.39882   0.11992   0.06636   0.01267  Uiso   1.00
O74    O     0.39999   0.19659   0.06782   0.01267  Uiso   1.00
O75    O     0.44010   0.82980   0.06740   0.01267  Uiso   1.00
O76    O     0.43957   0.75307   0.06746   0.01267  Uiso   1.00
O77    O     0.45520   0.05960   0.01640   0.01267  Uiso   1.00
O78    O     0.19560   0.99910   0.22760   0.01267  Uiso   1.00
O79    O     0.00490   0.76890   0.43100   0.01267  Uiso   1.00
O80    O     0.23870   0.79480   0.21800   0.01267  Uiso   1.00
O81    O     0.52131   0.76491   0.66578   0.01267  Uiso   1.00
O82    O     0.52325   0.84115   0.58830   0.01267  Uiso   1.00
O83    O     0.50578   0.59248   0.60364   0.01267  Uiso   1.00
O84    O     0.50935   0.59385   0.67770   0.01267  Uiso   1.00
O85    O     0.50020   0.10680   0.30240   0.01267  Uiso   1.00
O86    O     0.50030   0.18200   0.22740   0.01267  Uiso   1.00
O87    O     0.52794   0.57064   0.31472   0.01267  Uiso   1.00
O88    O     0.52690   0.56990   0.23880   0.01267  Uiso   1.00
O89    O     0.53482   0.81372   0.06636   0.01267  Uiso   1.00
O90    O     0.53219   0.73559   0.06782   0.01267  Uiso   1.00
O91    O     0.49250   0.10280   0.06740   0.01267  Uiso   1.00
O92    O     0.49297   0.17947   0.06746   0.01267  Uiso   1.00
O93    O     0.52840   0.92400   0.01640   0.01267  Uiso   1.00
O94    O     0.57680   0.77330   0.22760   0.01267  Uiso   1.00
O95    O     0.56410   0.80010   0.43100   0.01267  Uiso   1.00
O96    O     0.54330   0.98720   0.21800   0.01267  Uiso   1.00
O97    O     0.56931   0.52131   0.66578   0.01267  Uiso   1.00
O98    O     0.57055   0.52325   0.58830   0.01267  Uiso   1.00
O99    O     0.80388   0.50578   0.60364   0.01267  Uiso   1.00
O100   O     0.72845   0.50935   0.67770   0.01267  Uiso   1.00
O101   O     0.59080   0.50020   0.30240   0.01267  Uiso   1.00
O102   O     0.59060   0.50030   0.22740   0.01267  Uiso   1.00
O103   O     0.11464   0.52794   0.31472   0.01267  Uiso   1.00
O104   O     0.19130   0.52690   0.23880   0.01267  Uiso   1.00
O105   O     0.11992   0.53482   0.06636   0.01267  Uiso   1.00
O106   O     0.19659   0.53219   0.06782   0.01267  Uiso   1.00
O107   O     0.82980   0.49250   0.06740   0.01267  Uiso   1.00
O108   O     0.75307   0.49297   0.06746   0.01267  Uiso   1.00
O109   O     0.05960   0.52840   0.01640   0.01267  Uiso   1.00
O110   O     0.99910   0.57680   0.22760   0.01267  Uiso   1.00
O111   O     0.76890   0.56410   0.43100   0.01267  Uiso   1.00
O112   O     0.79480   0.54330   0.21800   0.01267  Uiso   1.00
O113   O     0.76491   0.81291   0.66578   0.01267  Uiso   1.00
O114   O     0.84115   0.88845   0.58830   0.01267  Uiso   1.00
O115   O     0.59248   0.89058   0.60364   0.01267  Uiso   1.00
O116   O     0.59385   0.81295   0.67770   0.01267  Uiso   1.00
O117   O     0.10680   0.19740   0.30240   0.01267  Uiso   1.00
O118   O     0.18200   0.27230   0.22740   0.01267  Uiso   1.00
O119   O     0.57064   0.15734   0.31472   0.01267  Uiso   1.00
O120   O     0.56990   0.23430   0.23880   0.01267  Uiso   1.00
O121   O     0.81372   0.39882   0.06636   0.01267  Uiso   1.00
O122   O     0.73559   0.39999   0.06782   0.01267  Uiso   1.00
O123   O     0.10280   0.44010   0.06740   0.01267  Uiso   1.00
O124   O     0.17947   0.43957   0.06746   0.01267  Uiso   1.00
O125   O     0.92400   0.45520   0.01640   0.01267  Uiso   1.00
O126   O     0.77330   0.19560   0.22760   0.01267  Uiso   1.00
O127   O     0.80010   0.00490   0.43100   0.01267  Uiso   1.00
O128   O     0.98720   0.23870   0.21800   0.01267  Uiso   1.00
