data_ADAXEK_clean
_audit_creation_date              2014-07-02
_audit_creation_method            'Materials Studio'
_symmetry_space_group_name_H-M    'P1'
_symmetry_Int_Tables_number       1
_symmetry_cell_setting            triclinic
loop_
_symmetry_equiv_pos_as_xyz
  x,y,z
_cell_length_a                    7.1668
_cell_length_b                    9.8524
_cell_length_c                    12.3722
_cell_angle_alpha                 91.2854
_cell_angle_beta                  106.8360
_cell_angle_gamma                 85.5579
loop_
_atom_site_label
_atom_site_type_symbol
_atom_site_fract_x
_atom_site_fract_y
_atom_site_fract_z
_atom_site_U_iso_or_equiv
_atom_site_adp_type
_atom_site_occupancy
Co1    Co    0.50000   0.50000   0.50000   0.01267  Uiso   1.00
Co2    Co    1.00000   0.50000   0.50000   0.01267  Uiso   1.00
H1     H     0.54780   0.14320   0.63420   0.01267  Uiso   1.00
H2     H     0.10430   0.08770   0.63040   0.01267  Uiso   1.00
H3     H     0.50190   0.30230   0.08660   0.01267  Uiso   1.00
H4     H     0.59690   0.30480   0.28040   0.01267  Uiso   1.00
H5     H     0.08640   0.85680   0.63420   0.01267  Uiso   1.00
H6     H     0.52610   0.91230   0.63040   0.01267  Uiso   1.00
H7     H     0.58470   0.69770   0.08660   0.01267  Uiso   1.00
H8     H     0.68350   0.69520   0.28040   0.01267  Uiso   1.00
H9     H     0.45220   0.85680   0.36580   0.01267  Uiso   1.00
H10    H     0.89570   0.91230   0.36960   0.01267  Uiso   1.00
H11    H     0.49810   0.69770   0.91340   0.01267  Uiso   1.00
H12    H     0.40310   0.69520   0.71960   0.01267  Uiso   1.00
H13    H     0.91360   0.14320   0.36580   0.01267  Uiso   1.00
H14    H     0.47390   0.08770   0.36960   0.01267  Uiso   1.00
H15    H     0.41530   0.30230   0.91340   0.01267  Uiso   1.00
H16    H     0.31650   0.30480   0.71960   0.01267  Uiso   1.00
C1     C     0.82627   0.14150   0.62854   0.01267  Uiso   1.00
C2     C     0.65550   0.08580   0.63140   0.01267  Uiso   1.00
C3     C     0.98720   0.05290   0.63020   0.01267  Uiso   1.00
C4     C     0.82804   0.29170   0.61108   0.01267  Uiso   1.00
C5     C     0.53750   0.38310   0.12460   0.01267  Uiso   1.00
C6     C     0.59479   0.38400   0.24038   0.01267  Uiso   1.00
C7     C     0.80227   0.85850   0.62854   0.01267  Uiso   1.00
C8     C     0.97590   0.91420   0.63140   0.01267  Uiso   1.00
C9     C     0.64300   0.94710   0.63020   0.01267  Uiso   1.00
C10    C     0.78304   0.70830   0.61108   0.01267  Uiso   1.00
C11    C     0.58710   0.61690   0.12460   0.01267  Uiso   1.00
C12    C     0.64559   0.61600   0.24038   0.01267  Uiso   1.00
C13    C     0.17373   0.85850   0.37146   0.01267  Uiso   1.00
C14    C     0.34450   0.91420   0.36860   0.01267  Uiso   1.00
C15    C     0.01280   0.94710   0.36980   0.01267  Uiso   1.00
C16    C     0.17196   0.70830   0.38892   0.01267  Uiso   1.00
C17    C     0.46250   0.61690   0.87540   0.01267  Uiso   1.00
C18    C     0.40521   0.61600   0.75962   0.01267  Uiso   1.00
C19    C     0.19773   0.14150   0.37146   0.01267  Uiso   1.00
C20    C     0.02410   0.08580   0.36860   0.01267  Uiso   1.00
C21    C     0.35700   0.05290   0.36980   0.01267  Uiso   1.00
C22    C     0.21696   0.29170   0.38892   0.01267  Uiso   1.00
C23    C     0.41290   0.38310   0.87540   0.01267  Uiso   1.00
C24    C     0.35441   0.38400   0.75962   0.01267  Uiso   1.00
C25    C     0.53140   0.50000   0.06280   0.01267  Uiso   1.00
C26    C     0.46860   0.50000   0.93720   0.01267  Uiso   1.00
N1     N     0.64770   0.50000   0.29540   0.01267  Uiso   1.00
N2     N     0.35230   0.50000   0.70460   0.01267  Uiso   1.00
O1     O     0.68254   0.36640   0.61928   0.01267  Uiso   1.00
O2     O     0.97499   0.33000   0.58718   0.01267  Uiso   1.00
O3     O     0.93674   0.63360   0.61928   0.01267  Uiso   1.00
O4     O     0.61219   0.67000   0.58718   0.01267  Uiso   1.00
O5     O     0.31746   0.63360   0.38072   0.01267  Uiso   1.00
O6     O     0.02501   0.67000   0.41282   0.01267  Uiso   1.00
O7     O     0.06326   0.36640   0.38072   0.01267  Uiso   1.00
O8     O     0.38781   0.33000   0.41282   0.01267  Uiso   1.00
O9     O     0.70414   0.50000   0.40828   0.01267  Uiso   1.00
O10    O     0.29586   0.50000   0.59172   0.01267  Uiso   1.00
