data_image0
_cell_length_a       8.6006
_cell_length_b       10.173
_cell_length_c       11.125
_cell_angle_alpha    65.11
_cell_angle_beta     71.8
_cell_angle_gamma    78.86

_symmetry_space_group_name_H-M    "P 1"
_symmetry_int_tables_number       1

loop_
  _symmetry_equiv_pos_as_xyz
  'x, y, z'

loop_
  _atom_site_label
  _atom_site_occupancy
  _atom_site_fract_x
  _atom_site_fract_y
  _atom_site_fract_z
  _atom_site_thermal_displace_type
  _atom_site_B_iso_or_equiv
  _atom_site_type_symbol
  Gd1      1.0000 0.13188  0.43942  0.65371  Biso   1.000  Gd
  O1       1.0000 0.03460  0.36800  0.47930  Biso   1.000  O
  O2       1.0000 0.13190  0.20420  0.64710  Biso   1.000  O
  O3       1.0000 0.84430  0.38030  0.76430  Biso   1.000  O
  O4       1.0000 0.93910  0.52260  0.82580  Biso   1.000  O
  O5       1.0000 0.17890  0.26480  0.86850  Biso   1.000  O
  O6       1.0000 0.39790  0.30030  0.69440  Biso   1.000  O
  C1       1.0000 0.06790  0.23590  0.55230  Biso   1.000  C
  C2       1.0000 0.03420  0.11470  0.52290  Biso   1.000  C
  C3       1.0000 0.99270  0.98420  0.63050  Biso   1.000  C
  H1       1.0000 0.89450  0.99990  0.69510  Biso   1.000  H
  C4       1.0000 0.04290  0.13270  0.39030  Biso   1.000  C
  H2       1.0000 0.96610  0.21070  0.35440  Biso   1.000  H
  C5       1.0000 0.82100  0.46000  0.83260  Biso   1.000  C
  C6       1.0000 0.65490  0.48180  0.91770  Biso   1.000  C
  C7       1.0000 0.52640  0.40920  0.92850  Biso   1.000  C
  H3       1.0000 0.51080  0.43680  0.83910  Biso   1.000  H
  C8       1.0000 0.63020  0.56950  0.99230  Biso   1.000  C
  H4       1.0000 0.65920  0.66610  0.92980  Biso   1.000  H
  C9       1.0000 0.32590  0.23200  0.81930  Biso   1.000  C
  C10      1.0000 0.41770  0.11160  0.91020  Biso   1.000  C
  C11      1.0000 0.33780  0.04020  0.04810  Biso   1.000  C
  H5       1.0000 0.30300  0.10930  0.09090  Biso   1.000  H
  C12      1.0000 0.58120  0.07040  0.86210  Biso   1.000  C
  H6       1.0000 0.64590  0.15170  0.82890  Biso   1.000  H
  Gd2      1.0000 0.86812  0.56058  0.34629  Biso   1.000  Gd
  O7       1.0000 0.96540  0.63200  0.52070  Biso   1.000  O
  O8       1.0000 0.86810  0.79580  0.35290  Biso   1.000  O
  O9       1.0000 0.15570  0.61970  0.23570  Biso   1.000  O
  O10      1.0000 0.06090  0.47740  0.17420  Biso   1.000  O
  O11      1.0000 0.82110  0.73520  0.13150  Biso   1.000  O
  O12      1.0000 0.60210  0.69970  0.30560  Biso   1.000  O
  C13      1.0000 0.93210  0.76410  0.44770  Biso   1.000  C
  C14      1.0000 0.96580  0.88530  0.47710  Biso   1.000  C
  C15      1.0000 0.00730  0.01580  0.36950  Biso   1.000  C
  H7       1.0000 0.10550  0.00010  0.30490  Biso   1.000  H
  C16      1.0000 0.95710  0.86730  0.60970  Biso   1.000  C
  H8       1.0000 0.03390  0.78930  0.64560  Biso   1.000  H
  C17      1.0000 0.17900  0.54000  0.16740  Biso   1.000  C
  C18      1.0000 0.34510  0.51820  0.08230  Biso   1.000  C
  C19      1.0000 0.47360  0.59080  0.07150  Biso   1.000  C
  H9       1.0000 0.48920  0.56320  0.16090  Biso   1.000  H
  C20      1.0000 0.36980  0.43050  0.00770  Biso   1.000  C
  H10      1.0000 0.34080  0.33390  0.07020  Biso   1.000  H
  C21      1.0000 0.67410  0.76800  0.18070  Biso   1.000  C
  C22      1.0000 0.58230  0.88840  0.08980  Biso   1.000  C
  C23      1.0000 0.66220  0.95980  0.95190  Biso   1.000  C
  H11      1.0000 0.69700  0.89070  0.90910  Biso   1.000  H
  C24      1.0000 0.41880  0.92960  0.13790  Biso   1.000  C
  H12      1.0000 0.35410  0.84830  0.17110  Biso   1.000  H
