data_ADEGIA_clean
_audit_creation_date              2014-07-02
_audit_creation_method            'Materials Studio'
_symmetry_space_group_name_H-M    'P1'
_symmetry_Int_Tables_number       1
_symmetry_cell_setting            triclinic
loop_
_symmetry_equiv_pos_as_xyz
  x,y,z
_cell_length_a                    8.6066
_cell_length_b                    10.1560
_cell_length_c                    11.1610
_cell_angle_alpha                 65.2600
_cell_angle_beta                  71.7600
_cell_angle_gamma                 78.6800
loop_
_atom_site_label
_atom_site_type_symbol
_atom_site_fract_x
_atom_site_fract_y
_atom_site_fract_z
_atom_site_U_iso_or_equiv
_atom_site_adp_type
_atom_site_occupancy
Gd1    Gd    0.86814   0.56025   0.34671   0.01267  Uiso   1.00
Gd2    Gd    0.13186   0.43975   0.65329   0.01267  Uiso   1.00
H1     H     0.92870   0.78140   0.68110   0.01267  Uiso   1.00
H2     H     0.01670   0.02740   0.28030   0.01267  Uiso   1.00
H3     H     0.36530   0.88490   0.22730   0.01267  Uiso   1.00
H4     H     0.77130   0.93120   0.91890   0.01267  Uiso   1.00
H5     H     0.45750   0.64510   0.12230   0.01267  Uiso   1.00
H6     H     0.28400   0.38340   0.01480   0.01267  Uiso   1.00
H7     H     0.07130   0.21860   0.31890   0.01267  Uiso   1.00
H8     H     0.98330   0.97260   0.71970   0.01267  Uiso   1.00
H9     H     0.63470   0.11510   0.77270   0.01267  Uiso   1.00
H10    H     0.22870   0.06880   0.08110   0.01267  Uiso   1.00
H11    H     0.54250   0.35490   0.87770   0.01267  Uiso   1.00
H12    H     0.71600   0.61660   0.98520   0.01267  Uiso   1.00
C1     C     0.93160   0.76520   0.44740   0.01267  Uiso   1.00
C2     C     0.96740   0.88560   0.47640   0.01267  Uiso   1.00
C3     C     0.95720   0.86880   0.60850   0.01267  Uiso   1.00
C4     C     0.01000   0.01640   0.36870   0.01267  Uiso   1.00
C5     C     0.67460   0.76800   0.18010   0.01267  Uiso   1.00
C6     C     0.58260   0.88900   0.08890   0.01267  Uiso   1.00
C7     C     0.41990   0.93090   0.13600   0.01267  Uiso   1.00
C8     C     0.66200   0.95890   0.95180   0.01267  Uiso   1.00
C9     C     0.17890   0.53890   0.16910   0.01267  Uiso   1.00
C10    C     0.34520   0.51770   0.08240   0.01267  Uiso   1.00
C11    C     0.47470   0.58670   0.07300   0.01267  Uiso   1.00
C12    C     0.37040   0.43020   0.00900   0.01267  Uiso   1.00
C13    C     0.06840   0.23480   0.55260   0.01267  Uiso   1.00
C14    C     0.03260   0.11440   0.52360   0.01267  Uiso   1.00
C15    C     0.04280   0.13120   0.39150   0.01267  Uiso   1.00
C16    C     0.99000   0.98360   0.63130   0.01267  Uiso   1.00
C17    C     0.32540   0.23200   0.81990   0.01267  Uiso   1.00
C18    C     0.41740   0.11100   0.91110   0.01267  Uiso   1.00
C19    C     0.58010   0.06910   0.86400   0.01267  Uiso   1.00
C20    C     0.33800   0.04110   0.04820   0.01267  Uiso   1.00
C21    C     0.82110   0.46110   0.83090   0.01267  Uiso   1.00
C22    C     0.65480   0.48230   0.91760   0.01267  Uiso   1.00
C23    C     0.52530   0.41330   0.92700   0.01267  Uiso   1.00
C24    C     0.62960   0.56980   0.99100   0.01267  Uiso   1.00
O1     O     0.96380   0.63354   0.51944   0.01267  Uiso   1.00
O2     O     0.86890   0.79781   0.35090   0.01267  Uiso   1.00
O3     O     0.60220   0.70040   0.30452   0.01267  Uiso   1.00
O4     O     0.82170   0.73500   0.13105   0.01267  Uiso   1.00
O5     O     0.15690   0.61894   0.23584   0.01267  Uiso   1.00
O6     O     0.06310   0.47663   0.17499   0.01267  Uiso   1.00
O7     O     0.03620   0.36646   0.48056   0.01267  Uiso   1.00
O8     O     0.13110   0.20219   0.64910   0.01267  Uiso   1.00
O9     O     0.39780   0.29960   0.69548   0.01267  Uiso   1.00
O10    O     0.17830   0.26500   0.86895   0.01267  Uiso   1.00
O11    O     0.84310   0.38106   0.76416   0.01267  Uiso   1.00
O12    O     0.93690   0.52337   0.82501   0.01267  Uiso   1.00
