data_ADIQEL_clean
_audit_creation_date              2014-07-02
_audit_creation_method            'Materials Studio'
_symmetry_space_group_name_H-M    'P1'
_symmetry_Int_Tables_number       1
_symmetry_cell_setting            triclinic
loop_
_symmetry_equiv_pos_as_xyz
  x,y,z
_cell_length_a                    8.2010
_cell_length_b                    10.4920
_cell_length_c                    11.1250
_cell_angle_alpha                 90.0000
_cell_angle_beta                  95.2800
_cell_angle_gamma                 90.0000
loop_
_atom_site_label
_atom_site_type_symbol
_atom_site_fract_x
_atom_site_fract_y
_atom_site_fract_z
_atom_site_U_iso_or_equiv
_atom_site_adp_type
_atom_site_occupancy
Co1    Co    0.00000   0.50000   0.00000   0.01267  Uiso   1.00
Co2    Co    0.50000   0.00000   0.50000   0.01267  Uiso   1.00
H1     H     0.70160   0.40010   0.90040   0.01267  Uiso   1.00
H2     H     0.45800   0.46550   0.81230   0.01267  Uiso   1.00
H3     H     0.63700   0.82410   0.79900   0.01267  Uiso   1.00
H4     H     0.87490   0.74890   0.88910   0.01267  Uiso   1.00
H5     H     0.26800   0.82210   0.63150   0.01267  Uiso   1.00
H6     H     0.11910   0.69130   0.76060   0.01267  Uiso   1.00
H7     H     0.79840   0.90010   0.59960   0.01267  Uiso   1.00
H8     H     0.04200   0.96550   0.68770   0.01267  Uiso   1.00
H9     H     0.86300   0.32410   0.70100   0.01267  Uiso   1.00
H10    H     0.62510   0.24890   0.61090   0.01267  Uiso   1.00
H11    H     0.23200   0.32210   0.86850   0.01267  Uiso   1.00
H12    H     0.38090   0.19130   0.73940   0.01267  Uiso   1.00
H13    H     0.29840   0.59990   0.09960   0.01267  Uiso   1.00
H14    H     0.54200   0.53450   0.18770   0.01267  Uiso   1.00
H15    H     0.36300   0.17590   0.20100   0.01267  Uiso   1.00
H16    H     0.12510   0.25110   0.11090   0.01267  Uiso   1.00
H17    H     0.73200   0.17790   0.36850   0.01267  Uiso   1.00
H18    H     0.88090   0.30870   0.23940   0.01267  Uiso   1.00
H19    H     0.20160   0.09990   0.40040   0.01267  Uiso   1.00
H20    H     0.95800   0.03450   0.31230   0.01267  Uiso   1.00
H21    H     0.13700   0.67590   0.29900   0.01267  Uiso   1.00
H22    H     0.37490   0.75110   0.38910   0.01267  Uiso   1.00
H23    H     0.76800   0.67790   0.13150   0.01267  Uiso   1.00
H24    H     0.61910   0.80870   0.26060   0.01267  Uiso   1.00
C1     C     0.68530   0.48730   0.87980   0.01267  Uiso   1.00
C2     C     0.54460   0.52480   0.82890   0.01267  Uiso   1.00
C3     C     0.64860   0.73680   0.82070   0.01267  Uiso   1.00
C4     C     0.78540   0.69220   0.87230   0.01267  Uiso   1.00
C5     C     0.52210   0.65250   0.79890   0.01267  Uiso   1.00
C6     C     0.37090   0.69690   0.75070   0.01267  Uiso   1.00
C7     C     0.37230   0.78830   0.65880   0.01267  Uiso   1.00
C8     C     0.21560   0.65390   0.79910   0.01267  Uiso   1.00
C9     C     0.81470   0.98730   0.62020   0.01267  Uiso   1.00
C10    C     0.95540   0.02480   0.67110   0.01267  Uiso   1.00
C11    C     0.85140   0.23680   0.67930   0.01267  Uiso   1.00
C12    C     0.71460   0.19220   0.62770   0.01267  Uiso   1.00
C13    C     0.97790   0.15250   0.70110   0.01267  Uiso   1.00
C14    C     0.12910   0.19690   0.74930   0.01267  Uiso   1.00
C15    C     0.12770   0.28830   0.84120   0.01267  Uiso   1.00
C16    C     0.28440   0.15390   0.70090   0.01267  Uiso   1.00
C17    C     0.31470   0.51270   0.12020   0.01267  Uiso   1.00
C18    C     0.45540   0.47520   0.17110   0.01267  Uiso   1.00
C19    C     0.35140   0.26320   0.17930   0.01267  Uiso   1.00
C20    C     0.21460   0.30780   0.12770   0.01267  Uiso   1.00
C21    C     0.47790   0.34750   0.20110   0.01267  Uiso   1.00
C22    C     0.62910   0.30310   0.24930   0.01267  Uiso   1.00
C23    C     0.62770   0.21170   0.34120   0.01267  Uiso   1.00
C24    C     0.78440   0.34610   0.20090   0.01267  Uiso   1.00
C25    C     0.18530   0.01270   0.37980   0.01267  Uiso   1.00
C26    C     0.04460   0.97520   0.32890   0.01267  Uiso   1.00
C27    C     0.14860   0.76320   0.32070   0.01267  Uiso   1.00
C28    C     0.28540   0.80780   0.37230   0.01267  Uiso   1.00
C29    C     0.02210   0.84750   0.29890   0.01267  Uiso   1.00
C30    C     0.87090   0.80310   0.25070   0.01267  Uiso   1.00
C31    C     0.87230   0.71170   0.15880   0.01267  Uiso   1.00
C32    C     0.71560   0.84610   0.29910   0.01267  Uiso   1.00
N1     N     0.80490   0.56920   0.90272   0.01267  Uiso   1.00
N2     N     0.69510   0.06920   0.59728   0.01267  Uiso   1.00
N3     N     0.19510   0.43080   0.09728   0.01267  Uiso   1.00
N4     N     0.30490   0.93080   0.40272   0.01267  Uiso   1.00
O1     O     0.49890   0.83585   0.60306   0.01267  Uiso   1.00
O2     O     0.19070   0.57570   0.88302   0.01267  Uiso   1.00
O3     O     0.00110   0.33585   0.89694   0.01267  Uiso   1.00
O4     O     0.30930   0.07570   0.61698   0.01267  Uiso   1.00
O5     O     0.50110   0.16415   0.39694   0.01267  Uiso   1.00
O6     O     0.80930   0.42430   0.11698   0.01267  Uiso   1.00
O7     O     0.99890   0.66415   0.10306   0.01267  Uiso   1.00
O8     O     0.69070   0.92430   0.38302   0.01267  Uiso   1.00
