data_image0
_cell_length_a       17.091
_cell_length_b       17.091
_cell_length_c       14.611
_cell_angle_alpha    90
_cell_angle_beta     90
_cell_angle_gamma    90

_symmetry_space_group_name_H-M    "P 1"
_symmetry_int_tables_number       1

loop_
  _symmetry_equiv_pos_as_xyz
  'x, y, z'

loop_
  _atom_site_label
  _atom_site_occupancy
  _atom_site_fract_x
  _atom_site_fract_y
  _atom_site_fract_z
  _atom_site_thermal_displace_type
  _atom_site_B_iso_or_equiv
  _atom_site_type_symbol
  V1       1.0000 0.37871  0.38682  0.62810  Biso   1.000  V
  V2       1.0000 0.68544  0.45266  0.58869  Biso   1.000  V
  V3       1.0000 0.53321  0.31133  0.58704  Biso   1.000  V
  V4       1.0000 0.56627  0.42894  0.73017  Biso   1.000  V
  C1       1.0000 0.07860  0.27260  0.68410  Biso   1.000  C
  H1       1.0000 0.06890  0.26150  0.74540  Biso   1.000  H
  C2       1.0000 0.01580  0.27580  0.62590  Biso   1.000  C
  H2       1.0000 0.96540  0.26740  0.64770  Biso   1.000  H
  C3       1.0000 0.02860  0.29210  0.53270  Biso   1.000  C
  C4       1.0000 0.16440  0.30480  0.57310  Biso   1.000  C
  H3       1.0000 0.21480  0.31850  0.55550  Biso   1.000  H
  C5       1.0000 0.82800  0.30460  0.42660  Biso   1.000  C
  H4       1.0000 0.77760  0.31840  0.44450  Biso   1.000  H
  C6       1.0000 0.88810  0.31170  0.48860  Biso   1.000  C
  H5       1.0000 0.87790  0.33050  0.54710  Biso   1.000  H
  C7       1.0000 0.96350  0.29100  0.46500  Biso   1.000  C
  C8       1.0000 0.91420  0.26330  0.31570  Biso   1.000  C
  H6       1.0000 0.92390  0.24930  0.25530  Biso   1.000  H
  C9       1.0000 0.97670  0.26740  0.37470  Biso   1.000  C
  H7       1.0000 0.02690  0.25480  0.35500  Biso   1.000  H
  C10      1.0000 0.10570  0.30680  0.50790  Biso   1.000  C
  H8       1.0000 0.11800  0.31810  0.44730  Biso   1.000  H
  N1       1.0000 0.15240  0.28430  0.65910  Biso   1.000  N
  N2       1.0000 0.27830  0.16020  0.65980  Biso   1.000  N
  O1       1.0000 0.48090  0.37070  0.68200  Biso   1.000  O
  O2       1.0000 0.62040  0.36920  0.62340  Biso   1.000  O
  O3       1.0000 0.36890  0.49080  0.68220  Biso   1.000  O
  O4       1.0000 0.31350  0.44050  0.53890  Biso   1.000  O
  O5       1.0000 0.42710  0.32030  0.53700  Biso   1.000  O
  O6       1.0000 0.31880  0.32830  0.68180  Biso   1.000  O
  V5       1.0000 0.62129  0.61318  0.62810  Biso   1.000  V
  V6       1.0000 0.31456  0.54734  0.58869  Biso   1.000  V
  V7       1.0000 0.46679  0.68867  0.58704  Biso   1.000  V
  V8       1.0000 0.43373  0.57106  0.73017  Biso   1.000  V
  C11      1.0000 0.92140  0.72740  0.68410  Biso   1.000  C
  H9       1.0000 0.93110  0.73850  0.74540  Biso   1.000  H
  C12      1.0000 0.98420  0.72420  0.62590  Biso   1.000  C
  H10      1.0000 0.03460  0.73260  0.64770  Biso   1.000  H
  C13      1.0000 0.97140  0.70790  0.53270  Biso   1.000  C
  C14      1.0000 0.83560  0.69520  0.57310  Biso   1.000  C
  H11      1.0000 0.78520  0.68150  0.55550  Biso   1.000  H
  C15      1.0000 0.17200  0.69540  0.42660  Biso   1.000  C
  H12      1.0000 0.22240  0.68160  0.44450  Biso   1.000  H
  C16      1.0000 0.11190  0.68830  0.48860  Biso   1.000  C
  H13      1.0000 0.12210  0.66950  0.54710  Biso   1.000  H
  C17      1.0000 0.03650  0.70900  0.46500  Biso   1.000  C
  C18      1.0000 0.08580  0.73670  0.31570  Biso   1.000  C
  H14      1.0000 0.07610  0.75070  0.25530  Biso   1.000  H
  C19      1.0000 0.02330  0.73260  0.37470  Biso   1.000  C
  H15      1.0000 0.97310  0.74520  0.35500  Biso   1.000  H
  C20      1.0000 0.89430  0.69320  0.50790  Biso   1.000  C
  H16      1.0000 0.88200  0.68190  0.44730  Biso   1.000  H
  N3       1.0000 0.84760  0.71570  0.65910  Biso   1.000  N
  N4       1.0000 0.72170  0.83980  0.65980  Biso   1.000  N
  O7       1.0000 0.51910  0.62930  0.68200  Biso   1.000  O
  O8       1.0000 0.37960  0.63080  0.62340  Biso   1.000  O
  O9       1.0000 0.63110  0.50920  0.68220  Biso   1.000  O
  O10      1.0000 0.68650  0.55950  0.53890  Biso   1.000  O
  O11      1.0000 0.57290  0.67970  0.53700  Biso   1.000  O
  O12      1.0000 0.68120  0.67170  0.68180  Biso   1.000  O
  V9       1.0000 0.38682  0.62129  0.37190  Biso   1.000  V
  V10      1.0000 0.45266  0.31456  0.41131  Biso   1.000  V
  V11      1.0000 0.31133  0.46679  0.41296  Biso   1.000  V
  V12      1.0000 0.42894  0.43373  0.26983  Biso   1.000  V
  C21      1.0000 0.27260  0.92140  0.31590  Biso   1.000  C
  H17      1.0000 0.26150  0.93110  0.25460  Biso   1.000  H
  C22      1.0000 0.27580  0.98420  0.37410  Biso   1.000  C
  H18      1.0000 0.26740  0.03460  0.35230  Biso   1.000  H
  C23      1.0000 0.29210  0.97140  0.46730  Biso   1.000  C
  C24      1.0000 0.30480  0.83560  0.42690  Biso   1.000  C
  H19      1.0000 0.31850  0.78520  0.44450  Biso   1.000  H
  C25      1.0000 0.30460  0.17200  0.57340  Biso   1.000  C
  H20      1.0000 0.31840  0.22240  0.55550  Biso   1.000  H
  C26      1.0000 0.31170  0.11190  0.51140  Biso   1.000  C
  H21      1.0000 0.33050  0.12210  0.45290  Biso   1.000  H
  C27      1.0000 0.29100  0.03650  0.53500  Biso   1.000  C
  C28      1.0000 0.26330  0.08580  0.68430  Biso   1.000  C
  H22      1.0000 0.24930  0.07610  0.74470  Biso   1.000  H
  C29      1.0000 0.26740  0.02330  0.62530  Biso   1.000  C
  H23      1.0000 0.25480  0.97310  0.64500  Biso   1.000  H
  C30      1.0000 0.30680  0.89430  0.49210  Biso   1.000  C
  H24      1.0000 0.31810  0.88200  0.55270  Biso   1.000  H
  N5       1.0000 0.28430  0.84760  0.34090  Biso   1.000  N
  N6       1.0000 0.16020  0.72170  0.34020  Biso   1.000  N
  O13      1.0000 0.37070  0.51910  0.31800  Biso   1.000  O
  O14      1.0000 0.36920  0.37960  0.37660  Biso   1.000  O
  O15      1.0000 0.49080  0.63110  0.31780  Biso   1.000  O
  O16      1.0000 0.44050  0.68650  0.46110  Biso   1.000  O
  O17      1.0000 0.32030  0.57290  0.46300  Biso   1.000  O
  O18      1.0000 0.32830  0.68120  0.31820  Biso   1.000  O
  V13      1.0000 0.61318  0.37871  0.37190  Biso   1.000  V
  V14      1.0000 0.54734  0.68544  0.41131  Biso   1.000  V
  V15      1.0000 0.68867  0.53321  0.41296  Biso   1.000  V
  V16      1.0000 0.57106  0.56627  0.26983  Biso   1.000  V
  C31      1.0000 0.72740  0.07860  0.31590  Biso   1.000  C
  H25      1.0000 0.73850  0.06890  0.25460  Biso   1.000  H
  C32      1.0000 0.72420  0.01580  0.37410  Biso   1.000  C
  H26      1.0000 0.73260  0.96540  0.35230  Biso   1.000  H
  C33      1.0000 0.70790  0.02860  0.46730  Biso   1.000  C
  C34      1.0000 0.69520  0.16440  0.42690  Biso   1.000  C
  H27      1.0000 0.68150  0.21480  0.44450  Biso   1.000  H
  C35      1.0000 0.69540  0.82800  0.57340  Biso   1.000  C
  H28      1.0000 0.68160  0.77760  0.55550  Biso   1.000  H
  C36      1.0000 0.68830  0.88810  0.51140  Biso   1.000  C
  H29      1.0000 0.66950  0.87790  0.45290  Biso   1.000  H
  C37      1.0000 0.70900  0.96350  0.53500  Biso   1.000  C
  C38      1.0000 0.73670  0.91420  0.68430  Biso   1.000  C
  H30      1.0000 0.75070  0.92390  0.74470  Biso   1.000  H
  C39      1.0000 0.73260  0.97670  0.62530  Biso   1.000  C
  H31      1.0000 0.74520  0.02690  0.64500  Biso   1.000  H
  C40      1.0000 0.69320  0.10570  0.49210  Biso   1.000  C
  H32      1.0000 0.68190  0.11800  0.55270  Biso   1.000  H
  N7       1.0000 0.71570  0.15240  0.34090  Biso   1.000  N
  N8       1.0000 0.83980  0.27830  0.34020  Biso   1.000  N
  O19      1.0000 0.62930  0.48090  0.31800  Biso   1.000  O
  O20      1.0000 0.63080  0.62040  0.37660  Biso   1.000  O
  O21      1.0000 0.50920  0.36890  0.31780  Biso   1.000  O
  O22      1.0000 0.55950  0.31350  0.46110  Biso   1.000  O
  O23      1.0000 0.67970  0.42710  0.46300  Biso   1.000  O
  O24      1.0000 0.67170  0.31880  0.31820  Biso   1.000  O
  V17      1.0000 0.87871  0.11318  0.12810  Biso   1.000  V
  V18      1.0000 0.18544  0.04734  0.08869  Biso   1.000  V
  V19      1.0000 0.03321  0.18867  0.08704  Biso   1.000  V
  V20      1.0000 0.06627  0.07106  0.23017  Biso   1.000  V
  C41      1.0000 0.57860  0.22740  0.18410  Biso   1.000  C
  H33      1.0000 0.56890  0.23850  0.24540  Biso   1.000  H
  C42      1.0000 0.51580  0.22420  0.12590  Biso   1.000  C
  H34      1.0000 0.46540  0.23260  0.14770  Biso   1.000  H
  C43      1.0000 0.52860  0.20790  0.03270  Biso   1.000  C
  C44      1.0000 0.66440  0.19520  0.07310  Biso   1.000  C
  H35      1.0000 0.71480  0.18150  0.05550  Biso   1.000  H
  C45      1.0000 0.32800  0.19540  0.92660  Biso   1.000  C
  H36      1.0000 0.27760  0.18160  0.94450  Biso   1.000  H
  C46      1.0000 0.38810  0.18830  0.98860  Biso   1.000  C
  H37      1.0000 0.37790  0.16950  0.04710  Biso   1.000  H
  C47      1.0000 0.46350  0.20900  0.96500  Biso   1.000  C
  C48      1.0000 0.41420  0.23670  0.81570  Biso   1.000  C
  H38      1.0000 0.42390  0.25070  0.75530  Biso   1.000  H
  C49      1.0000 0.47670  0.23260  0.87470  Biso   1.000  C
  H39      1.0000 0.52690  0.24520  0.85500  Biso   1.000  H
  C50      1.0000 0.60570  0.19320  0.00790  Biso   1.000  C
  H40      1.0000 0.61800  0.18190  0.94730  Biso   1.000  H
  N9       1.0000 0.65240  0.21570  0.15910  Biso   1.000  N
  N10      1.0000 0.77830  0.33980  0.15980  Biso   1.000  N
  O25      1.0000 0.98090  0.12930  0.18200  Biso   1.000  O
  O26      1.0000 0.12040  0.13080  0.12340  Biso   1.000  O
  O27      1.0000 0.86890  0.00920  0.18220  Biso   1.000  O
  O28      1.0000 0.81350  0.05950  0.03890  Biso   1.000  O
  O29      1.0000 0.92710  0.17970  0.03700  Biso   1.000  O
  O30      1.0000 0.81880  0.17170  0.18180  Biso   1.000  O
  V21      1.0000 0.12129  0.88682  0.12810  Biso   1.000  V
  V22      1.0000 0.81456  0.95266  0.08869  Biso   1.000  V
  V23      1.0000 0.96679  0.81133  0.08704  Biso   1.000  V
  V24      1.0000 0.93373  0.92894  0.23017  Biso   1.000  V
  C51      1.0000 0.42140  0.77260  0.18410  Biso   1.000  C
  H41      1.0000 0.43110  0.76150  0.24540  Biso   1.000  H
  C52      1.0000 0.48420  0.77580  0.12590  Biso   1.000  C
  H42      1.0000 0.53460  0.76740  0.14770  Biso   1.000  H
  C53      1.0000 0.47140  0.79210  0.03270  Biso   1.000  C
  C54      1.0000 0.33560  0.80480  0.07310  Biso   1.000  C
  H43      1.0000 0.28520  0.81850  0.05550  Biso   1.000  H
  C55      1.0000 0.67200  0.80460  0.92660  Biso   1.000  C
  H44      1.0000 0.72240  0.81840  0.94450  Biso   1.000  H
  C56      1.0000 0.61190  0.81170  0.98860  Biso   1.000  C
  H45      1.0000 0.62210  0.83050  0.04710  Biso   1.000  H
  C57      1.0000 0.53650  0.79100  0.96500  Biso   1.000  C
  C58      1.0000 0.58580  0.76330  0.81570  Biso   1.000  C
  H46      1.0000 0.57610  0.74930  0.75530  Biso   1.000  H
  C59      1.0000 0.52330  0.76740  0.87470  Biso   1.000  C
  H47      1.0000 0.47310  0.75480  0.85500  Biso   1.000  H
  C60      1.0000 0.39430  0.80680  0.00790  Biso   1.000  C
  H48      1.0000 0.38200  0.81810  0.94730  Biso   1.000  H
  N11      1.0000 0.34760  0.78430  0.15910  Biso   1.000  N
  N12      1.0000 0.22170  0.66020  0.15980  Biso   1.000  N
  O31      1.0000 0.01910  0.87070  0.18200  Biso   1.000  O
  O32      1.0000 0.87960  0.86920  0.12340  Biso   1.000  O
  O33      1.0000 0.13110  0.99080  0.18220  Biso   1.000  O
  O34      1.0000 0.18650  0.94050  0.03890  Biso   1.000  O
  O35      1.0000 0.07290  0.82030  0.03700  Biso   1.000  O
  O36      1.0000 0.18120  0.82830  0.18180  Biso   1.000  O
  V25      1.0000 0.88682  0.87871  0.87190  Biso   1.000  V
  V26      1.0000 0.95266  0.18544  0.91131  Biso   1.000  V
  V27      1.0000 0.81133  0.03321  0.91296  Biso   1.000  V
  V28      1.0000 0.92894  0.06627  0.76983  Biso   1.000  V
  C61      1.0000 0.77260  0.57860  0.81590  Biso   1.000  C
  H49      1.0000 0.76150  0.56890  0.75460  Biso   1.000  H
  C62      1.0000 0.77580  0.51580  0.87410  Biso   1.000  C
  H50      1.0000 0.76740  0.46540  0.85230  Biso   1.000  H
  C63      1.0000 0.79210  0.52860  0.96730  Biso   1.000  C
  C64      1.0000 0.80480  0.66440  0.92690  Biso   1.000  C
  H51      1.0000 0.81850  0.71480  0.94450  Biso   1.000  H
  C65      1.0000 0.80460  0.32800  0.07340  Biso   1.000  C
  H52      1.0000 0.81840  0.27760  0.05550  Biso   1.000  H
  C66      1.0000 0.81170  0.38810  0.01140  Biso   1.000  C
  H53      1.0000 0.83050  0.37790  0.95290  Biso   1.000  H
  C67      1.0000 0.79100  0.46350  0.03500  Biso   1.000  C
  C68      1.0000 0.76330  0.41420  0.18430  Biso   1.000  C
  H54      1.0000 0.74930  0.42390  0.24470  Biso   1.000  H
  C69      1.0000 0.76740  0.47670  0.12530  Biso   1.000  C
  H55      1.0000 0.75480  0.52690  0.14500  Biso   1.000  H
  C70      1.0000 0.80680  0.60570  0.99210  Biso   1.000  C
  H56      1.0000 0.81810  0.61800  0.05270  Biso   1.000  H
  N13      1.0000 0.78430  0.65240  0.84090  Biso   1.000  N
  N14      1.0000 0.66020  0.77830  0.84020  Biso   1.000  N
  O37      1.0000 0.87070  0.98090  0.81800  Biso   1.000  O
  O38      1.0000 0.86920  0.12040  0.87660  Biso   1.000  O
  O39      1.0000 0.99080  0.86890  0.81780  Biso   1.000  O
  O40      1.0000 0.94050  0.81350  0.96110  Biso   1.000  O
  O41      1.0000 0.82030  0.92710  0.96300  Biso   1.000  O
  O42      1.0000 0.82830  0.81880  0.81820  Biso   1.000  O
  V29      1.0000 0.11318  0.12129  0.87190  Biso   1.000  V
  V30      1.0000 0.04734  0.81456  0.91131  Biso   1.000  V
  V31      1.0000 0.18867  0.96679  0.91296  Biso   1.000  V
  V32      1.0000 0.07106  0.93373  0.76983  Biso   1.000  V
  C71      1.0000 0.22740  0.42140  0.81590  Biso   1.000  C
  H57      1.0000 0.23850  0.43110  0.75460  Biso   1.000  H
  C72      1.0000 0.22420  0.48420  0.87410  Biso   1.000  C
  H58      1.0000 0.23260  0.53460  0.85230  Biso   1.000  H
  C73      1.0000 0.20790  0.47140  0.96730  Biso   1.000  C
  C74      1.0000 0.19520  0.33560  0.92690  Biso   1.000  C
  H59      1.0000 0.18150  0.28520  0.94450  Biso   1.000  H
  C75      1.0000 0.19540  0.67200  0.07340  Biso   1.000  C
  H60      1.0000 0.18160  0.72240  0.05550  Biso   1.000  H
  C76      1.0000 0.18830  0.61190  0.01140  Biso   1.000  C
  H61      1.0000 0.16950  0.62210  0.95290  Biso   1.000  H
  C77      1.0000 0.20900  0.53650  0.03500  Biso   1.000  C
  C78      1.0000 0.23670  0.58580  0.18430  Biso   1.000  C
  H62      1.0000 0.25070  0.57610  0.24470  Biso   1.000  H
  C79      1.0000 0.23260  0.52330  0.12530  Biso   1.000  C
  H63      1.0000 0.24520  0.47310  0.14500  Biso   1.000  H
  C80      1.0000 0.19320  0.39430  0.99210  Biso   1.000  C
  H64      1.0000 0.18190  0.38200  0.05270  Biso   1.000  H
  N15      1.0000 0.21570  0.34760  0.84090  Biso   1.000  N
  N16      1.0000 0.33980  0.22170  0.84020  Biso   1.000  N
  O43      1.0000 0.12930  0.01910  0.81800  Biso   1.000  O
  O44      1.0000 0.13080  0.87960  0.87660  Biso   1.000  O
  O45      1.0000 0.00920  0.13110  0.81780  Biso   1.000  O
  O46      1.0000 0.05950  0.18650  0.96110  Biso   1.000  O
  O47      1.0000 0.17970  0.07290  0.96300  Biso   1.000  O
  O48      1.0000 0.17170  0.18120  0.81820  Biso   1.000  O
  Ni1      1.0000 0.24639  0.25361  0.75000  Biso   1.000  Ni
  Ni2      1.0000 0.75361  0.74639  0.75000  Biso   1.000  Ni
  Ni3      1.0000 0.25361  0.75361  0.25000  Biso   1.000  Ni
  Ni4      1.0000 0.74639  0.24639  0.25000  Biso   1.000  Ni
  O49      1.0000 0.50000  0.50000  0.78240  Biso   1.000  O
  O50      1.0000 0.50000  0.50000  0.21760  Biso   1.000  O
  O51      1.0000 0.00000  0.00000  0.28240  Biso   1.000  O
  O52      1.0000 0.00000  0.00000  0.71760  Biso   1.000  O
