data_ADODII_clean
_audit_creation_date              2014-07-02
_audit_creation_method            'Materials Studio'
_symmetry_space_group_name_H-M    'P1'
_symmetry_Int_Tables_number       1
_symmetry_cell_setting            triclinic
loop_
_symmetry_equiv_pos_as_xyz
  x,y,z
_cell_length_a                    7.3933
_cell_length_b                    14.3490
_cell_length_c                    16.9754
_cell_angle_alpha                 104.1540
_cell_angle_beta                  102.5780
_cell_angle_gamma                 90.0000
loop_
_atom_site_label
_atom_site_type_symbol
_atom_site_fract_x
_atom_site_fract_y
_atom_site_fract_z
_atom_site_U_iso_or_equiv
_atom_site_adp_type
_atom_site_occupancy
La1    La    0.50739   0.96377   0.50132   0.01267  Uiso   1.00
La2    La    0.00607   0.03623   0.49868   0.01267  Uiso   1.00
H1     H     0.28080   0.52700   0.09880   0.01267  Uiso   1.00
H2     H     0.30160   0.43340   0.03120   0.01267  Uiso   1.00
H3     H     0.89800   0.49210   0.11040   0.01267  Uiso   1.00
H4     H     0.92280   0.42400   0.17140   0.01267  Uiso   1.00
H5     H     0.36880   0.34370   0.13060   0.01267  Uiso   1.00
H6     H     0.35120   0.43310   0.20300   0.01267  Uiso   1.00
H7     H     0.96680   0.28100   0.06880   0.01267  Uiso   1.00
H8     H     0.89940   0.34770   0.00840   0.01267  Uiso   1.00
H9     H     0.57410   0.34190   0.24840   0.01267  Uiso   1.00
H10    H     0.77600   0.26880   0.33820   0.01267  Uiso   1.00
H11    H     0.34420   0.12730   0.37160   0.01267  Uiso   1.00
H12    H     0.14730   0.19940   0.28240   0.01267  Uiso   1.00
H13    H     0.25200   0.21060   0.86280   0.01267  Uiso   1.00
H14    H     0.10800   0.11890   0.73060   0.01267  Uiso   1.00
H15    H     0.62910   0.11880   0.80240   0.01267  Uiso   1.00
H16    H     0.77260   0.20640   0.93460   0.01267  Uiso   1.00
H17    H     0.72590   0.55600   0.19840   0.01267  Uiso   1.00
H18    H     0.58140   0.67220   0.27600   0.01267  Uiso   1.00
H19    H     0.07100   0.79040   0.41760   0.01267  Uiso   1.00
H20    H     0.22050   0.67560   0.33560   0.01267  Uiso   1.00
H21    H     0.18200   0.47300   0.90120   0.01267  Uiso   1.00
H22    H     0.27040   0.56660   0.96880   0.01267  Uiso   1.00
H23    H     0.78760   0.50790   0.88960   0.01267  Uiso   1.00
H24    H     0.75140   0.57600   0.82860   0.01267  Uiso   1.00
H25    H     0.23820   0.65630   0.86940   0.01267  Uiso   1.00
H26    H     0.14820   0.56690   0.79700   0.01267  Uiso   1.00
H27    H     0.89800   0.71900   0.93120   0.01267  Uiso   1.00
H28    H     0.89100   0.65230   0.99160   0.01267  Uiso   1.00
H29    H     0.32570   0.65810   0.75160   0.01267  Uiso   1.00
H30    H     0.43780   0.73120   0.66180   0.01267  Uiso   1.00
H31    H     0.97260   0.87270   0.62840   0.01267  Uiso   1.00
H32    H     0.86490   0.80060   0.71760   0.01267  Uiso   1.00
H33    H     0.38920   0.78940   0.13720   0.01267  Uiso   1.00
H34    H     0.37740   0.88110   0.26940   0.01267  Uiso   1.00
H35    H     0.82670   0.88120   0.19760   0.01267  Uiso   1.00
H36    H     0.83800   0.79360   0.06540   0.01267  Uiso   1.00
H37    H     0.52750   0.44400   0.80160   0.01267  Uiso   1.00
H38    H     0.30540   0.32780   0.72400   0.01267  Uiso   1.00
H39    H     0.65340   0.20960   0.58240   0.01267  Uiso   1.00
H40    H     0.88490   0.32440   0.66440   0.01267  Uiso   1.00
C1     C     0.12480   0.41050   0.10400   0.01267  Uiso   1.00
C2     C     0.21370   0.47090   0.05880   0.01267  Uiso   1.00
C3     C     0.98830   0.46610   0.14880   0.01267  Uiso   1.00
C4     C     0.28370   0.37760   0.16240   0.01267  Uiso   1.00
C5     C     0.00820   0.32470   0.04000   0.01267  Uiso   1.00
C6     C     0.34230   0.27550   0.25560   0.01267  Uiso   1.00
C7     C     0.52810   0.29810   0.27260   0.01267  Uiso   1.00
C8     C     0.64890   0.25440   0.32700   0.01267  Uiso   1.00
C9     C     0.58310   0.19110   0.36400   0.01267  Uiso   1.00
C10    C     0.39180   0.17000   0.34700   0.01267  Uiso   1.00
C11    C     0.27470   0.21290   0.29340   0.01267  Uiso   1.00
C12    C     0.02170   0.21870   0.90880   0.01267  Uiso   1.00
C13    C     0.12630   0.19220   0.85020   0.01267  Uiso   1.00
C14    C     0.03940   0.13710   0.77120   0.01267  Uiso   1.00
C15    C     0.85230   0.10890   0.75240   0.01267  Uiso   1.00
C16    C     0.75500   0.13660   0.81420   0.01267  Uiso   1.00
C17    C     0.83930   0.19020   0.89300   0.01267  Uiso   1.00
C18    C     0.75460   0.05380   0.66880   0.01267  Uiso   1.00
C19    C     0.98670   0.60510   0.25800   0.01267  Uiso   1.00
C20    C     0.79600   0.60370   0.24160   0.01267  Uiso   1.00
C21    C     0.71020   0.67230   0.28900   0.01267  Uiso   1.00
C22    C     0.81020   0.74280   0.35700   0.01267  Uiso   1.00
C23    C     0.00130   0.74360   0.37340   0.01267  Uiso   1.00
C24    C     0.09160   0.67480   0.32420   0.01267  Uiso   1.00
C25    C     0.71240   0.81750   0.40620   0.01267  Uiso   1.00
C26    C     0.71630   0.14370   0.41860   0.01267  Uiso   1.00
C27    C     0.02080   0.58950   0.89600   0.01267  Uiso   1.00
C28    C     0.15490   0.52910   0.94120   0.01267  Uiso   1.00
C29    C     0.83950   0.53390   0.85120   0.01267  Uiso   1.00
C30    C     0.12130   0.62240   0.83760   0.01267  Uiso   1.00
C31    C     0.96820   0.67530   0.96000   0.01267  Uiso   1.00
C32    C     0.08670   0.72450   0.74440   0.01267  Uiso   1.00
C33    C     0.25550   0.70190   0.72740   0.01267  Uiso   1.00
C34    C     0.32190   0.74560   0.67300   0.01267  Uiso   1.00
C35    C     0.21910   0.80890   0.63600   0.01267  Uiso   1.00
C36    C     0.04480   0.83000   0.65300   0.01267  Uiso   1.00
C37    C     0.98130   0.78710   0.70660   0.01267  Uiso   1.00
C38    C     0.11290   0.78130   0.09120   0.01267  Uiso   1.00
C39    C     0.27610   0.80780   0.14980   0.01267  Uiso   1.00
C40    C     0.26820   0.86290   0.22880   0.01267  Uiso   1.00
C41    C     0.09990   0.89110   0.24760   0.01267  Uiso   1.00
C42    C     0.94080   0.86340   0.18580   0.01267  Uiso   1.00
C43    C     0.94630   0.80980   0.10700   0.01267  Uiso   1.00
C44    C     0.08580   0.94620   0.33120   0.01267  Uiso   1.00
C45    C     0.72870   0.39490   0.74200   0.01267  Uiso   1.00
C46    C     0.55440   0.39630   0.75840   0.01267  Uiso   1.00
C47    C     0.42120   0.32770   0.71100   0.01267  Uiso   1.00
C48    C     0.45320   0.25720   0.64300   0.01267  Uiso   1.00
C49    C     0.62790   0.25640   0.62660   0.01267  Uiso   1.00
C50    C     0.76740   0.32520   0.67580   0.01267  Uiso   1.00
C51    C     0.30620   0.18250   0.59380   0.01267  Uiso   1.00
C52    C     0.29770   0.85630   0.58140   0.01267  Uiso   1.00
O1     O     0.83229   0.04240   0.60778   0.01267  Uiso   1.00
O2     O     0.59327   0.02220   0.65794   0.01267  Uiso   1.00
O3     O     0.88300   0.17390   0.44260   0.01267  Uiso   1.00
O4     O     0.66035   0.07190   0.44010   0.01267  Uiso   1.00
O5     O     0.80697   0.88390   0.46534   0.01267  Uiso   1.00
O6     O     0.54063   0.81540   0.39046   0.01267  Uiso   1.00
O7     O     0.21310   0.31540   0.20420   0.01267  Uiso   1.00
O8     O     0.08835   0.54230   0.21450   0.01267  Uiso   1.00
O9     O     0.11595   0.27560   0.98510   0.01267  Uiso   1.00
O10    O     0.22451   0.95760   0.39222   0.01267  Uiso   1.00
O11    O     0.93533   0.97780   0.34206   0.01267  Uiso   1.00
O12    O     0.44040   0.82610   0.55740   0.01267  Uiso   1.00
O13    O     0.22025   0.92810   0.55990   0.01267  Uiso   1.00
O14    O     0.34163   0.11610   0.53466   0.01267  Uiso   1.00
O15    O     0.15017   0.18460   0.60954   0.01267  Uiso   1.00
O16    O     0.00890   0.68460   0.79580   0.01267  Uiso   1.00
O17    O     0.87385   0.45770   0.78550   0.01267  Uiso   1.00
O18    O     0.13085   0.72440   0.01490   0.01267  Uiso   1.00
O19    O     0.07750   0.50000  -0.00000   0.01267  Uiso   1.00
