data_AFEJOK_ion_b
_audit_creation_date              2014-07-02
_audit_creation_method            'Materials Studio'
_symmetry_space_group_name_H-M    'P1'
_symmetry_Int_Tables_number       1
_symmetry_cell_setting            triclinic
loop_
_symmetry_equiv_pos_as_xyz
  x,y,z
_cell_length_a                    13.4779
_cell_length_b                    13.4779
_cell_length_c                    11.1085
_cell_angle_alpha                 93.0476
_cell_angle_beta                  93.0476
_cell_angle_gamma                 69.2325
loop_
_atom_site_label
_atom_site_type_symbol
_atom_site_fract_x
_atom_site_fract_y
_atom_site_fract_z
_atom_site_U_iso_or_equiv
_atom_site_adp_type
_atom_site_occupancy
F1     F     0.73100   0.52440   0.66290   0.00000  Uiso   1.00
N2     N     0.27080   0.72540   0.81740   0.00000  Uiso   1.00
N3     N     0.36090   0.82130   0.00670   0.00000  Uiso   1.00
C4     C     0.31150   0.63690   0.75140   0.00000  Uiso   1.00
C5     C     0.31370   0.63590   0.62530   0.00000  Uiso   1.00
C6     C     0.26790   0.72990   0.56690   0.00000  Uiso   1.00
C7     C     0.22500   0.81960   0.63680   0.00000  Uiso   1.00
C8     C     0.22710   0.81650   0.75980   0.00000  Uiso   1.00
C9     C     0.44780   0.79780   0.94410   0.00000  Uiso   1.00
C10    C     0.50300   0.86740   0.93900   0.00000  Uiso   1.00
C11    C     0.47040   0.96180   0.00100   0.00000  Uiso   1.00
C12    C     0.38210   0.98430   0.06890   0.00000  Uiso   1.00
C13    C     0.32920   0.91400   0.06890   0.00000  Uiso   1.00
H14    H     0.34080   0.57060   0.79230   0.00000  Uiso   1.00
H15    H     0.34760   0.56960   0.57900   0.00000  Uiso   1.00
H16    H     0.19000   0.88700   0.59750   0.00000  Uiso   1.00
H17    H     0.19530   0.88190   0.80760   0.00000  Uiso   1.00
H18    H     0.47200   0.73080   0.89890   0.00000  Uiso   1.00
H19    H     0.56590   0.84730   0.89110   0.00000  Uiso   1.00
H20    H     0.35490   0.05170   0.11460   0.00000  Uiso   1.00
H21    H     0.26670   0.93090   0.11530   0.00000  Uiso   1.00
F22    F     0.47560   0.26900   0.33710   0.00000  Uiso   1.00
N23    N     0.27460   0.72920   0.18260   0.00000  Uiso   1.00
N24    N     0.17870   0.63910   0.99330   0.00000  Uiso   1.00
C25    C     0.36310   0.68850   0.24860   0.00000  Uiso   1.00
C26    C     0.36410   0.68630   0.37470   0.00000  Uiso   1.00
C27    C     0.27010   0.73210   0.43310   0.00000  Uiso   1.00
C28    C     0.18040   0.77500   0.36320   0.00000  Uiso   1.00
C29    C     0.18350   0.77290   0.24020   0.00000  Uiso   1.00
C30    C     0.20220   0.55220   0.05590   0.00000  Uiso   1.00
C31    C     0.13260   0.49700   0.06100   0.00000  Uiso   1.00
C32    C     0.03820   0.52960   0.99900   0.00000  Uiso   1.00
C33    C     0.01570   0.61790   0.93110   0.00000  Uiso   1.00
C34    C     0.08600   0.67080   0.93110   0.00000  Uiso   1.00
H35    H     0.42940   0.65920   0.20770   0.00000  Uiso   1.00
H36    H     0.43040   0.65240   0.42100   0.00000  Uiso   1.00
H37    H     0.11300   0.81000   0.40250   0.00000  Uiso   1.00
H38    H     0.11810   0.80470   0.19240   0.00000  Uiso   1.00
H39    H     0.26920   0.52800   0.10110   0.00000  Uiso   1.00
H40    H     0.15270   0.43410   0.10890   0.00000  Uiso   1.00
H41    H     0.94830   0.64510   0.88540   0.00000  Uiso   1.00
H42    H     0.06910   0.73330   0.88470   0.00000  Uiso   1.00
F43    F     0.26900   0.47560   0.33710   0.00000  Uiso   1.00
N44    N     0.72920   0.27460   0.18260   0.00000  Uiso   1.00
N45    N     0.63910   0.17870   0.99330   0.00000  Uiso   1.00
C46    C     0.68850   0.36310   0.24860   0.00000  Uiso   1.00
C47    C     0.68630   0.36410   0.37470   0.00000  Uiso   1.00
C48    C     0.73210   0.27010   0.43310   0.00000  Uiso   1.00
C49    C     0.77500   0.18040   0.36320   0.00000  Uiso   1.00
C50    C     0.77290   0.18350   0.24020   0.00000  Uiso   1.00
C51    C     0.55220   0.20220   0.05590   0.00000  Uiso   1.00
C52    C     0.49700   0.13260   0.06100   0.00000  Uiso   1.00
C53    C     0.52960   0.03820   0.99900   0.00000  Uiso   1.00
C54    C     0.61790   0.01570   0.93110   0.00000  Uiso   1.00
C55    C     0.67080   0.08600   0.93110   0.00000  Uiso   1.00
H56    H     0.65920   0.42940   0.20770   0.00000  Uiso   1.00
H57    H     0.65240   0.43040   0.42100   0.00000  Uiso   1.00
H58    H     0.81000   0.11300   0.40250   0.00000  Uiso   1.00
H59    H     0.80470   0.11810   0.19240   0.00000  Uiso   1.00
H60    H     0.52800   0.26920   0.10110   0.00000  Uiso   1.00
H61    H     0.43410   0.15270   0.10890   0.00000  Uiso   1.00
H62    H     0.64510   0.94830   0.88540   0.00000  Uiso   1.00
H63    H     0.73330   0.06910   0.88470   0.00000  Uiso   1.00
F64    F     0.52440   0.73100   0.66290   0.00000  Uiso   1.00
N65    N     0.72540   0.27080   0.81740   0.00000  Uiso   1.00
N66    N     0.82130   0.36090   0.00670   0.00000  Uiso   1.00
C67    C     0.63690   0.31150   0.75140   0.00000  Uiso   1.00
C68    C     0.63590   0.31370   0.62530   0.00000  Uiso   1.00
C69    C     0.72990   0.26790   0.56690   0.00000  Uiso   1.00
C70    C     0.81960   0.22500   0.63680   0.00000  Uiso   1.00
C71    C     0.81650   0.22710   0.75980   0.00000  Uiso   1.00
C72    C     0.79780   0.44780   0.94410   0.00000  Uiso   1.00
C73    C     0.86740   0.50300   0.93900   0.00000  Uiso   1.00
C74    C     0.96180   0.47040   0.00100   0.00000  Uiso   1.00
C75    C     0.98430   0.38210   0.06890   0.00000  Uiso   1.00
C76    C     0.91400   0.32920   0.06890   0.00000  Uiso   1.00
H77    H     0.57060   0.34080   0.79230   0.00000  Uiso   1.00
H78    H     0.56960   0.34760   0.57900   0.00000  Uiso   1.00
H79    H     0.88700   0.19000   0.59750   0.00000  Uiso   1.00
H80    H     0.88190   0.19530   0.80760   0.00000  Uiso   1.00
H81    H     0.73080   0.47200   0.89890   0.00000  Uiso   1.00
H82    H     0.84730   0.56590   0.89110   0.00000  Uiso   1.00
H83    H     0.05170   0.35490   0.11460   0.00000  Uiso   1.00
H84    H     0.93090   0.26670   0.11530   0.00000  Uiso   1.00
Cu85   Cu    0.27775   0.72225  -0.00000   0.00000  Uiso   1.00
F86    F     0.10270   0.89730  -0.00000   0.00000  Uiso   1.00
O87    O     0.42840   0.57160   0.00000   0.00000  Uiso   1.00
Cu88   Cu    0.72225   0.27775  -0.00000   0.00000  Uiso   1.00
F89    F     0.89730   0.10270  -0.00000   0.00000  Uiso   1.00
O90    O     0.57160   0.42840  -0.00000   0.00000  Uiso   1.00
P91    P     0.00000   0.00000   0.00000   0.00000  Uiso   1.00
P92    P     0.63160   0.63160   0.66000   0.00000  Uiso   1.00
F93    F     0.58210   0.58210   0.75750   0.00000  Uiso   1.00
F94    F     0.58390   0.58390   0.55610   0.00000  Uiso   1.00
F95    F     0.68200   0.68200   0.57090   0.00000  Uiso   1.00
F96    F     0.67590   0.67590   0.77290   0.00000  Uiso   1.00
P100   P     0.36840   0.36840   0.34000   0.00000  Uiso   1.00
F101   F     0.41790   0.41790   0.24250   0.00000  Uiso   1.00
F102   F     0.41610   0.41610   0.44390   0.00000  Uiso   1.00
F103   F     0.31800   0.31800   0.42910   0.00000  Uiso   1.00
F104   F     0.32410   0.32410   0.22710   0.00000  Uiso   1.00
O105   O     0.43410   0.43410   0.92750   0.00000  Uiso   1.00
N107   N     0.48620   0.48620   0.98100   0.00000  Uiso   1.00
F108   F     0.97290   0.97290   0.11750   0.00000  Uiso   1.00
F109   F     0.06310   0.06310   0.05700   0.00000  Uiso   1.00
F110   F     0.02710   0.02710   0.88250   0.00000  Uiso   1.00
F111   F     0.93690   0.93690   0.94300   0.00000  Uiso   1.00
loop_
_geom_bond_atom_site_label_1
_geom_bond_atom_site_label_2
_geom_bond_distance
_geom_bond_site_symmetry_2
_ccdc_geom_bond_type
F1     P92     1.585   .     S
N2     C4      1.322   .     D
N2     C8      1.340   .     S
N2     Cu85    2.028   1_556 S
N3     C13     1.335   .     S
N3     Cu85    2.021   .     S
N3     C9      1.325   1_554 D
C4     C5      1.402   .     S
C4     H14     0.967   .     S
C5     C6      1.377   .     D
C5     H15     0.979   .     S
C6     C7      1.361   .     S
C6     C27     1.490   .     S
C7     C8      1.368   .     D
C7     H16     0.977   .     S
C8     H17     0.974   .     S
C9     C10     1.393   .     S
C9     H18     0.967   .     S
C9     N3      1.325   1_556 D
C10    H19     0.972   .     S
C10    C11     1.352   1_556 S
C11    C12     1.376   .     S
C11    C10     1.352   1_554 S
C11    C53     1.511   1_564 S
C12    C13     1.373   .     D
C12    H20     0.976   1_565 S
C13    H21     0.962   .     S
H20    C12     0.976   1_545 S
F22    P100    1.585   .     S
N23    C25     1.322   .     S
N23    C29     1.340   .     D
N23    Cu85    2.028   .     S
N24    C34     1.335   .     S
N24    C30     1.325   1_556 S
N24    Cu85    2.021   1_556 S
C25    C26     1.402   .     D
C25    H35     0.967   .     S
C26    C27     1.377   .     S
C26    H36     0.979   .     S
C27    C28     1.361   .     D
C28    C29     1.368   .     S
C28    H37     0.977   .     S
C29    H38     0.974   .     S
C30    C31     1.393   .     S
C30    H39     0.967   .     S
C30    N24     1.325   1_554 S
C31    H40     0.972   .     S
C31    C32     1.352   1_554 D
C32    C33     1.376   .     S
C32    C31     1.352   1_556 D
C32    C74     1.511   1_456 S
C33    C34     1.373   .     D
C33    H41     0.976   1_455 S
C34    H42     0.962   .     S
H41    C33     0.976   1_655 S
F43    P100    1.585   .     S
N44    C46     1.322   .     D
N44    C50     1.340   .     S
N44    Cu88    2.028   .     S
N45    C55     1.335   .     D
N45    C51     1.325   1_556 S
N45    Cu88    2.021   1_556 S
C46    C47     1.402   .     S
C46    H56     0.967   .     S
C47    C48     1.377   .     D
C47    H57     0.979   .     S
C48    C49     1.361   .     S
C48    C69     1.490   .     S
C49    C50     1.368   .     D
C49    H58     0.977   .     S
C50    H59     0.974   .     S
C51    C52     1.393   .     D
C51    H60     0.967   .     S
C51    N45     1.325   1_554 S
C52    H61     0.972   .     S
C52    C53     1.352   1_554 S
C53    C54     1.376   .     D
C53    C11     1.511   1_546 S
C53    C52     1.352   1_556 S
C54    C55     1.373   .     S
C54    H62     0.976   1_545 D
C55    H63     0.962   .     S
H62    C54     0.976   1_565 D
F64    P92     1.585   .     S
N65    C67     1.322   .     D
N65    C71     1.340   .     S
N65    Cu88    2.028   1_556 S
N66    C76     1.335   .     S
N66    Cu88    2.021   .     S
N66    C72     1.325   1_554 D
C67    C68     1.402   .     S
C67    H77     0.967   .     S
C68    C69     1.377   .     D
C68    H78     0.979   .     S
C69    C70     1.361   .     S
C70    C71     1.368   .     D
C70    H79     0.977   .     S
C71    H80     0.974   .     S
C72    C73     1.393   .     S
C72    H81     0.967   .     S
C72    N66     1.325   1_556 D
C73    H82     0.972   .     S
C73    C74     1.352   1_556 S
C74    C75     1.376   .     S
C74    C32     1.511   1_654 S
C74    C73     1.352   1_554 S
C75    C76     1.373   .     D
C75    H83     0.976   1_655 S
C76    H84     0.962   .     S
H83    C75     0.976   1_455 S
Cu85   N2      2.028   1_554 S
Cu85   N24     2.021   1_554 S
F86    P91     1.573   1_565 S
O87    N107    1.154   1_554 S
Cu88   N45     2.021   1_554 S
Cu88   N65     2.028   1_554 S
F89    P91     1.573   1_655 S
O90    N107    1.154   1_554 S
P91    F109    1.499   .     S
P91    F86     1.573   1_545 S
P91    F89     1.573   1_455 S
P91    F108    1.472   1_445 S
P91    F110    1.472   1_554 D
P91    F111    1.499   1_444 S
P92    F93     1.591   .     S
P92    F94     1.515   .     S
P92    F95     1.540   .     S
P92    F96     1.543   .     S
P100   F101    1.591   .     S
P100   F102    1.515   .     S
P100   F103    1.540   .     S
P100   F104    1.543   .     S
O105   N107    1.265   .     D
N107   O87     1.154   1_556 S
N107   O90     1.154   1_556 S
F108   P91     1.472   1_665 S
F110   P91     1.472   1_556 D
F111   P91     1.499   1_666 S
