data_image0
_cell_length_a       11.54
_cell_length_b       11.54
_cell_length_c       14.943
_cell_angle_alpha    90
_cell_angle_beta     90
_cell_angle_gamma    90

_symmetry_space_group_name_H-M    "P 1"
_symmetry_int_tables_number       1

loop_
  _symmetry_equiv_pos_as_xyz
  'x, y, z'

loop_
  _atom_site_label
  _atom_site_occupancy
  _atom_site_fract_x
  _atom_site_fract_y
  _atom_site_fract_z
  _atom_site_thermal_displace_type
  _atom_site_B_iso_or_equiv
  _atom_site_type_symbol
  N1       1.0000 0.92720  0.68960  0.92620  Biso   1.000  N
  C1       1.0000 0.87630  0.71740  0.00470  Biso   1.000  C
  H1       1.0000 0.86530  0.65850  0.04840  Biso   1.000  H
  C2       1.0000 0.83970  0.82910  0.02360  Biso   1.000  C
  H2       1.0000 0.80570  0.84580  0.08010  Biso   1.000  H
  C3       1.0000 0.85220  0.91550  0.96170  Biso   1.000  C
  C4       1.0000 0.89820  0.88610  0.87810  Biso   1.000  C
  H3       1.0000 0.90440  0.94230  0.83190  Biso   1.000  H
  C5       1.0000 0.93470  0.77260  0.86420  Biso   1.000  C
  H4       1.0000 0.96670  0.75310  0.80760  Biso   1.000  H
  C6       1.0000 0.81680  0.03770  0.98520  Biso   1.000  C
  C7       1.0000 0.75290  0.10660  0.91630  Biso   1.000  C
  H5       1.0000 0.67360  0.12100  0.93690  Biso   1.000  H
  H6       1.0000 0.75080  0.06330  0.85990  Biso   1.000  H
  H7       1.0000 0.79250  0.18080  0.90690  Biso   1.000  H
  N2       1.0000 0.84460  0.07070  0.06340  Biso   1.000  N
  C8       1.0000 0.81260  0.18560  0.09670  Biso   1.000  C
  H8       1.0000 0.73400  0.20560  0.07510  Biso   1.000  H
  H9       1.0000 0.86740  0.24390  0.07280  Biso   1.000  H
  C9       1.0000 0.81440  0.18950  0.19780  Biso   1.000  C
  H10      1.0000 0.79590  0.26880  0.21870  Biso   1.000  H
  H11      1.0000 0.75520  0.13590  0.22210  Biso   1.000  H
  N3       1.0000 0.92950  0.15560  0.23000  Biso   1.000  N
  C10      1.0000 0.96240  0.18240  0.30850  Biso   1.000  C
  C11      1.0000 0.89410  0.24810  0.37680  Biso   1.000  C
  H12      1.0000 0.89030  0.32990  0.35970  Biso   1.000  H
  H13      1.0000 0.93160  0.24100  0.43540  Biso   1.000  H
  H14      1.0000 0.81540  0.21630  0.38010  Biso   1.000  H
  C12      1.0000 0.08440  0.14820  0.33280  Biso   1.000  C
  C13      1.0000 0.17140  0.16110  0.27000  Biso   1.000  C
  H15      1.0000 0.15500  0.19620  0.21380  Biso   1.000  H
  C14      1.0000 0.28240  0.12290  0.28900  Biso   1.000  C
  H16      1.0000 0.34100  0.13250  0.24500  Biso   1.000  H
  N4       1.0000 0.31040  0.07270  0.36720  Biso   1.000  N
  C15      1.0000 0.22780  0.06440  0.42890  Biso   1.000  C
  H17      1.0000 0.24710  0.03170  0.48530  Biso   1.000  H
  C16      1.0000 0.11360  0.10170  0.41470  Biso   1.000  C
  H18      1.0000 0.05720  0.09490  0.46070  Biso   1.000  H
  N5       1.0000 0.07280  0.31040  0.92620  Biso   1.000  N
  C17      1.0000 0.12370  0.28260  0.00470  Biso   1.000  C
  H19      1.0000 0.13470  0.34150  0.04840  Biso   1.000  H
  C18      1.0000 0.16030  0.17090  0.02360  Biso   1.000  C
  H20      1.0000 0.19430  0.15420  0.08010  Biso   1.000  H
  C19      1.0000 0.14780  0.08450  0.96170  Biso   1.000  C
  C20      1.0000 0.10180  0.11390  0.87810  Biso   1.000  C
  H21      1.0000 0.09560  0.05770  0.83190  Biso   1.000  H
  C21      1.0000 0.06530  0.22740  0.86420  Biso   1.000  C
  H22      1.0000 0.03330  0.24690  0.80760  Biso   1.000  H
  C22      1.0000 0.18320  0.96230  0.98520  Biso   1.000  C
  C23      1.0000 0.24710  0.89340  0.91630  Biso   1.000  C
  H23      1.0000 0.32640  0.87900  0.93690  Biso   1.000  H
  H24      1.0000 0.24920  0.93670  0.85990  Biso   1.000  H
  H25      1.0000 0.20750  0.81920  0.90690  Biso   1.000  H
  N6       1.0000 0.15540  0.92930  0.06340  Biso   1.000  N
  C24      1.0000 0.18740  0.81440  0.09670  Biso   1.000  C
  H26      1.0000 0.26600  0.79440  0.07510  Biso   1.000  H
  H27      1.0000 0.13260  0.75610  0.07280  Biso   1.000  H
  C25      1.0000 0.18560  0.81050  0.19780  Biso   1.000  C
  H28      1.0000 0.20410  0.73120  0.21870  Biso   1.000  H
  H29      1.0000 0.24480  0.86410  0.22210  Biso   1.000  H
  N7       1.0000 0.07050  0.84440  0.23000  Biso   1.000  N
  C26      1.0000 0.03760  0.81760  0.30850  Biso   1.000  C
  C27      1.0000 0.10590  0.75190  0.37680  Biso   1.000  C
  H30      1.0000 0.10970  0.67010  0.35970  Biso   1.000  H
  H31      1.0000 0.06840  0.75900  0.43540  Biso   1.000  H
  H32      1.0000 0.18460  0.78370  0.38010  Biso   1.000  H
  C28      1.0000 0.91560  0.85180  0.33280  Biso   1.000  C
  C29      1.0000 0.82860  0.83890  0.27000  Biso   1.000  C
  H33      1.0000 0.84500  0.80380  0.21380  Biso   1.000  H
  C30      1.0000 0.71760  0.87710  0.28900  Biso   1.000  C
  H34      1.0000 0.65900  0.86750  0.24500  Biso   1.000  H
  N8       1.0000 0.68960  0.92730  0.36720  Biso   1.000  N
  C31      1.0000 0.77220  0.93560  0.42890  Biso   1.000  C
  H35      1.0000 0.75290  0.96830  0.48530  Biso   1.000  H
  C32      1.0000 0.88640  0.89830  0.41470  Biso   1.000  C
  H36      1.0000 0.94280  0.90510  0.46070  Biso   1.000  H
  N9       1.0000 0.42720  0.81040  0.42620  Biso   1.000  N
  C33      1.0000 0.37630  0.78260  0.50470  Biso   1.000  C
  H37      1.0000 0.36530  0.84150  0.54840  Biso   1.000  H
  C34      1.0000 0.33970  0.67090  0.52360  Biso   1.000  C
  H38      1.0000 0.30570  0.65420  0.58010  Biso   1.000  H
  C35      1.0000 0.35220  0.58450  0.46170  Biso   1.000  C
  C36      1.0000 0.39820  0.61390  0.37810  Biso   1.000  C
  H39      1.0000 0.40440  0.55770  0.33190  Biso   1.000  H
  C37      1.0000 0.43470  0.72740  0.36420  Biso   1.000  C
  H40      1.0000 0.46670  0.74690  0.30760  Biso   1.000  H
  C38      1.0000 0.31680  0.46230  0.48520  Biso   1.000  C
  C39      1.0000 0.25290  0.39340  0.41630  Biso   1.000  C
  H41      1.0000 0.17360  0.37900  0.43690  Biso   1.000  H
  H42      1.0000 0.25080  0.43670  0.35990  Biso   1.000  H
  H43      1.0000 0.29250  0.31920  0.40690  Biso   1.000  H
  N10      1.0000 0.34460  0.42930  0.56340  Biso   1.000  N
  C40      1.0000 0.31260  0.31440  0.59670  Biso   1.000  C
  H44      1.0000 0.23400  0.29440  0.57510  Biso   1.000  H
  H45      1.0000 0.36740  0.25610  0.57280  Biso   1.000  H
  C41      1.0000 0.31440  0.31050  0.69780  Biso   1.000  C
  H46      1.0000 0.29590  0.23120  0.71870  Biso   1.000  H
  H47      1.0000 0.25520  0.36410  0.72210  Biso   1.000  H
  N11      1.0000 0.42950  0.34440  0.73000  Biso   1.000  N
  C42      1.0000 0.46240  0.31760  0.80850  Biso   1.000  C
  C43      1.0000 0.39410  0.25190  0.87680  Biso   1.000  C
  H48      1.0000 0.39030  0.17010  0.85970  Biso   1.000  H
  H49      1.0000 0.43160  0.25900  0.93540  Biso   1.000  H
  H50      1.0000 0.31540  0.28370  0.88010  Biso   1.000  H
  C44      1.0000 0.58440  0.35180  0.83280  Biso   1.000  C
  C45      1.0000 0.67140  0.33890  0.77000  Biso   1.000  C
  H51      1.0000 0.65500  0.30380  0.71380  Biso   1.000  H
  C46      1.0000 0.78240  0.37710  0.78900  Biso   1.000  C
  H52      1.0000 0.84100  0.36750  0.74500  Biso   1.000  H
  N12      1.0000 0.81040  0.42730  0.86720  Biso   1.000  N
  C47      1.0000 0.72780  0.43560  0.92890  Biso   1.000  C
  H53      1.0000 0.74710  0.46830  0.98530  Biso   1.000  H
  C48      1.0000 0.61360  0.39830  0.91470  Biso   1.000  C
  H54      1.0000 0.55720  0.40510  0.96070  Biso   1.000  H
  N13      1.0000 0.57280  0.18960  0.42620  Biso   1.000  N
  C49      1.0000 0.62370  0.21740  0.50470  Biso   1.000  C
  H55      1.0000 0.63470  0.15850  0.54840  Biso   1.000  H
  C50      1.0000 0.66030  0.32910  0.52360  Biso   1.000  C
  H56      1.0000 0.69430  0.34580  0.58010  Biso   1.000  H
  C51      1.0000 0.64780  0.41550  0.46170  Biso   1.000  C
  C52      1.0000 0.60180  0.38610  0.37810  Biso   1.000  C
  H57      1.0000 0.59560  0.44230  0.33190  Biso   1.000  H
  C53      1.0000 0.56530  0.27260  0.36420  Biso   1.000  C
  H58      1.0000 0.53330  0.25310  0.30760  Biso   1.000  H
  C54      1.0000 0.68320  0.53770  0.48520  Biso   1.000  C
  C55      1.0000 0.74710  0.60660  0.41630  Biso   1.000  C
  H59      1.0000 0.82640  0.62100  0.43690  Biso   1.000  H
  H60      1.0000 0.74920  0.56330  0.35990  Biso   1.000  H
  H61      1.0000 0.70750  0.68080  0.40690  Biso   1.000  H
  N14      1.0000 0.65540  0.57070  0.56340  Biso   1.000  N
  C56      1.0000 0.68740  0.68560  0.59670  Biso   1.000  C
  H62      1.0000 0.76600  0.70560  0.57510  Biso   1.000  H
  H63      1.0000 0.63260  0.74390  0.57280  Biso   1.000  H
  C57      1.0000 0.68560  0.68950  0.69780  Biso   1.000  C
  H64      1.0000 0.70410  0.76880  0.71870  Biso   1.000  H
  H65      1.0000 0.74480  0.63590  0.72210  Biso   1.000  H
  N15      1.0000 0.57050  0.65560  0.73000  Biso   1.000  N
  C58      1.0000 0.53760  0.68240  0.80850  Biso   1.000  C
  C59      1.0000 0.60590  0.74810  0.87680  Biso   1.000  C
  H66      1.0000 0.60970  0.82990  0.85970  Biso   1.000  H
  H67      1.0000 0.56840  0.74100  0.93540  Biso   1.000  H
  H68      1.0000 0.68460  0.71630  0.88010  Biso   1.000  H
  C60      1.0000 0.41560  0.64820  0.83280  Biso   1.000  C
  C61      1.0000 0.32860  0.66110  0.77000  Biso   1.000  C
  H69      1.0000 0.34500  0.69620  0.71380  Biso   1.000  H
  C62      1.0000 0.21760  0.62290  0.78900  Biso   1.000  C
  H70      1.0000 0.15900  0.63250  0.74500  Biso   1.000  H
  N16      1.0000 0.18960  0.57270  0.86720  Biso   1.000  N
  C63      1.0000 0.27220  0.56440  0.92890  Biso   1.000  C
  H71      1.0000 0.25290  0.53170  0.98530  Biso   1.000  H
  C64      1.0000 0.38640  0.60170  0.91470  Biso   1.000  C
  H72      1.0000 0.44280  0.59490  0.96070  Biso   1.000  H
  Ag1      1.0000 0.00000  0.00000  0.14600  Biso   1.000  Ag
  Ag2      1.0000 0.50000  0.50000  0.64600  Biso   1.000  Ag
  Ag3      1.0000 0.00000  0.50000  0.89600  Biso   1.000  Ag
  Ag4      1.0000 0.50000  0.00000  0.39600  Biso   1.000  Ag
