data_AFIPAH_clean
_audit_creation_date              2014-07-02
_audit_creation_method            'Materials Studio'
_symmetry_space_group_name_H-M    'P1'
_symmetry_Int_Tables_number       1
_symmetry_cell_setting            triclinic
loop_
_symmetry_equiv_pos_as_xyz
  x,y,z
_cell_length_a                    9.1664
_cell_length_b                    9.1664
_cell_length_c                    14.9690
_cell_angle_alpha                 79.9664
_cell_angle_beta                  79.9667
_cell_angle_gamma                 115.5290
loop_
_atom_site_label
_atom_site_type_symbol
_atom_site_fract_x
_atom_site_fract_y
_atom_site_fract_z
_atom_site_U_iso_or_equiv
_atom_site_adp_type
_atom_site_occupancy
La1    La    0.25916   0.50916   0.48168   0.01267  Uiso   1.00
La2    La    0.49084   0.74084   0.01832   0.01267  Uiso   1.00
La3    La    0.74084   0.49084   0.51832   0.01267  Uiso   1.00
La4    La    0.50916   0.25916   0.98168   0.01267  Uiso   1.00
H1     H     0.30800   0.86800   0.57000   0.01267  Uiso   1.00
H2     H     0.12200   0.06200   0.57000   0.01267  Uiso   1.00
H3     H     0.13200   0.69200   0.93000   0.01267  Uiso   1.00
H4     H     0.93800   0.87800   0.93000   0.01267  Uiso   1.00
H5     H     0.69200   0.13200   0.43000   0.01267  Uiso   1.00
H6     H     0.87800   0.93800   0.43000   0.01267  Uiso   1.00
H7     H     0.86800   0.30800   0.07000   0.01267  Uiso   1.00
H8     H     0.06200   0.12200   0.07000   0.01267  Uiso   1.00
C1     C     0.05917   0.75137   0.55826   0.01267  Uiso   1.00
C2     C     0.21284   0.89444   0.56432   0.01267  Uiso   1.00
C3     C     0.38257   0.19037   0.55826   0.01267  Uiso   1.00
C4     C     0.22284   0.04124   0.56432   0.01267  Uiso   1.00
C5     C     0.24863   0.94083   0.94174   0.01267  Uiso   1.00
C6     C     0.10556   0.78716   0.93568   0.01267  Uiso   1.00
C7     C     0.80963   0.61743   0.94174   0.01267  Uiso   1.00
C8     C     0.95876   0.77716   0.93568   0.01267  Uiso   1.00
C9     C     0.94083   0.24863   0.44174   0.01267  Uiso   1.00
C10    C     0.78716   0.10556   0.43568   0.01267  Uiso   1.00
C11    C     0.61743   0.80963   0.44174   0.01267  Uiso   1.00
C12    C     0.77716   0.95876   0.43568   0.01267  Uiso   1.00
C13    C     0.75137   0.05917   0.05826   0.01267  Uiso   1.00
C14    C     0.89444   0.21284   0.06432   0.01267  Uiso   1.00
C15    C     0.19037   0.38257   0.05826   0.01267  Uiso   1.00
C16    C     0.04124   0.22284   0.06432   0.01267  Uiso   1.00
C17    C     0.32460   0.67540   0.25000   0.01267  Uiso   1.00
C18    C     0.42540   0.57460   0.25000   0.01267  Uiso   1.00
C19    C     0.67540   0.32460   0.75000   0.01267  Uiso   1.00
C20    C     0.57460   0.42540   0.75000   0.01267  Uiso   1.00
O1     O     0.23841   0.66119   0.32840   0.01267  Uiso   1.00
O2     O     0.07629   0.63451   0.53260   0.01267  Uiso   1.00
O3     O     0.91780   0.74802   0.57558   0.01267  Uiso   1.00
O4     O     0.43319   0.51041   0.32840   0.01267  Uiso   1.00
O5     O     0.39111   0.33289   0.53260   0.01267  Uiso   1.00
O6     O     0.50662   0.17640   0.57558   0.01267  Uiso   1.00
O7     O     0.33881   0.76159   0.17160   0.01267  Uiso   1.00
O8     O     0.36549   0.92371   0.96740   0.01267  Uiso   1.00
O9     O     0.25198   0.08220   0.92442   0.01267  Uiso   1.00
O10    O     0.48959   0.56681   0.17160   0.01267  Uiso   1.00
O11    O     0.66711   0.60889   0.96740   0.01267  Uiso   1.00
O12    O     0.82360   0.49338   0.92442   0.01267  Uiso   1.00
O13    O     0.76159   0.33881   0.67160   0.01267  Uiso   1.00
O14    O     0.92371   0.36549   0.46740   0.01267  Uiso   1.00
O15    O     0.08220   0.25198   0.42442   0.01267  Uiso   1.00
O16    O     0.56681   0.48959   0.67160   0.01267  Uiso   1.00
O17    O     0.60889   0.66711   0.46740   0.01267  Uiso   1.00
O18    O     0.49338   0.82360   0.42442   0.01267  Uiso   1.00
O19    O     0.66119   0.23841   0.82840   0.01267  Uiso   1.00
O20    O     0.63451   0.07629   0.03260   0.01267  Uiso   1.00
O21    O     0.74802   0.91780   0.07558   0.01267  Uiso   1.00
O22    O     0.51041   0.43319   0.82840   0.01267  Uiso   1.00
O23    O     0.33289   0.39111   0.03260   0.01267  Uiso   1.00
O24    O     0.17640   0.50662   0.07558   0.01267  Uiso   1.00
