data_AFOTUL_clean
_audit_creation_date              2014-07-02
_audit_creation_method            'Materials Studio'
_symmetry_space_group_name_H-M    'P1'
_symmetry_Int_Tables_number       1
_symmetry_cell_setting            triclinic
loop_
_symmetry_equiv_pos_as_xyz
  x,y,z
_cell_length_a                    8.6876
_cell_length_b                    14.1660
_cell_length_c                    15.1400
_cell_angle_alpha                 115.0930
_cell_angle_beta                  106.6730
_cell_angle_gamma                 90.0000
loop_
_atom_site_label
_atom_site_type_symbol
_atom_site_fract_x
_atom_site_fract_y
_atom_site_fract_z
_atom_site_U_iso_or_equiv
_atom_site_adp_type
_atom_site_occupancy
Sm1    Sm    0.50502   0.00549   0.54568   0.01267  Uiso   1.00
Sm2    Sm    0.95934   0.99451   0.45432   0.01267  Uiso   1.00
H1     H     0.44070   0.80220   0.67060   0.01267  Uiso   1.00
H2     H     0.45320   0.64510   0.68520   0.01267  Uiso   1.00
H3     H     0.97970   0.55870   0.53360   0.01267  Uiso   1.00
H4     H     0.96490   0.71680   0.52080   0.01267  Uiso   1.00
H5     H     0.41880   0.53040   0.74440   0.01267  Uiso   1.00
H6     H     0.46190   0.36350   0.73760   0.01267  Uiso   1.00
H7     H     0.06740   0.23550   0.48780   0.01267  Uiso   1.00
H8     H     0.04150   0.39660   0.48360   0.01267  Uiso   1.00
H9     H     0.39740   0.71840   0.22260   0.01267  Uiso   1.00
H10    H     0.32390   0.56660   0.07000   0.01267  Uiso   1.00
H11    H     0.86400   0.57210   0.05980   0.01267  Uiso   1.00
H12    H     0.93600   0.72560   0.21000   0.01267  Uiso   1.00
H13    H     0.77010   0.19780   0.32940   0.01267  Uiso   1.00
H14    H     0.76800   0.35490   0.31480   0.01267  Uiso   1.00
H15    H     0.44610   0.44130   0.46640   0.01267  Uiso   1.00
H16    H     0.44410   0.28320   0.47920   0.01267  Uiso   1.00
H17    H     0.67440   0.46960   0.25560   0.01267  Uiso   1.00
H18    H     0.72430   0.63650   0.26240   0.01267  Uiso   1.00
H19    H     0.57960   0.76450   0.51220   0.01267  Uiso   1.00
H20    H     0.55790   0.60340   0.51640   0.01267  Uiso   1.00
H21    H     0.17480   0.28160   0.77740   0.01267  Uiso   1.00
H22    H     0.25390   0.43340   0.93000   0.01267  Uiso   1.00
H23    H     0.80420   0.42790   0.94020   0.01267  Uiso   1.00
H24    H     0.72600   0.27440   0.79000   0.01267  Uiso   1.00
C1     C     0.19790   0.87100   0.57300   0.01267  Uiso   1.00
C2     C     0.20530   0.77280   0.58880   0.01267  Uiso   1.00
C3     C     0.34790   0.75300   0.64100   0.01267  Uiso   1.00
C4     C     0.35500   0.65800   0.65020   0.01267  Uiso   1.00
C5     C     0.21790   0.58320   0.60800   0.01267  Uiso   1.00
C6     C     0.07340   0.60660   0.56040   0.01267  Uiso   1.00
C7     C     0.06430   0.70150   0.55140   0.01267  Uiso   1.00
C8     C     0.23030   0.47900   0.61280   0.01267  Uiso   1.00
C9     C     0.35250   0.47030   0.69020   0.01267  Uiso   1.00
C10    C     0.37690   0.37000   0.68740   0.01267  Uiso   1.00
C11    C     0.27180   0.28190   0.60860   0.01267  Uiso   1.00
C12    C     0.14310   0.29390   0.53660   0.01267  Uiso   1.00
C13    C     0.12380   0.39100   0.53520   0.01267  Uiso   1.00
C14    C     0.31240   0.17360   0.59980   0.01267  Uiso   1.00
C15    C     0.22190   0.83520   0.33300   0.01267  Uiso   1.00
C16    C     0.17510   0.73500   0.23440   0.01267  Uiso   1.00
C17    C     0.28890   0.68860   0.19060   0.01267  Uiso   1.00
C18    C     0.24440   0.59700   0.09860   0.01267  Uiso   1.00
C19    C     0.08290   0.54950   0.04820   0.01267  Uiso   1.00
C20    C     0.97310   0.60020   0.09220   0.01267  Uiso   1.00
C21    C     0.01610   0.69260   0.18360   0.01267  Uiso   1.00
C22    C     0.62490   0.12900   0.42700   0.01267  Uiso   1.00
C23    C     0.61650   0.22720   0.41120   0.01267  Uiso   1.00
C24    C     0.70690   0.24700   0.35900   0.01267  Uiso   1.00
C25    C     0.70480   0.34200   0.34980   0.01267  Uiso   1.00
C26    C     0.60990   0.41680   0.39200   0.01267  Uiso   1.00
C27    C     0.51300   0.39340   0.43960   0.01267  Uiso   1.00
C28    C     0.51290   0.29850   0.44860   0.01267  Uiso   1.00
C29    C     0.61750   0.52100   0.38720   0.01267  Uiso   1.00
C30    C     0.66230   0.52970   0.30980   0.01267  Uiso   1.00
C31    C     0.68950   0.63000   0.31260   0.01267  Uiso   1.00
C32    C     0.66320   0.71810   0.39140   0.01267  Uiso   1.00
C33    C     0.60650   0.70610   0.46340   0.01267  Uiso   1.00
C34    C     0.58860   0.60900   0.46480   0.01267  Uiso   1.00
C35    C     0.71260   0.82640   0.40020   0.01267  Uiso   1.00
C36    C     0.88890   0.16480   0.66700   0.01267  Uiso   1.00
C37    C     0.94070   0.26500   0.76560   0.01267  Uiso   1.00
C38    C     0.09830   0.31140   0.80940   0.01267  Uiso   1.00
C39    C     0.14580   0.40300   0.90140   0.01267  Uiso   1.00
C40    C     0.03470   0.45050   0.95180   0.01267  Uiso   1.00
C41    C     0.88090   0.39980   0.90780   0.01267  Uiso   1.00
C42    C     0.83250   0.30740   0.81640   0.01267  Uiso   1.00
O1     O     0.32710   0.91640   0.58440   0.01267  Uiso   1.00
O2     O     0.06360   0.90140   0.55260   0.01267  Uiso   1.00
O3     O     0.22800   0.09270   0.51960   0.01267  Uiso   1.00
O4     O     0.43330   0.16910   0.66360   0.01267  Uiso   1.00
O5     O     0.36940   0.87050   0.37740   0.01267  Uiso   1.00
O6     O     0.10750   0.87580   0.36220   0.01267  Uiso   1.00
O7     O     0.74270   0.08360   0.41560   0.01267  Uiso   1.00
O8     O     0.51100   0.09860   0.44740   0.01267  Uiso   1.00
O9     O     0.70840   0.90730   0.48040   0.01267  Uiso   1.00
O10    O     0.76970   0.83090   0.33640   0.01267  Uiso   1.00
O11    O     0.99200   0.12950   0.62260   0.01267  Uiso   1.00
O12    O     0.74530   0.12420   0.63780   0.01267  Uiso   1.00
