data_AFOVAT_clean
_audit_creation_date              2014-07-02
_audit_creation_method            'Materials Studio'
_symmetry_space_group_name_H-M    'P1'
_symmetry_Int_Tables_number       1
_symmetry_cell_setting            triclinic
loop_
_symmetry_equiv_pos_as_xyz
  x,y,z
_cell_length_a                    8.8420
_cell_length_b                    14.3180
_cell_length_c                    14.4980
_cell_angle_alpha                 113.0840
_cell_angle_beta                  107.7540
_cell_angle_gamma                 90.0000
loop_
_atom_site_label
_atom_site_type_symbol
_atom_site_fract_x
_atom_site_fract_y
_atom_site_fract_z
_atom_site_U_iso_or_equiv
_atom_site_adp_type
_atom_site_occupancy
La1    La    0.50159   0.00353   0.54858   0.01267  Uiso   1.00
La2    La    0.95301   0.99647   0.45142   0.01267  Uiso   1.00
H1     H     0.44090   0.78530   0.67000   0.01267  Uiso   1.00
H2     H     0.45160   0.63270   0.68160   0.01267  Uiso   1.00
H3     H     0.97670   0.55440   0.53300   0.01267  Uiso   1.00
H4     H     0.96320   0.71000   0.51920   0.01267  Uiso   1.00
H5     H     0.40820   0.52070   0.75240   0.01267  Uiso   1.00
H6     H     0.45950   0.35830   0.74540   0.01267  Uiso   1.00
H7     H     0.08110   0.23350   0.48180   0.01267  Uiso   1.00
H8     H     0.04380   0.39180   0.48020   0.01267  Uiso   1.00
H9     H     0.38240   0.71700   0.21580   0.01267  Uiso   1.00
H10    H     0.31280   0.56450   0.07400   0.01267  Uiso   1.00
H11    H     0.85660   0.56470   0.06980   0.01267  Uiso   1.00
H12    H     0.92990   0.72550   0.20640   0.01267  Uiso   1.00
H13    H     0.77090   0.21470   0.33000   0.01267  Uiso   1.00
H14    H     0.77000   0.36730   0.31840   0.01267  Uiso   1.00
H15    H     0.44370   0.44560   0.46700   0.01267  Uiso   1.00
H16    H     0.44400   0.29000   0.48080   0.01267  Uiso   1.00
H17    H     0.65580   0.47930   0.24760   0.01267  Uiso   1.00
H18    H     0.71410   0.64170   0.25460   0.01267  Uiso   1.00
H19    H     0.59930   0.76650   0.51820   0.01267  Uiso   1.00
H20    H     0.56360   0.60820   0.51980   0.01267  Uiso   1.00
H21    H     0.16660   0.28300   0.78420   0.01267  Uiso   1.00
H22    H     0.23880   0.43550   0.92600   0.01267  Uiso   1.00
H23    H     0.78680   0.43530   0.93020   0.01267  Uiso   1.00
H24    H     0.72350   0.27450   0.79360   0.01267  Uiso   1.00
C1     C     0.18830   0.86220   0.57460   0.01267  Uiso   1.00
C2     C     0.19970   0.76140   0.58760   0.01267  Uiso   1.00
C3     C     0.34850   0.73830   0.64060   0.01267  Uiso   1.00
C4     C     0.35350   0.64760   0.64740   0.01267  Uiso   1.00
C5     C     0.21890   0.57450   0.60580   0.01267  Uiso   1.00
C6     C     0.06930   0.60000   0.55860   0.01267  Uiso   1.00
C7     C     0.06180   0.69320   0.55020   0.01267  Uiso   1.00
C8     C     0.23190   0.47390   0.61300   0.01267  Uiso   1.00
C9     C     0.34690   0.46260   0.69460   0.01267  Uiso   1.00
C10    C     0.37440   0.36530   0.69300   0.01267  Uiso   1.00
C11    C     0.27120   0.27950   0.61100   0.01267  Uiso   1.00
C12    C     0.15100   0.29100   0.53500   0.01267  Uiso   1.00
C13    C     0.12830   0.38610   0.53380   0.01267  Uiso   1.00
C14    C     0.31070   0.17360   0.60380   0.01267  Uiso   1.00
C15    C     0.21110   0.83780   0.32400   0.01267  Uiso   1.00
C16    C     0.16620   0.73870   0.22620   0.01267  Uiso   1.00
C17    C     0.27530   0.68820   0.18460   0.01267  Uiso   1.00
C18    C     0.23340   0.59690   0.09880   0.01267  Uiso   1.00
C19    C     0.07420   0.54950   0.04640   0.01267  Uiso   1.00
C20    C     0.96140   0.59710   0.09480   0.01267  Uiso   1.00
C21    C     0.00710   0.69180   0.17960   0.01267  Uiso   1.00
C22    C     0.61370   0.13780   0.42540   0.01267  Uiso   1.00
C23    C     0.61210   0.23860   0.41240   0.01267  Uiso   1.00
C24    C     0.70790   0.26170   0.35940   0.01267  Uiso   1.00
C25    C     0.70610   0.35240   0.35260   0.01267  Uiso   1.00
C26    C     0.61310   0.42550   0.39420   0.01267  Uiso   1.00
C27    C     0.51070   0.40000   0.44140   0.01267  Uiso   1.00
C28    C     0.51160   0.30680   0.44980   0.01267  Uiso   1.00
C29    C     0.61890   0.52610   0.38700   0.01267  Uiso   1.00
C30    C     0.65230   0.53740   0.30540   0.01267  Uiso   1.00
C31    C     0.68140   0.63470   0.30700   0.01267  Uiso   1.00
C32    C     0.66020   0.72050   0.38900   0.01267  Uiso   1.00
C33    C     0.61600   0.70900   0.46500   0.01267  Uiso   1.00
C34    C     0.59450   0.61390   0.46620   0.01267  Uiso   1.00
C35    C     0.70690   0.82640   0.39620   0.01267  Uiso   1.00
C36    C     0.88710   0.16220   0.67600   0.01267  Uiso   1.00
C37    C     0.94000   0.26130   0.77380   0.01267  Uiso   1.00
C38    C     0.09070   0.31180   0.81540   0.01267  Uiso   1.00
C39    C     0.13460   0.40310   0.90120   0.01267  Uiso   1.00
C40    C     0.02780   0.45050   0.95360   0.01267  Uiso   1.00
C41    C     0.86660   0.40290   0.90520   0.01267  Uiso   1.00
C42    C     0.82750   0.30820   0.82040   0.01267  Uiso   1.00
O1     O     0.32140   0.91010   0.58920   0.01267  Uiso   1.00
O2     O     0.05440   0.89000   0.55000   0.01267  Uiso   1.00
O3     O     0.22880   0.09580   0.52380   0.01267  Uiso   1.00
O4     O     0.42820   0.16770   0.67520   0.01267  Uiso   1.00
O5     O     0.36110   0.87150   0.36960   0.01267  Uiso   1.00
O6     O     0.10840   0.88070   0.35720   0.01267  Uiso   1.00
O7     O     0.73220   0.08990   0.41080   0.01267  Uiso   1.00
O8     O     0.50440   0.11000   0.45000   0.01267  Uiso   1.00
O9     O     0.70500   0.90420   0.47620   0.01267  Uiso   1.00
O10    O     0.75300   0.83230   0.32480   0.01267  Uiso   1.00
O11    O     0.99150   0.12850   0.63040   0.01267  Uiso   1.00
O12    O     0.75120   0.11930   0.64280   0.01267  Uiso   1.00
