data_AFOVOH_clean
_audit_creation_date              2014-07-02
_audit_creation_method            'Materials Studio'
_symmetry_space_group_name_H-M    'P1'
_symmetry_Int_Tables_number       1
_symmetry_cell_setting            triclinic
loop_
_symmetry_equiv_pos_as_xyz
  x,y,z
_cell_length_a                    8.7230
_cell_length_b                    14.1790
_cell_length_c                    15.0312
_cell_angle_alpha                 114.8300
_cell_angle_beta                  106.8680
_cell_angle_gamma                 90.0000
loop_
_atom_site_label
_atom_site_type_symbol
_atom_site_fract_x
_atom_site_fract_y
_atom_site_fract_z
_atom_site_U_iso_or_equiv
_atom_site_adp_type
_atom_site_occupancy
Nd1    Nd    0.90417   0.00504   0.54618   0.01267  Uiso   1.00
Nd2    Nd    0.35799   0.99496   0.45382   0.01267  Uiso   1.00
H1     H     0.84310   0.79670   0.66340   0.01267  Uiso   1.00
H2     H     0.85330   0.64160   0.68280   0.01267  Uiso   1.00
H3     H     0.37940   0.55870   0.53720   0.01267  Uiso   1.00
H4     H     0.36400   0.71790   0.52540   0.01267  Uiso   1.00
H5     H     0.82050   0.52990   0.74580   0.01267  Uiso   1.00
H6     H     0.85840   0.36380   0.73960   0.01267  Uiso   1.00
H7     H     0.46850   0.23600   0.48680   0.01267  Uiso   1.00
H8     H     0.44420   0.39250   0.48140   0.01267  Uiso   1.00
H9     H     0.79280   0.71540   0.22520   0.01267  Uiso   1.00
H10    H     0.72560   0.56430   0.07360   0.01267  Uiso   1.00
H11    H     0.25680   0.58490   0.05120   0.01267  Uiso   1.00
H12    H     0.33440   0.71970   0.21360   0.01267  Uiso   1.00
H13    H     0.17970   0.20330   0.33660   0.01267  Uiso   1.00
H14    H     0.17050   0.35840   0.31720   0.01267  Uiso   1.00
H15    H     0.84220   0.44130   0.46280   0.01267  Uiso   1.00
H16    H     0.83860   0.28210   0.47460   0.01267  Uiso   1.00
H17    H     0.07470   0.47010   0.25420   0.01267  Uiso   1.00
H18    H     0.11880   0.63620   0.26040   0.01267  Uiso   1.00
H19    H     0.98170   0.76400   0.51320   0.01267  Uiso   1.00
H20    H     0.96280   0.60750   0.51860   0.01267  Uiso   1.00
H21    H     0.56760   0.28460   0.77480   0.01267  Uiso   1.00
H22    H     0.65200   0.43570   0.92640   0.01267  Uiso   1.00
H23    H     0.20560   0.41510   0.94880   0.01267  Uiso   1.00
H24    H     0.12080   0.28030   0.78640   0.01267  Uiso   1.00
C1     C     0.59770   0.86820   0.57480   0.01267  Uiso   1.00
C2     C     0.60250   0.76980   0.58860   0.01267  Uiso   1.00
C3     C     0.74970   0.74920   0.63760   0.01267  Uiso   1.00
C4     C     0.75540   0.65470   0.64780   0.01267  Uiso   1.00
C5     C     0.61900   0.58060   0.60680   0.01267  Uiso   1.00
C6     C     0.47330   0.60560   0.56240   0.01267  Uiso   1.00
C7     C     0.46370   0.70130   0.55400   0.01267  Uiso   1.00
C8     C     0.62940   0.47860   0.61200   0.01267  Uiso   1.00
C9     C     0.75350   0.47020   0.69160   0.01267  Uiso   1.00
C10    C     0.77490   0.37040   0.68840   0.01267  Uiso   1.00
C11    C     0.67210   0.28240   0.60960   0.01267  Uiso   1.00
C12    C     0.54380   0.29420   0.53600   0.01267  Uiso   1.00
C13    C     0.52620   0.38810   0.53460   0.01267  Uiso   1.00
C14    C     0.71160   0.17550   0.60240   0.01267  Uiso   1.00
C15    C     0.61650   0.83330   0.33080   0.01267  Uiso   1.00
C16    C     0.57280   0.73520   0.23600   0.01267  Uiso   1.00
C17    C     0.68470   0.68600   0.19220   0.01267  Uiso   1.00
C18    C     0.64550   0.59450   0.10100   0.01267  Uiso   1.00
C19    C     0.47930   0.54610   0.04860   0.01267  Uiso   1.00
C20    C     0.36620   0.60470   0.08920   0.01267  Uiso   1.00
C21    C     0.41280   0.69060   0.18360   0.01267  Uiso   1.00
C22    C     0.02290   0.13180   0.42520   0.01267  Uiso   1.00
C23    C     0.01390   0.23020   0.41140   0.01267  Uiso   1.00
C24    C     0.11210   0.25080   0.36240   0.01267  Uiso   1.00
C25    C     0.10760   0.34530   0.35220   0.01267  Uiso   1.00
C26    C     0.01220   0.41940   0.39320   0.01267  Uiso   1.00
C27    C     0.91090   0.39440   0.43760   0.01267  Uiso   1.00
C28    C     0.90970   0.29870   0.44600   0.01267  Uiso   1.00
C29    C     0.01740   0.52140   0.38800   0.01267  Uiso   1.00
C30    C     0.06190   0.52980   0.30840   0.01267  Uiso   1.00
C31    C     0.08650   0.62960   0.31160   0.01267  Uiso   1.00
C32    C     0.06250   0.71760   0.39040   0.01267  Uiso   1.00
C33    C     0.00780   0.70580   0.46400   0.01267  Uiso   1.00
C34    C     0.99160   0.61190   0.46540   0.01267  Uiso   1.00
C35    C     0.10920   0.82450   0.39760   0.01267  Uiso   1.00
C36    C     0.28570   0.16670   0.66920   0.01267  Uiso   1.00
C37    C     0.33680   0.26480   0.76400   0.01267  Uiso   1.00
C38    C     0.49250   0.31400   0.80780   0.01267  Uiso   1.00
C39    C     0.54450   0.40550   0.89900   0.01267  Uiso   1.00
C40    C     0.43070   0.45390   0.95140   0.01267  Uiso   1.00
C41    C     0.27700   0.39530   0.91080   0.01267  Uiso   1.00
C42    C     0.22920   0.30940   0.81640   0.01267  Uiso   1.00
O1     O     0.72390   0.91540   0.58560   0.01267  Uiso   1.00
O2     O     0.45800   0.89850   0.55120   0.01267  Uiso   1.00
O3     O     0.62760   0.09580   0.52160   0.01267  Uiso   1.00
O4     O     0.83270   0.16990   0.66540   0.01267  Uiso   1.00
O5     O     0.76610   0.87110   0.37520   0.01267  Uiso   1.00
O6     O     0.50740   0.87630   0.36160   0.01267  Uiso   1.00
O7     O     0.13830   0.08460   0.41440   0.01267  Uiso   1.00
O8     O     0.90680   0.10150   0.44880   0.01267  Uiso   1.00
O9     O     0.10600   0.90420   0.47840   0.01267  Uiso   1.00
O10    O     0.16730   0.83010   0.33460   0.01267  Uiso   1.00
O11    O     0.39090   0.12890   0.62480   0.01267  Uiso   1.00
O12    O     0.14580   0.12370   0.63840   0.01267  Uiso   1.00
