data_AFOVEX_clean
_audit_creation_date              2014-07-02
_audit_creation_method            'Materials Studio'
_symmetry_space_group_name_H-M    'P1'
_symmetry_Int_Tables_number       1
_symmetry_cell_setting            triclinic
loop_
_symmetry_equiv_pos_as_xyz
  x,y,z
_cell_length_a                    8.7890
_cell_length_b                    14.2570
_cell_length_c                    15.1092
_cell_angle_alpha                 114.9320
_cell_angle_beta                  106.9090
_cell_angle_gamma                 90.0000
loop_
_atom_site_label
_atom_site_type_symbol
_atom_site_fract_x
_atom_site_fract_y
_atom_site_fract_z
_atom_site_U_iso_or_equiv
_atom_site_adp_type
_atom_site_occupancy
Ce1    Ce    0.50515   0.00501   0.54654   0.01267  Uiso   1.00
Ce2    Ce    0.95861   0.99499   0.45346   0.01267  Uiso   1.00
H1     H     0.44240   0.79910   0.66720   0.01267  Uiso   1.00
H2     H     0.45320   0.63980   0.68100   0.01267  Uiso   1.00
H3     H     0.98240   0.55690   0.53320   0.01267  Uiso   1.00
H4     H     0.97210   0.71330   0.51980   0.01267  Uiso   1.00
H5     H     0.42090   0.53070   0.74320   0.01267  Uiso   1.00
H6     H     0.45690   0.36360   0.73920   0.01267  Uiso   1.00
H7     H     0.07500   0.23540   0.48700   0.01267  Uiso   1.00
H8     H     0.05170   0.39550   0.48220   0.01267  Uiso   1.00
H9     H     0.39180   0.71530   0.22120   0.01267  Uiso   1.00
H10    H     0.32390   0.56660   0.07000   0.01267  Uiso   1.00
H11    H     0.86200   0.57720   0.05400   0.01267  Uiso   1.00
H12    H     0.93630   0.72110   0.21140   0.01267  Uiso   1.00
H13    H     0.77520   0.20090   0.33280   0.01267  Uiso   1.00
H14    H     0.77220   0.36020   0.31900   0.01267  Uiso   1.00
H15    H     0.44920   0.44310   0.46680   0.01267  Uiso   1.00
H16    H     0.45230   0.28670   0.48020   0.01267  Uiso   1.00
H17    H     0.67770   0.46930   0.25680   0.01267  Uiso   1.00
H18    H     0.71770   0.63640   0.26080   0.01267  Uiso   1.00
H19    H     0.58800   0.76460   0.51300   0.01267  Uiso   1.00
H20    H     0.56950   0.60450   0.51780   0.01267  Uiso   1.00
H21    H     0.17060   0.28470   0.77880   0.01267  Uiso   1.00
H22    H     0.25390   0.43340   0.93000   0.01267  Uiso   1.00
H23    H     0.80800   0.42280   0.94600   0.01267  Uiso   1.00
H24    H     0.72490   0.27890   0.78860   0.01267  Uiso   1.00
C1     C     0.19550   0.86720   0.57380   0.01267  Uiso   1.00
C2     C     0.20310   0.76810   0.58680   0.01267  Uiso   1.00
C3     C     0.35080   0.75020   0.63880   0.01267  Uiso   1.00
C4     C     0.35610   0.65400   0.64700   0.01267  Uiso   1.00
C5     C     0.22070   0.58170   0.60580   0.01267  Uiso   1.00
C6     C     0.07560   0.60380   0.55900   0.01267  Uiso   1.00
C7     C     0.07050   0.69820   0.55100   0.01267  Uiso   1.00
C8     C     0.23270   0.47750   0.60980   0.01267  Uiso   1.00
C9     C     0.35450   0.47090   0.68960   0.01267  Uiso   1.00
C10    C     0.37530   0.36990   0.68740   0.01267  Uiso   1.00
C11    C     0.27600   0.28450   0.61020   0.01267  Uiso   1.00
C12    C     0.14910   0.29370   0.53600   0.01267  Uiso   1.00
C13    C     0.13260   0.39060   0.53500   0.01267  Uiso   1.00
C14    C     0.31310   0.17720   0.60180   0.01267  Uiso   1.00
C15    C     0.21990   0.83340   0.32920   0.01267  Uiso   1.00
C16    C     0.17430   0.73430   0.23300   0.01267  Uiso   1.00
C17    C     0.28440   0.68580   0.18860   0.01267  Uiso   1.00
C18    C     0.24540   0.59620   0.09880   0.01267  Uiso   1.00
C19    C     0.07780   0.54770   0.04840   0.01267  Uiso   1.00
C20    C     0.97080   0.60110   0.08960   0.01267  Uiso   1.00
C21    C     0.01450   0.69050   0.18260   0.01267  Uiso   1.00
C22    C     0.62170   0.13280   0.42620   0.01267  Uiso   1.00
C23    C     0.61630   0.23190   0.41320   0.01267  Uiso   1.00
C24    C     0.71200   0.24980   0.36120   0.01267  Uiso   1.00
C25    C     0.70910   0.34600   0.35300   0.01267  Uiso   1.00
C26    C     0.61490   0.41830   0.39420   0.01267  Uiso   1.00
C27    C     0.51660   0.39620   0.44100   0.01267  Uiso   1.00
C28    C     0.51950   0.30180   0.44900   0.01267  Uiso   1.00
C29    C     0.62290   0.52250   0.39020   0.01267  Uiso   1.00
C30    C     0.66490   0.52910   0.31040   0.01267  Uiso   1.00
C31    C     0.68790   0.63010   0.31260   0.01267  Uiso   1.00
C32    C     0.66580   0.71550   0.38980   0.01267  Uiso   1.00
C33    C     0.61310   0.70630   0.46400   0.01267  Uiso   1.00
C34    C     0.59760   0.60940   0.46500   0.01267  Uiso   1.00
C35    C     0.71130   0.82280   0.39820   0.01267  Uiso   1.00
C36    C     0.89070   0.16660   0.67080   0.01267  Uiso   1.00
C37    C     0.94130   0.26570   0.76700   0.01267  Uiso   1.00
C38    C     0.09580   0.31420   0.81140   0.01267  Uiso   1.00
C39    C     0.14660   0.40380   0.90120   0.01267  Uiso   1.00
C40    C     0.02940   0.45230   0.95160   0.01267  Uiso   1.00
C41    C     0.88120   0.39890   0.91040   0.01267  Uiso   1.00
C42    C     0.83190   0.30950   0.81740   0.01267  Uiso   1.00
O1     O     0.32350   0.91460   0.58560   0.01267  Uiso   1.00
O2     O     0.06110   0.89650   0.55180   0.01267  Uiso   1.00
O3     O     0.23240   0.09760   0.52340   0.01267  Uiso   1.00
O4     O     0.43070   0.17170   0.66820   0.01267  Uiso   1.00
O5     O     0.36490   0.86900   0.37360   0.01267  Uiso   1.00
O6     O     0.11220   0.87720   0.36100   0.01267  Uiso   1.00
O7     O     0.73790   0.08540   0.41440   0.01267  Uiso   1.00
O8     O     0.50930   0.10350   0.44820   0.01267  Uiso   1.00
O9     O     0.70900   0.90240   0.47660   0.01267  Uiso   1.00
O10    O     0.76250   0.82830   0.33180   0.01267  Uiso   1.00
O11    O     0.99130   0.13100   0.62640   0.01267  Uiso   1.00
O12    O     0.75120   0.12280   0.63900   0.01267  Uiso   1.00
