data_AFOYOK_clean
_audit_creation_date              2014-07-02
_audit_creation_method            'Materials Studio'
_symmetry_space_group_name_H-M    'P1'
_symmetry_Int_Tables_number       1
_symmetry_cell_setting            triclinic
loop_
_symmetry_equiv_pos_as_xyz
  x,y,z
_cell_length_a                    7.7119
_cell_length_b                    13.4745
_cell_length_c                    25.1892
_cell_angle_alpha                 90.0000
_cell_angle_beta                  90.0000
_cell_angle_gamma                 106.6290
loop_
_atom_site_label
_atom_site_type_symbol
_atom_site_fract_x
_atom_site_fract_y
_atom_site_fract_z
_atom_site_U_iso_or_equiv
_atom_site_adp_type
_atom_site_occupancy
Cu1    Cu    0.50000   0.50000   0.50000   0.01267  Uiso   1.00
Cu2    Cu    0.50000   0.50000   0.00000   0.01267  Uiso   1.00
Cu3    Cu    0.00000   0.50000   0.00000   0.01267  Uiso   1.00
Cu4    Cu    0.00000   0.50000   0.50000   0.01267  Uiso   1.00
H1     H     0.03380   0.69280   0.70340   0.01267  Uiso   1.00
H2     H     0.49460   0.58160   0.70380   0.01267  Uiso   1.00
H3     H     0.35490   0.09060   0.44440   0.01267  Uiso   1.00
H4     H     0.96620   0.30720   0.20340   0.01267  Uiso   1.00
H5     H     0.50540   0.41840   0.20380   0.01267  Uiso   1.00
H6     H     0.64510   0.90940   0.94440   0.01267  Uiso   1.00
H7     H     0.34100   0.30720   0.79660   0.01267  Uiso   1.00
H8     H     0.91300   0.41840   0.79620   0.01267  Uiso   1.00
H9     H     0.26430   0.90940   0.05560   0.01267  Uiso   1.00
H10    H     0.65900   0.69280   0.29660   0.01267  Uiso   1.00
H11    H     0.08700   0.58160   0.29620   0.01267  Uiso   1.00
H12    H     0.73570   0.09060   0.55560   0.01267  Uiso   1.00
H13    H     0.96620   0.30720   0.29660   0.01267  Uiso   1.00
H14    H     0.50540   0.41840   0.29620   0.01267  Uiso   1.00
H15    H     0.64510   0.90940   0.55560   0.01267  Uiso   1.00
H16    H     0.03380   0.69280   0.79660   0.01267  Uiso   1.00
H17    H     0.49460   0.58160   0.79620   0.01267  Uiso   1.00
H18    H     0.35490   0.09060   0.05560   0.01267  Uiso   1.00
H19    H     0.65900   0.69280   0.20340   0.01267  Uiso   1.00
H20    H     0.08700   0.58160   0.20380   0.01267  Uiso   1.00
H21    H     0.73570   0.09060   0.94440   0.01267  Uiso   1.00
H22    H     0.34100   0.30720   0.70340   0.01267  Uiso   1.00
H23    H     0.91300   0.41840   0.70380   0.01267  Uiso   1.00
H24    H     0.26430   0.90940   0.44440   0.01267  Uiso   1.00
C1     C     0.61646   0.59032   0.60735   0.01267  Uiso   1.00
C2     C     0.76477   0.61774   0.63785   0.01267  Uiso   1.00
C3     C     0.90749   0.61078   0.60830   0.01267  Uiso   1.00
C4     C     0.76569   0.63198   0.69516   0.01267  Uiso   1.00
C5     C     0.92304   0.66768   0.72218   0.01267  Uiso   1.00
C6     C     0.60596   0.60232   0.72257   0.01267  Uiso   1.00
C7     C     0.49750   0.27960   0.49999   0.01267  Uiso   1.00
C8     C     0.41442   0.05364   0.46710   0.01267  Uiso   1.00
C9     C     0.38354   0.40968   0.10735   0.01267  Uiso   1.00
C10    C     0.23523   0.38226   0.13785   0.01267  Uiso   1.00
C11    C     0.09251   0.38922   0.10830   0.01267  Uiso   1.00
C12    C     0.23431   0.36802   0.19516   0.01267  Uiso   1.00
C13    C     0.07696   0.33232   0.22218   0.01267  Uiso   1.00
C14    C     0.39404   0.39768   0.22257   0.01267  Uiso   1.00
C15    C     0.50250   0.72040   0.99999   0.01267  Uiso   1.00
C16    C     0.58558   0.94636   0.96710   0.01267  Uiso   1.00
C17    C     0.02614   0.40968   0.89265   0.01267  Uiso   1.00
C18    C     0.14703   0.38226   0.86215   0.01267  Uiso   1.00
C19    C     0.29671   0.38922   0.89170   0.01267  Uiso   1.00
C20    C     0.13371   0.36802   0.80484   0.01267  Uiso   1.00
C21    C     0.25536   0.33232   0.77782   0.01267  Uiso   1.00
C22    C     0.00364   0.39768   0.77743   0.01267  Uiso   1.00
C23    C     0.21790   0.72040   0.00001   0.01267  Uiso   1.00
C24    C     0.36078   0.94636   0.03290   0.01267  Uiso   1.00
C25    C     0.97386   0.59032   0.39265   0.01267  Uiso   1.00
C26    C     0.85297   0.61774   0.36215   0.01267  Uiso   1.00
C27    C     0.70329   0.61078   0.39170   0.01267  Uiso   1.00
C28    C     0.86629   0.63198   0.30484   0.01267  Uiso   1.00
C29    C     0.74464   0.66768   0.27782   0.01267  Uiso   1.00
C30    C     0.99636   0.60232   0.27743   0.01267  Uiso   1.00
C31    C     0.78210   0.27960   0.50001   0.01267  Uiso   1.00
C32    C     0.63922   0.05364   0.53290   0.01267  Uiso   1.00
C33    C     0.38354   0.40968   0.39265   0.01267  Uiso   1.00
C34    C     0.23523   0.38226   0.36215   0.01267  Uiso   1.00
C35    C     0.09251   0.38922   0.39170   0.01267  Uiso   1.00
C36    C     0.23431   0.36802   0.30484   0.01267  Uiso   1.00
C37    C     0.07696   0.33232   0.27782   0.01267  Uiso   1.00
C38    C     0.39404   0.39768   0.27743   0.01267  Uiso   1.00
C39    C     0.50250   0.72040   0.50001   0.01267  Uiso   1.00
C40    C     0.58558   0.94636   0.53290   0.01267  Uiso   1.00
C41    C     0.61646   0.59032   0.89265   0.01267  Uiso   1.00
C42    C     0.76477   0.61774   0.86215   0.01267  Uiso   1.00
C43    C     0.90749   0.61078   0.89170   0.01267  Uiso   1.00
C44    C     0.76569   0.63198   0.80484   0.01267  Uiso   1.00
C45    C     0.92304   0.66768   0.77782   0.01267  Uiso   1.00
C46    C     0.60596   0.60232   0.77743   0.01267  Uiso   1.00
C47    C     0.49750   0.27960   0.00001   0.01267  Uiso   1.00
C48    C     0.41442   0.05364   0.03290   0.01267  Uiso   1.00
C49    C     0.97386   0.59032   0.10735   0.01267  Uiso   1.00
C50    C     0.85297   0.61774   0.13785   0.01267  Uiso   1.00
C51    C     0.70329   0.61078   0.10830   0.01267  Uiso   1.00
C52    C     0.86629   0.63198   0.19516   0.01267  Uiso   1.00
C53    C     0.74464   0.66768   0.22218   0.01267  Uiso   1.00
C54    C     0.99636   0.60232   0.22257   0.01267  Uiso   1.00
C55    C     0.78210   0.27960   0.99999   0.01267  Uiso   1.00
C56    C     0.63922   0.05364   0.96710   0.01267  Uiso   1.00
C57    C     0.02614   0.40968   0.60735   0.01267  Uiso   1.00
C58    C     0.14703   0.38226   0.63785   0.01267  Uiso   1.00
C59    C     0.29671   0.38922   0.60830   0.01267  Uiso   1.00
C60    C     0.13371   0.36802   0.69516   0.01267  Uiso   1.00
C61    C     0.25536   0.33232   0.72218   0.01267  Uiso   1.00
C62    C     0.00364   0.39768   0.72257   0.01267  Uiso   1.00
C63    C     0.21790   0.72040   0.49999   0.01267  Uiso   1.00
C64    C     0.36078   0.94636   0.46710   0.01267  Uiso   1.00
C65    C     0.60916   0.21832   0.50000   0.01267  Uiso   1.00
C66    C     0.55292   0.10584   0.50000   0.01267  Uiso   1.00
C67    C     0.39084   0.78168   0.00000   0.01267  Uiso   1.00
C68    C     0.44708   0.89416   0.00000   0.01267  Uiso   1.00
C69    C     0.39084   0.78168   0.50000   0.01267  Uiso   1.00
C70    C     0.44708   0.89416   0.50000   0.01267  Uiso   1.00
C71    C     0.60916   0.21832   0.00000   0.01267  Uiso   1.00
C72    C     0.55292   0.10584   0.00000   0.01267  Uiso   1.00
N1     N     0.66849   0.56678   0.56019   0.01267  Uiso   1.00
N2     N     0.84816   0.57952   0.56031   0.01267  Uiso   1.00
N3     N     0.60020   0.37620   0.49998   0.01267  Uiso   1.00
N4     N     0.33151   0.43322   0.06019   0.01267  Uiso   1.00
N5     N     0.15184   0.42048   0.06031   0.01267  Uiso   1.00
N6     N     0.39980   0.62380   0.99998   0.01267  Uiso   1.00
N7     N     0.10171   0.43322   0.93981   0.01267  Uiso   1.00
N8     N     0.26864   0.42048   0.93969   0.01267  Uiso   1.00
N9     N     0.22400   0.62380   0.00002   0.01267  Uiso   1.00
N10    N     0.89829   0.56678   0.43981   0.01267  Uiso   1.00
N11    N     0.73136   0.57952   0.43969   0.01267  Uiso   1.00
N12    N     0.77600   0.37620   0.50002   0.01267  Uiso   1.00
N13    N     0.33151   0.43322   0.43981   0.01267  Uiso   1.00
N14    N     0.15184   0.42048   0.43969   0.01267  Uiso   1.00
N15    N     0.39980   0.62380   0.50002   0.01267  Uiso   1.00
N16    N     0.66849   0.56678   0.93981   0.01267  Uiso   1.00
N17    N     0.84816   0.57952   0.93969   0.01267  Uiso   1.00
N18    N     0.60020   0.37620   0.00002   0.01267  Uiso   1.00
N19    N     0.89829   0.56678   0.06019   0.01267  Uiso   1.00
N20    N     0.73136   0.57952   0.06031   0.01267  Uiso   1.00
N21    N     0.77600   0.37620   0.99998   0.01267  Uiso   1.00
N22    N     0.10171   0.43322   0.56019   0.01267  Uiso   1.00
N23    N     0.26864   0.42048   0.56031   0.01267  Uiso   1.00
N24    N     0.22400   0.62380   0.49998   0.01267  Uiso   1.00
