data_image0
_cell_length_a       7.1442
_cell_length_b       19.4387
_cell_length_c       17.3114
_cell_angle_alpha    90
_cell_angle_beta     90
_cell_angle_gamma    90

_symmetry_space_group_name_H-M    "P 1"
_symmetry_int_tables_number       1

loop_
  _symmetry_equiv_pos_as_xyz
  'x, y, z'

loop_
  _atom_site_label
  _atom_site_occupancy
  _atom_site_fract_x
  _atom_site_fract_y
  _atom_site_fract_z
  _atom_site_thermal_displace_type
  _atom_site_B_iso_or_equiv
  _atom_site_type_symbol
  N1       1.0000 0.06660  0.67796  0.19876  Biso   1.000  N
  N2       1.0000 0.87460  0.67760  0.19458  Biso   1.000  N
  N3       1.0000 0.98130  0.59919  0.11729  Biso   1.000  N
  C1       1.0000 0.12960  0.63046  0.15152  Biso   1.000  C
  H1       1.0000 0.25490  0.62000  0.14290  Biso   1.000  H
  C2       1.0000 0.82510  0.62997  0.14561  Biso   1.000  C
  H2       1.0000 0.70260  0.61890  0.13230  Biso   1.000  H
  C3       1.0000 0.99020  0.54760  0.05727  Biso   1.000  C
  C4       1.0000 0.86920  0.49260  0.05860  Biso   1.000  C
  H3       1.0000 0.78130  0.48810  0.09790  Biso   1.000  H
  C5       1.0000 0.11930  0.55580  0.99930  Biso   1.000  C
  H4       1.0000 0.19850  0.59380  0.99920  Biso   1.000  H
  N4       1.0000 0.43340  0.32204  0.69876  Biso   1.000  N
  N5       1.0000 0.62540  0.32240  0.69458  Biso   1.000  N
  N6       1.0000 0.51870  0.40081  0.61729  Biso   1.000  N
  C6       1.0000 0.37040  0.36954  0.65152  Biso   1.000  C
  H5       1.0000 0.24510  0.38000  0.64290  Biso   1.000  H
  C7       1.0000 0.67490  0.37003  0.64561  Biso   1.000  C
  H6       1.0000 0.79740  0.38110  0.63230  Biso   1.000  H
  C8       1.0000 0.50980  0.45240  0.55727  Biso   1.000  C
  C9       1.0000 0.63080  0.50740  0.55860  Biso   1.000  C
  H7       1.0000 0.71870  0.51190  0.59790  Biso   1.000  H
  C10      1.0000 0.38070  0.44420  0.49930  Biso   1.000  C
  H8       1.0000 0.30150  0.40620  0.49920  Biso   1.000  H
  N7       1.0000 0.93340  0.17796  0.80124  Biso   1.000  N
  N8       1.0000 0.12540  0.17760  0.80542  Biso   1.000  N
  N9       1.0000 0.01870  0.09919  0.88271  Biso   1.000  N
  C11      1.0000 0.87040  0.13046  0.84848  Biso   1.000  C
  H9       1.0000 0.74510  0.12000  0.85710  Biso   1.000  H
  C12      1.0000 0.17490  0.12997  0.85439  Biso   1.000  C
  H10      1.0000 0.29740  0.11890  0.86770  Biso   1.000  H
  C13      1.0000 0.00980  0.04760  0.94273  Biso   1.000  C
  C14      1.0000 0.13080  0.99260  0.94140  Biso   1.000  C
  H11      1.0000 0.21870  0.98810  0.90210  Biso   1.000  H
  C15      1.0000 0.88070  0.05580  0.00070  Biso   1.000  C
  H12      1.0000 0.80150  0.09380  0.00080  Biso   1.000  H
  N10      1.0000 0.56660  0.82204  0.30124  Biso   1.000  N
  N11      1.0000 0.37460  0.82240  0.30542  Biso   1.000  N
  N12      1.0000 0.48130  0.90081  0.38271  Biso   1.000  N
  C16      1.0000 0.62960  0.86954  0.34848  Biso   1.000  C
  H13      1.0000 0.75490  0.88000  0.35710  Biso   1.000  H
  C17      1.0000 0.32510  0.87003  0.35439  Biso   1.000  C
  H14      1.0000 0.20260  0.88110  0.36770  Biso   1.000  H
  C18      1.0000 0.49020  0.95240  0.44273  Biso   1.000  C
  C19      1.0000 0.36920  0.00740  0.44140  Biso   1.000  C
  H15      1.0000 0.28130  0.01190  0.40210  Biso   1.000  H
  C20      1.0000 0.61930  0.94420  0.50070  Biso   1.000  C
  H16      1.0000 0.69850  0.90620  0.50080  Biso   1.000  H
  N13      1.0000 0.93340  0.32204  0.80124  Biso   1.000  N
  N14      1.0000 0.12540  0.32240  0.80542  Biso   1.000  N
  N15      1.0000 0.01870  0.40081  0.88271  Biso   1.000  N
  C21      1.0000 0.87040  0.36954  0.84848  Biso   1.000  C
  H17      1.0000 0.74510  0.38000  0.85710  Biso   1.000  H
  C22      1.0000 0.17490  0.37003  0.85439  Biso   1.000  C
  H18      1.0000 0.29740  0.38110  0.86770  Biso   1.000  H
  C23      1.0000 0.00980  0.45240  0.94273  Biso   1.000  C
  C24      1.0000 0.13080  0.50740  0.94140  Biso   1.000  C
  H19      1.0000 0.21870  0.51190  0.90210  Biso   1.000  H
  C25      1.0000 0.88070  0.44420  0.00070  Biso   1.000  C
  H20      1.0000 0.80150  0.40620  0.00080  Biso   1.000  H
  N16      1.0000 0.56660  0.67796  0.30124  Biso   1.000  N
  N17      1.0000 0.37460  0.67760  0.30542  Biso   1.000  N
  N18      1.0000 0.48130  0.59919  0.38271  Biso   1.000  N
  C26      1.0000 0.62960  0.63046  0.34848  Biso   1.000  C
  H21      1.0000 0.75490  0.62000  0.35710  Biso   1.000  H
  C27      1.0000 0.32510  0.62997  0.35439  Biso   1.000  C
  H22      1.0000 0.20260  0.61890  0.36770  Biso   1.000  H
  C28      1.0000 0.49020  0.54760  0.44273  Biso   1.000  C
  C29      1.0000 0.36920  0.49260  0.44140  Biso   1.000  C
  H23      1.0000 0.28130  0.48810  0.40210  Biso   1.000  H
  C30      1.0000 0.61930  0.55580  0.50070  Biso   1.000  C
  H24      1.0000 0.69850  0.59380  0.50080  Biso   1.000  H
  N19      1.0000 0.06660  0.82204  0.19876  Biso   1.000  N
  N20      1.0000 0.87460  0.82240  0.19458  Biso   1.000  N
  N21      1.0000 0.98130  0.90081  0.11729  Biso   1.000  N
  C31      1.0000 0.12960  0.86954  0.15152  Biso   1.000  C
  H25      1.0000 0.25490  0.88000  0.14290  Biso   1.000  H
  C32      1.0000 0.82510  0.87003  0.14561  Biso   1.000  C
  H26      1.0000 0.70260  0.88110  0.13230  Biso   1.000  H
  C33      1.0000 0.99020  0.95240  0.05727  Biso   1.000  C
  C34      1.0000 0.86920  0.00740  0.05860  Biso   1.000  C
  H27      1.0000 0.78130  0.01190  0.09790  Biso   1.000  H
  C35      1.0000 0.11930  0.94420  0.99930  Biso   1.000  C
  H28      1.0000 0.19850  0.90620  0.99920  Biso   1.000  H
  N22      1.0000 0.43340  0.17796  0.69876  Biso   1.000  N
  N23      1.0000 0.62540  0.17760  0.69458  Biso   1.000  N
  N24      1.0000 0.51870  0.09919  0.61729  Biso   1.000  N
  C36      1.0000 0.37040  0.13046  0.65152  Biso   1.000  C
  H29      1.0000 0.24510  0.12000  0.64290  Biso   1.000  H
  C37      1.0000 0.67490  0.12997  0.64561  Biso   1.000  C
  H30      1.0000 0.79740  0.11890  0.63230  Biso   1.000  H
  C38      1.0000 0.50980  0.04760  0.55727  Biso   1.000  C
  C39      1.0000 0.63080  0.99260  0.55860  Biso   1.000  C
  H31      1.0000 0.71870  0.98810  0.59790  Biso   1.000  H
  C40      1.0000 0.38070  0.05580  0.49930  Biso   1.000  C
  H32      1.0000 0.30150  0.09380  0.49920  Biso   1.000  H
  Cu1      1.0000 0.21540  0.75000  0.25440  Biso   1.000  Cu
  Cu2      1.0000 0.28460  0.25000  0.75440  Biso   1.000  Cu
  Cu3      1.0000 0.78460  0.25000  0.74560  Biso   1.000  Cu
  Cu4      1.0000 0.71540  0.75000  0.24560  Biso   1.000  Cu
