data_image0
_cell_length_a       13.3427
_cell_length_b       13.4047
_cell_length_c       13.562
_cell_angle_alpha    102.339
_cell_angle_beta     104.369
_cell_angle_gamma    90.477

_symmetry_space_group_name_H-M    "P 1"
_symmetry_int_tables_number       1

loop_
  _symmetry_equiv_pos_as_xyz
  'x, y, z'

loop_
  _atom_site_label
  _atom_site_occupancy
  _atom_site_fract_x
  _atom_site_fract_y
  _atom_site_fract_z
  _atom_site_thermal_displace_type
  _atom_site_B_iso_or_equiv
  _atom_site_type_symbol
  Cu1      1.0000 0.74129  0.57282  0.52392  Biso   1.000  Cu
  O1       1.0000 0.64540  0.47750  0.54560  Biso   1.000  O
  H1       1.0000 0.66270  0.46410  0.60650  Biso   1.000  H
  N1       1.0000 0.53790  0.52580  0.37330  Biso   1.000  N
  N2       1.0000 0.63890  0.55960  0.38240  Biso   1.000  N
  N3       1.0000 0.55370  0.53080  0.21860  Biso   1.000  N
  N4       1.0000 0.56440  0.68360  0.58840  Biso   1.000  N
  N5       1.0000 0.67050  0.70250  0.60940  Biso   1.000  N
  N6       1.0000 0.61130  0.82440  0.71020  Biso   1.000  N
  N7       1.0000 0.49940  0.27580  0.11900  Biso   1.000  N
  N8       1.0000 0.59830  0.26890  0.17630  Biso   1.000  N
  N9       1.0000 0.57200  0.15740  0.02610  Biso   1.000  N
  N10      1.0000 0.84460  0.66320  0.49030  Biso   1.000  N
  N11      1.0000 0.94380  0.63620  0.49040  Biso   1.000  N
  N12      1.0000 0.93550  0.79800  0.48820  Biso   1.000  N
  N13      1.0000 0.94480  0.49880  0.62690  Biso   1.000  N
  N14      1.0000 0.85430  0.54210  0.64170  Biso   1.000  N
  N15      1.0000 0.93990  0.51050  0.78880  Biso   1.000  N
  C1       1.0000 0.48950  0.50830  0.27370  Biso   1.000  C
  H2       1.0000 0.41990  0.48350  0.24530  Biso   1.000  H
  C2       1.0000 0.64610  0.56180  0.28880  Biso   1.000  C
  H3       1.0000 0.70650  0.58190  0.27230  Biso   1.000  H
  C3       1.0000 0.43110  0.54370  0.05640  Biso   1.000  C
  H4       1.0000 0.38530  0.57330  0.09520  Biso   1.000  H
  C4       1.0000 0.52760  0.51680  0.10660  Biso   1.000  C
  C5       1.0000 0.59690  0.47370  0.05140  Biso   1.000  C
  H5       1.0000 0.66210  0.45640  0.08670  Biso   1.000  H
  C6       1.0000 0.53170  0.75650  0.64910  Biso   1.000  C
  H6       1.0000 0.46200  0.76220  0.65100  Biso   1.000  H
  C7       1.0000 0.69660  0.78630  0.68260  Biso   1.000  C
  H7       1.0000 0.76460  0.81560  0.71180  Biso   1.000  H
  C8       1.0000 0.48660  0.21100  0.03100  Biso   1.000  C
  H8       1.0000 0.42560  0.20190  0.97670  Biso   1.000  H
  C9       1.0000 0.63930  0.19810  0.11950  Biso   1.000  C
  H9       1.0000 0.70710  0.17780  0.14060  Biso   1.000  H
  C10      1.0000 0.60450  0.91320  0.78830  Biso   1.000  C
  C11      1.0000 0.68050  0.93710  0.88150  Biso   1.000  C
  H10      1.0000 0.73870  0.89780  0.89200  Biso   1.000  H
  C12      1.0000 0.67060  0.01890  0.95870  Biso   1.000  C
  H11      1.0000 0.72280  0.03630  0.02150  Biso   1.000  H
  C13      1.0000 0.58420  0.07520  0.94430  Biso   1.000  C
  C14      1.0000 0.50900  0.05080  0.85200  Biso   1.000  C
  H12      1.0000 0.45010  0.08910  0.84210  Biso   1.000  H
  C15      1.0000 0.51950  0.97010  0.77330  Biso   1.000  C
  H13      1.0000 0.46830  0.95430  0.70960  Biso   1.000  H
  C16      1.0000 0.84090  0.75960  0.48900  Biso   1.000  C
  H14      1.0000 0.78180  0.79730  0.48860  Biso   1.000  H
  C17      1.0000 0.99730  0.71780  0.48950  Biso   1.000  C
  H15      1.0000 0.06770  0.72070  0.48960  Biso   1.000  H
  C18      1.0000 0.92630  0.98010  0.55170  Biso   1.000  C
  H16      1.0000 0.87680  0.96620  0.58650  Biso   1.000  H
  C19      1.0000 0.96770  0.90140  0.49350  Biso   1.000  C
  C20      1.0000 0.04050  0.91940  0.44240  Biso   1.000  C
  H17      1.0000 0.06780  0.86440  0.40380  Biso   1.000  H
  C21      1.0000 0.99420  0.47950  0.71620  Biso   1.000  C
  H18      1.0000 0.05790  0.44870  0.72850  Biso   1.000  H
  C22      1.0000 0.85350  0.54910  0.73870  Biso   1.000  C
  H19      1.0000 0.80090  0.57660  0.76920  Biso   1.000  H
  C23      1.0000 0.07050  0.53420  0.95330  Biso   1.000  C
  H20      1.0000 0.11840  0.55760  0.92150  Biso   1.000  H
  C24      1.0000 0.97110  0.50520  0.89800  Biso   1.000  C
  C25      1.0000 0.89960  0.47130  0.94210  Biso   1.000  C
  H21      1.0000 0.83110  0.45190  0.90230  Biso   1.000  H
  Cu2      1.0000 0.25871  0.42718  0.47608  Biso   1.000  Cu
  O2       1.0000 0.35460  0.52250  0.45440  Biso   1.000  O
  H22      1.0000 0.33730  0.53590  0.39350  Biso   1.000  H
  N16      1.0000 0.46210  0.47420  0.62670  Biso   1.000  N
  N17      1.0000 0.36110  0.44040  0.61760  Biso   1.000  N
  N18      1.0000 0.44630  0.46920  0.78140  Biso   1.000  N
  N19      1.0000 0.43560  0.31640  0.41160  Biso   1.000  N
  N20      1.0000 0.32950  0.29750  0.39060  Biso   1.000  N
  N21      1.0000 0.38870  0.17560  0.28980  Biso   1.000  N
  N22      1.0000 0.50060  0.72420  0.88100  Biso   1.000  N
  N23      1.0000 0.40170  0.73110  0.82370  Biso   1.000  N
  N24      1.0000 0.42800  0.84260  0.97390  Biso   1.000  N
  N25      1.0000 0.15540  0.33680  0.50970  Biso   1.000  N
  N26      1.0000 0.05620  0.36380  0.50960  Biso   1.000  N
  N27      1.0000 0.06450  0.20200  0.51180  Biso   1.000  N
  N28      1.0000 0.05520  0.50120  0.37310  Biso   1.000  N
  N29      1.0000 0.14570  0.45790  0.35830  Biso   1.000  N
  N30      1.0000 0.06010  0.48950  0.21120  Biso   1.000  N
  C26      1.0000 0.51050  0.49170  0.72630  Biso   1.000  C
  H23      1.0000 0.58010  0.51650  0.75470  Biso   1.000  H
  C27      1.0000 0.35390  0.43820  0.71120  Biso   1.000  C
  H24      1.0000 0.29350  0.41810  0.72770  Biso   1.000  H
  C28      1.0000 0.56890  0.45630  0.94360  Biso   1.000  C
  H25      1.0000 0.61470  0.42670  0.90480  Biso   1.000  H
  C29      1.0000 0.47240  0.48320  0.89340  Biso   1.000  C
  C30      1.0000 0.40310  0.52630  0.94860  Biso   1.000  C
  H26      1.0000 0.33790  0.54360  0.91330  Biso   1.000  H
  C31      1.0000 0.46830  0.24350  0.35090  Biso   1.000  C
  H27      1.0000 0.53800  0.23780  0.34900  Biso   1.000  H
  C32      1.0000 0.30340  0.21370  0.31740  Biso   1.000  C
  H28      1.0000 0.23540  0.18440  0.28820  Biso   1.000  H
  C33      1.0000 0.51340  0.78900  0.96900  Biso   1.000  C
  H29      1.0000 0.57440  0.79810  0.02330  Biso   1.000  H
  C34      1.0000 0.36070  0.80190  0.88050  Biso   1.000  C
  H30      1.0000 0.29290  0.82220  0.85940  Biso   1.000  H
  C35      1.0000 0.39550  0.08680  0.21170  Biso   1.000  C
  C36      1.0000 0.31950  0.06290  0.11850  Biso   1.000  C
  H31      1.0000 0.26130  0.10220  0.10800  Biso   1.000  H
  C37      1.0000 0.32940  0.98110  0.04130  Biso   1.000  C
  H32      1.0000 0.27720  0.96370  0.97850  Biso   1.000  H
  C38      1.0000 0.41580  0.92480  0.05570  Biso   1.000  C
  C39      1.0000 0.49100  0.94920  0.14800  Biso   1.000  C
  H33      1.0000 0.54990  0.91090  0.15790  Biso   1.000  H
  C40      1.0000 0.48050  0.02990  0.22670  Biso   1.000  C
  H34      1.0000 0.53170  0.04570  0.29040  Biso   1.000  H
  C41      1.0000 0.15910  0.24040  0.51100  Biso   1.000  C
  H35      1.0000 0.21820  0.20270  0.51140  Biso   1.000  H
  C42      1.0000 0.00270  0.28220  0.51050  Biso   1.000  C
  H36      1.0000 0.93230  0.27930  0.51040  Biso   1.000  H
  C43      1.0000 0.07370  0.01990  0.44830  Biso   1.000  C
  H37      1.0000 0.12320  0.03380  0.41350  Biso   1.000  H
  C44      1.0000 0.03230  0.09860  0.50650  Biso   1.000  C
  C45      1.0000 0.95950  0.08060  0.55760  Biso   1.000  C
  H38      1.0000 0.93220  0.13560  0.59620  Biso   1.000  H
  C46      1.0000 0.00580  0.52050  0.28380  Biso   1.000  C
  H39      1.0000 0.94210  0.55130  0.27150  Biso   1.000  H
  C47      1.0000 0.14650  0.45090  0.26130  Biso   1.000  C
  H40      1.0000 0.19910  0.42340  0.23080  Biso   1.000  H
  C48      1.0000 0.92950  0.46580  0.04670  Biso   1.000  C
  H41      1.0000 0.88160  0.44240  0.07850  Biso   1.000  H
  C49      1.0000 0.02890  0.49480  0.10200  Biso   1.000  C
  C50      1.0000 0.10040  0.52870  0.05790  Biso   1.000  C
  H42      1.0000 0.16890  0.54810  0.09770  Biso   1.000  H
  Cu3      1.0000 0.50000  0.50000  0.50000  Biso   1.000  Cu
  Cu4      1.0000 0.00000  0.50000  0.50000  Biso   1.000  Cu
