data_AFUKET_clean
_audit_creation_date              2014-07-02
_audit_creation_method            'Materials Studio'
_symmetry_space_group_name_H-M    'P1'
_symmetry_Int_Tables_number       1
_symmetry_cell_setting            triclinic
loop_
_symmetry_equiv_pos_as_xyz
  x,y,z
_cell_length_a                    10.5211
_cell_length_b                    24.1489
_cell_length_c                    37.8771
_cell_angle_alpha                 88.2663
_cell_angle_beta                  82.0167
_cell_angle_gamma                 77.4181
loop_
_atom_site_label
_atom_site_type_symbol
_atom_site_fract_x
_atom_site_fract_y
_atom_site_fract_z
_atom_site_U_iso_or_equiv
_atom_site_adp_type
_atom_site_occupancy
Mn1    Mn    0.39068   0.73654   0.58676   0.01267  Uiso   1.00
Mn2    Mn    0.05843   0.73202   0.61748   0.01267  Uiso   1.00
Mn3    Mn    0.79919   0.66961   0.63657   0.01267  Uiso   1.00
Mn4    Mn    0.71398   0.26346   0.41324   0.01267  Uiso   1.00
Mn5    Mn    0.40793   0.26798   0.38252   0.01267  Uiso   1.00
Mn6    Mn    0.10537   0.33039   0.36343   0.01267  Uiso   1.00
Mn7    Mn    0.22744   0.23654   0.91324   0.01267  Uiso   1.00
Mn8    Mn    0.92591   0.23202   0.88252   0.01267  Uiso   1.00
Mn9    Mn    0.68576   0.16961   0.86343   0.01267  Uiso   1.00
Mn10   Mn    0.37722   0.76346   0.08676   0.01267  Uiso   1.00
Mn11   Mn    0.04045   0.76798   0.11748   0.01267  Uiso   1.00
Mn12   Mn    0.71880   0.83039   0.13657   0.01267  Uiso   1.00
H1     H     0.07870   0.84880   0.82960   0.01267  Uiso   1.00
H2     H     0.10980   0.78180   0.82980   0.01267  Uiso   1.00
H3     H     0.32330   0.86940   0.85220   0.01267  Uiso   1.00
H4     H     0.28850   0.86740   0.89400   0.01267  Uiso   1.00
H5     H     0.05200   0.77900   0.89680   0.01267  Uiso   1.00
H6     H     0.00830   0.84540   0.89400   0.01267  Uiso   1.00
H7     H     0.32930   0.76440   0.89460   0.01267  Uiso   1.00
H8     H     0.37330   0.76460   0.85340   0.01267  Uiso   1.00
H9     H     0.12420   0.65720   0.84060   0.01267  Uiso   1.00
H10    H     0.15210   0.59120   0.83500   0.01267  Uiso   1.00
H11    H     0.46110   0.55820   0.86960   0.01267  Uiso   1.00
H12    H     0.45050   0.56860   0.82880   0.01267  Uiso   1.00
H13    H     0.17210   0.57660   0.89640   0.01267  Uiso   1.00
H14    H     0.15170   0.64160   0.90400   0.01267  Uiso   1.00
H15    H     0.40500   0.66840   0.83700   0.01267  Uiso   1.00
H16    H     0.41640   0.66000   0.87780   0.01267  Uiso   1.00
H17    H     0.06190   0.81260   0.77240   0.01267  Uiso   1.00
H18    H     0.07070   0.79140   0.71260   0.01267  Uiso   1.00
H19    H     0.45910   0.77380   0.69940   0.01267  Uiso   1.00
H20    H     0.44750   0.79140   0.75940   0.01267  Uiso   1.00
H21    H     0.97860   0.00460   0.87740   0.01267  Uiso   1.00
H22    H     0.99040   0.09340   0.89100   0.01267  Uiso   1.00
H23    H     0.37890   0.04040   0.88640   0.01267  Uiso   1.00
H24    H     0.35750   0.94960   0.87480   0.01267  Uiso   1.00
H25    H     0.18270   0.83740   0.98920   0.01267  Uiso   1.00
H26    H     0.05740   0.83700   0.04500   0.01267  Uiso   1.00
H27    H     0.76270   0.80860   0.99980   0.01267  Uiso   1.00
H28    H     0.88380   0.80680   0.94360   0.01267  Uiso   1.00
H29    H     0.00260   0.63840   0.80160   0.01267  Uiso   1.00
H30    H     0.88640   0.64440   0.75500   0.01267  Uiso   1.00
H31    H     0.21200   0.65240   0.68980   0.01267  Uiso   1.00
H32    H     0.32670   0.63780   0.73740   0.01267  Uiso   1.00
H33    H     0.28500   0.42300   0.85220   0.01267  Uiso   1.00
H34    H     0.40860   0.33440   0.85460   0.01267  Uiso   1.00
H35    H     0.73020   0.39380   0.85020   0.01267  Uiso   1.00
H36    H     0.60300   0.48800   0.84660   0.01267  Uiso   1.00
H37    H     0.44680   0.57960   0.96840   0.01267  Uiso   1.00
H38    H     0.40810   0.61680   0.02640   0.01267  Uiso   1.00
H39    H     0.05530   0.69820   0.01020   0.01267  Uiso   1.00
H40    H     0.09120   0.66100   0.95260   0.01267  Uiso   1.00
H41    H     0.80590   0.56460   0.57900   0.01267  Uiso   1.00
H42    H     0.85020   0.54420   0.67920   0.01267  Uiso   1.00
H43    H     0.84690   0.45320   0.65800   0.01267  Uiso   1.00
H44    H     0.83660   0.38920   0.61880   0.01267  Uiso   1.00
H45    H     0.79520   0.32040   0.58100   0.01267  Uiso   1.00
H46    H     0.68220   0.44040   0.51200   0.01267  Uiso   1.00
H47    H     0.72090   0.50720   0.55200   0.01267  Uiso   1.00
H48    H     0.73230   0.36620   0.47060   0.01267  Uiso   1.00
H49    H     0.70640   0.26500   0.55180   0.01267  Uiso   1.00
H50    H     0.70130   0.21460   0.49680   0.01267  Uiso   1.00
H51    H     0.75710   0.15120   0.17040   0.01267  Uiso   1.00
H52    H     0.72140   0.21820   0.17020   0.01267  Uiso   1.00
H53    H     0.04490   0.13060   0.14780   0.01267  Uiso   1.00
H54    H     0.04990   0.13260   0.10600   0.01267  Uiso   1.00
H55    H     0.72780   0.22100   0.10320   0.01267  Uiso   1.00
H56    H     0.74770   0.15460   0.10600   0.01267  Uiso   1.00
H57    H     0.98830   0.23560   0.10540   0.01267  Uiso   1.00
H58    H     0.99130   0.23540   0.14660   0.01267  Uiso   1.00
H59    H     0.62200   0.34280   0.15940   0.01267  Uiso   1.00
H60    H     0.57830   0.40880   0.16500   0.01267  Uiso   1.00
H61    H     0.88890   0.44180   0.13040   0.01267  Uiso   1.00
H62    H     0.84790   0.43140   0.17120   0.01267  Uiso   1.00
H63    H     0.64510   0.42340   0.10360   0.01267  Uiso   1.00
H64    H     0.69730   0.35840   0.09600   0.01267  Uiso   1.00
H65    H     0.91040   0.33160   0.16300   0.01267  Uiso   1.00
H66    H     0.95420   0.34000   0.12220   0.01267  Uiso   1.00
H67    H     0.64690   0.18740   0.22760   0.01267  Uiso   1.00
H68    H     0.57470   0.20860   0.28740   0.01267  Uiso   1.00
H69    H     0.93230   0.22620   0.30060   0.01267  Uiso   1.00
H70    H     0.99830   0.20860   0.24060   0.01267  Uiso   1.00
H71    H     0.86060   0.99540   0.12260   0.01267  Uiso   1.00
H72    H     0.97480   0.90660   0.10900   0.01267  Uiso   1.00
H73    H     0.30570   0.95960   0.11360   0.01267  Uiso   1.00
H74    H     0.18190   0.05040   0.12520   0.01267  Uiso   1.00
H75    H     0.00930   0.16260   0.01080   0.01267  Uiso   1.00
H76    H     0.93940   0.16300   0.95500   0.01267  Uiso   1.00
H77    H     0.57110   0.19140   0.00020   0.01267  Uiso   1.00
H78    H     0.63420   0.19320   0.05640   0.01267  Uiso   1.00
H79    H     0.44260   0.36160   0.19840   0.01267  Uiso   1.00
H80    H     0.28580   0.35560   0.24500   0.01267  Uiso   1.00
H81    H     0.55420   0.34760   0.31020   0.01267  Uiso   1.00
H82    H     0.70190   0.36220   0.26260   0.01267  Uiso   1.00
H83    H     0.56020   0.57700   0.14780   0.01267  Uiso   1.00
H84    H     0.59760   0.66560   0.14540   0.01267  Uiso   1.00
H85    H     0.97420   0.60620   0.14980   0.01267  Uiso   1.00
H86    H     0.93760   0.51200   0.15340   0.01267  Uiso   1.00
H87    H     0.99480   0.42040   0.03160   0.01267  Uiso   1.00
H88    H     0.05130   0.38320   0.97360   0.01267  Uiso   1.00
H89    H     0.76370   0.30180   0.98980   0.01267  Uiso   1.00
H90    H     0.70480   0.33900   0.04740   0.01267  Uiso   1.00
H91    H     0.94950   0.43540   0.42100   0.01267  Uiso   1.00
H92    H     0.07360   0.45580   0.32080   0.01267  Uiso   1.00
H93    H     0.95810   0.54680   0.34200   0.01267  Uiso   1.00
H94    H     0.84460   0.61080   0.38120   0.01267  Uiso   1.00
H95    H     0.69660   0.67960   0.41900   0.01267  Uiso   1.00
H96    H     0.63460   0.55960   0.48800   0.01267  Uiso   1.00
H97    H     0.78010   0.49280   0.44800   0.01267  Uiso   1.00
H98    H     0.56910   0.63380   0.52940   0.01267  Uiso   1.00
H99    H     0.52320   0.73500   0.44820   0.01267  Uiso   1.00
H100   H     0.41270   0.78540   0.50320   0.01267  Uiso   1.00
H101   H     0.15830   0.34880   0.67040   0.01267  Uiso   1.00
H102   H     0.18960   0.28180   0.67020   0.01267  Uiso   1.00
H103   H     0.42550   0.36940   0.64780   0.01267  Uiso   1.00
H104   H     0.43250   0.36740   0.60600   0.01267  Uiso   1.00
H105   H     0.19880   0.27900   0.60320   0.01267  Uiso   1.00
H106   H     0.15230   0.34540   0.60600   0.01267  Uiso   1.00
H107   H     0.47390   0.26440   0.60540   0.01267  Uiso   1.00
H108   H     0.47670   0.26460   0.64660   0.01267  Uiso   1.00
H109   H     0.21480   0.15720   0.65940   0.01267  Uiso   1.00
H110   H     0.23710   0.09120   0.66500   0.01267  Uiso   1.00
H111   H     0.58070   0.05820   0.63040   0.01267  Uiso   1.00
H112   H     0.52930   0.06860   0.67120   0.01267  Uiso   1.00
H113   H     0.31850   0.07660   0.60360   0.01267  Uiso   1.00
H114   H     0.30570   0.14160   0.59600   0.01267  Uiso   1.00
H115   H     0.49200   0.16840   0.66300   0.01267  Uiso   1.00
H116   H     0.54420   0.16000   0.62220   0.01267  Uiso   1.00
H117   H     0.08430   0.31260   0.72760   0.01267  Uiso   1.00
H118   H     0.03330   0.29140   0.78740   0.01267  Uiso   1.00
H119   H     0.40850   0.27380   0.80060   0.01267  Uiso   1.00
H120   H     0.45690   0.29140   0.74060   0.01267  Uiso   1.00
H121   H     0.10600   0.50460   0.62260   0.01267  Uiso   1.00
H122   H     0.13140   0.59340   0.60900   0.01267  Uiso   1.00
H123   H     0.51530   0.54040   0.61360   0.01267  Uiso   1.00
H124   H     0.48230   0.44960   0.62520   0.01267  Uiso   1.00
H125   H     0.42190   0.33740   0.51080   0.01267  Uiso   1.00
H126   H     0.35240   0.33700   0.45500   0.01267  Uiso   1.00
H127   H     0.01250   0.30860   0.50020   0.01267  Uiso   1.00
H128   H     0.07740   0.30680   0.55640   0.01267  Uiso   1.00
H129   H     0.05420   0.13840   0.69840   0.01267  Uiso   1.00
H130   H     0.89140   0.14440   0.74500   0.01267  Uiso   1.00
H131   H     0.15180   0.15240   0.81020   0.01267  Uiso   1.00
H132   H     0.31410   0.13780   0.76260   0.01267  Uiso   1.00
H133   H     0.38720   0.92300   0.64780   0.01267  Uiso   1.00
H134   H     0.51320   0.83440   0.64540   0.01267  Uiso   1.00
H135   H     0.83040   0.89380   0.64980   0.01267  Uiso   1.00
H136   H     0.69960   0.98800   0.65340   0.01267  Uiso   1.00
H137   H     0.66520   0.07960   0.53160   0.01267  Uiso   1.00
H138   H     0.68450   0.11680   0.47360   0.01267  Uiso   1.00
H139   H     0.31550   0.19820   0.48980   0.01267  Uiso   1.00
H140   H     0.29380   0.16100   0.54740   0.01267  Uiso   1.00
H141   H     0.63490   0.06460   0.92100   0.01267  Uiso   1.00
H142   H     0.77940   0.04420   0.82080   0.01267  Uiso   1.00
H143   H     0.75490   0.95320   0.84200   0.01267  Uiso   1.00
H144   H     0.70540   0.88920   0.88120   0.01267  Uiso   1.00
H145   H     0.62620   0.82040   0.91900   0.01267  Uiso   1.00
H146   H     0.44420   0.94040   0.98800   0.01267  Uiso   1.00
H147   H     0.52290   0.00720   0.94800   0.01267  Uiso   1.00
H148   H     0.45290   0.86620   0.02940   0.01267  Uiso   1.00
H149   H     0.50820   0.76500   0.94820   0.01267  Uiso   1.00
H150   H     0.44810   0.71460   0.00320   0.01267  Uiso   1.00
H151   H     0.17750   0.65120   0.32960   0.01267  Uiso   1.00
H152   H     0.14160   0.71820   0.32980   0.01267  Uiso   1.00
H153   H     0.44270   0.63060   0.35220   0.01267  Uiso   1.00
H154   H     0.40590   0.63260   0.39400   0.01267  Uiso   1.00
H155   H     0.08100   0.72100   0.39680   0.01267  Uiso   1.00
H156   H     0.10370   0.65460   0.39400   0.01267  Uiso   1.00
H157   H     0.34370   0.73560   0.39460   0.01267  Uiso   1.00
H158   H     0.38790   0.73540   0.35340   0.01267  Uiso   1.00
H159   H     0.03140   0.84280   0.34060   0.01267  Uiso   1.00
H160   H     0.99330   0.90880   0.33500   0.01267  Uiso   1.00
H161   H     0.26930   0.94180   0.36960   0.01267  Uiso   1.00
H162   H     0.26910   0.93140   0.32880   0.01267  Uiso   1.00
H163   H     0.99870   0.92340   0.39640   0.01267  Uiso   1.00
H164   H     0.04330   0.85840   0.40400   0.01267  Uiso   1.00
H165   H     0.32340   0.83160   0.33700   0.01267  Uiso   1.00
H166   H     0.32640   0.84000   0.37780   0.01267  Uiso   1.00
H167   H     0.12450   0.68740   0.27240   0.01267  Uiso   1.00
H168   H     0.11210   0.70860   0.21260   0.01267  Uiso   1.00
H169   H     0.48290   0.72620   0.19940   0.01267  Uiso   1.00
H170   H     0.48890   0.70860   0.25940   0.01267  Uiso   1.00
H171   H     0.23320   0.49540   0.37740   0.01267  Uiso   1.00
H172   H     0.33380   0.40660   0.39100   0.01267  Uiso   1.00
H173   H     0.66930   0.45960   0.38640   0.01267  Uiso   1.00
H174   H     0.55710   0.55040   0.37480   0.01267  Uiso   1.00
H175   H     0.27010   0.66260   0.48920   0.01267  Uiso   1.00
H176   H     0.14440   0.66300   0.54500   0.01267  Uiso   1.00
H177   H     0.82130   0.69140   0.49980   0.01267  Uiso   1.00
H178   H     0.94060   0.69320   0.44360   0.01267  Uiso   1.00
H179   H     0.89100   0.86160   0.30160   0.01267  Uiso   1.00
H180   H     0.78080   0.85560   0.25500   0.01267  Uiso   1.00
H181   H     0.11440   0.84760   0.18980   0.01267  Uiso   1.00
H182   H     0.21450   0.86220   0.23740   0.01267  Uiso   1.00
H183   H     0.95800   0.07700   0.35220   0.01267  Uiso   1.00
H184   H     0.99300   0.16560   0.35460   0.01267  Uiso   1.00
H185   H     0.37400   0.10620   0.35020   0.01267  Uiso   1.00
H186   H     0.34100   0.01200   0.34660   0.01267  Uiso   1.00
H187   H     0.27640   0.92040   0.46840   0.01267  Uiso   1.00
H188   H     0.27490   0.88320   0.52640   0.01267  Uiso   1.00
H189   H     0.00350   0.80180   0.51020   0.01267  Uiso   1.00
H190   H     0.00220   0.83900   0.45260   0.01267  Uiso   1.00
H191   H     0.62050   0.93540   0.07900   0.01267  Uiso   1.00
H192   H     0.64440   0.95580   0.17920   0.01267  Uiso   1.00
H193   H     0.55010   0.04680   0.15800   0.01267  Uiso   1.00
H194   H     0.47580   0.11080   0.11880   0.01267  Uiso   1.00
H195   H     0.36560   0.17960   0.08100   0.01267  Uiso   1.00
H196   H     0.37260   0.05960   0.01200   0.01267  Uiso   1.00
H197   H     0.47810   0.99280   0.05200   0.01267  Uiso   1.00
H198   H     0.34850   0.13380   0.97060   0.01267  Uiso   1.00
H199   H     0.22140   0.23500   0.05180   0.01267  Uiso   1.00
H200   H     0.16590   0.28540   0.99680   0.01267  Uiso   1.00
C1     C     0.19864   0.81482   0.86830   0.01267  Uiso   1.00
C2     C     0.14592   0.81502   0.83214   0.01267  Uiso   1.00
C3     C     0.25340   0.86782   0.87158   0.01267  Uiso   1.00
C4     C     0.08119   0.81430   0.89732   0.01267  Uiso   1.00
C5     C     0.29902   0.76432   0.87164   0.01267  Uiso   1.00
C6     C     0.28897   0.61538   0.86108   0.01267  Uiso   1.00
C7     C     0.19294   0.62368   0.83424   0.01267  Uiso   1.00
C8     C     0.40145   0.56332   0.85178   0.01267  Uiso   1.00
C9     C     0.21711   0.60748   0.89710   0.01267  Uiso   1.00
C10    C     0.35606   0.66502   0.86026   0.01267  Uiso   1.00
C11    C     0.25261   0.80404   0.77174   0.01267  Uiso   1.00
C12    C     0.14254   0.80440   0.75792   0.01267  Uiso   1.00
C13    C     0.14733   0.79266   0.72188   0.01267  Uiso   1.00
C14    C     0.26358   0.78328   0.70056   0.01267  Uiso   1.00
C15    C     0.37844   0.78176   0.71396   0.01267  Uiso   1.00
C16    C     0.37045   0.79232   0.74978   0.01267  Uiso   1.00
C17    C     0.26695   0.76754   0.66136   0.01267  Uiso   1.00
C18    C     0.16743   0.96814   0.87640   0.01267  Uiso   1.00
C19    C     0.05984   0.01202   0.88010   0.01267  Uiso   1.00
C20    C     0.06624   0.06490   0.88742   0.01267  Uiso   1.00
C21    C     0.18584   0.07638   0.88954   0.01267  Uiso   1.00
C22    C     0.29642   0.03318   0.88498   0.01267  Uiso   1.00
C23    C     0.28311   0.97896   0.87822   0.01267  Uiso   1.00
C24    C     0.19910   0.13576   0.89804   0.01267  Uiso   1.00
C25    C     0.04613   0.82184   0.96130   0.01267  Uiso   1.00
C26    C     0.09775   0.83126   0.99104   0.01267  Uiso   1.00
C27    C     0.02194   0.83166   0.02446   0.01267  Uiso   1.00
C28    C     0.89940   0.82434   0.02706   0.01267  Uiso   1.00
C29    C     0.84794   0.81456   0.99736   0.01267  Uiso   1.00
C30    C     0.91961   0.81326   0.96372   0.01267  Uiso   1.00
C31    C     0.82086   0.82296   0.06272   0.01267  Uiso   1.00
C32    C     0.17479   0.63660   0.77422   0.01267  Uiso   1.00
C33    C     0.04595   0.63992   0.77858   0.01267  Uiso   1.00
C34    C     0.97508   0.64534   0.75110   0.01267  Uiso   1.00
C35    C     0.03547   0.65240   0.71706   0.01267  Uiso   1.00
C36    C     0.16779   0.64902   0.71260   0.01267  Uiso   1.00
C37    C     0.23620   0.64070   0.74110   0.01267  Uiso   1.00
C38    C     0.95820   0.66122   0.68738   0.01267  Uiso   1.00
C39    C     0.43417   0.46366   0.85100   0.01267  Uiso   1.00
C40    C     0.37511   0.41762   0.85236   0.01267  Uiso   1.00
C41    C     0.44904   0.36514   0.85378   0.01267  Uiso   1.00
C42    C     0.58031   0.35530   0.85408   0.01267  Uiso   1.00
C43    C     0.63939   0.39994   0.85108   0.01267  Uiso   1.00
C44    C     0.56306   0.45696   0.84912   0.01267  Uiso   1.00
C45    C     0.66436   0.29762   0.85886   0.01267  Uiso   1.00
C46    C     0.26738   0.61818   0.95566   0.01267  Uiso   1.00
C47    C     0.36755   0.60382   0.97668   0.01267  Uiso   1.00
C48    C     0.34450   0.62732   0.01128   0.01267  Uiso   1.00
C49    C     0.23155   0.66490   0.02280   0.01267  Uiso   1.00
C50    C     0.13636   0.67526   0.00182   0.01267  Uiso   1.00
C51    C     0.15710   0.65198   0.96722   0.01267  Uiso   1.00
C52    C     0.21891   0.69452   0.05886   0.01267  Uiso   1.00
C53    C     0.81337   0.54930   0.60156   0.01267  Uiso   1.00
C54    C     0.84048   0.53664   0.65600   0.01267  Uiso   1.00
C55    C     0.83524   0.48690   0.64522   0.01267  Uiso   1.00
C56    C     0.78408   0.45388   0.58696   0.01267  Uiso   1.00
C57    C     0.80582   0.39982   0.59714   0.01267  Uiso   1.00
C58    C     0.78064   0.35840   0.57432   0.01267  Uiso   1.00
C59    C     0.73557   0.37452   0.54294   0.01267  Uiso   1.00
C60    C     0.71310   0.42860   0.53340   0.01267  Uiso   1.00
C61    C     0.73856   0.46880   0.55788   0.01267  Uiso   1.00
C62    C     0.71888   0.33522   0.48462   0.01267  Uiso   1.00
C63    C     0.70847   0.28000   0.52886   0.01267  Uiso   1.00
C64    C     0.70265   0.25274   0.49856   0.01267  Uiso   1.00
C65    C     0.88176   0.18518   0.13170   0.01267  Uiso   1.00
C66    C     0.79308   0.18498   0.16786   0.01267  Uiso   1.00
C67    C     0.99280   0.13218   0.12842   0.01267  Uiso   1.00
C68    C     0.79281   0.18570   0.10268   0.01267  Uiso   1.00
C69    C     0.93498   0.23568   0.12836   0.01267  Uiso   1.00
C70    C     0.76543   0.38462   0.13892   0.01267  Uiso   1.00
C71    C     0.65086   0.37632   0.16576   0.01267  Uiso   1.00
C72    C     0.81655   0.43668   0.14822   0.01267  Uiso   1.00
C73    C     0.72169   0.39252   0.10290   0.01267  Uiso   1.00
C74    C     0.88134   0.33498   0.13974   0.01267  Uiso   1.00
C75    C     0.82839   0.19596   0.22826   0.01267  Uiso   1.00
C76    C     0.70486   0.19560   0.24208   0.01267  Uiso   1.00
C77    C     0.66187   0.20734   0.27812   0.01267  Uiso   1.00
C78    C     0.74742   0.21672   0.29944   0.01267  Uiso   1.00
C79    C     0.87416   0.21824   0.28604   0.01267  Uiso   1.00
C80    C     0.91255   0.20768   0.25022   0.01267  Uiso   1.00
C81    C     0.69585   0.23246   0.33864   0.01267  Uiso   1.00
C82    C     0.01197   0.03186   0.12360   0.01267  Uiso   1.00
C83    C     0.95196   0.98798   0.11990   0.01267  Uiso   1.00
C84    C     0.01856   0.93510   0.11258   0.01267  Uiso   1.00
C85    C     0.15176   0.92362   0.11046   0.01267  Uiso   1.00
C86    C     0.21458   0.96682   0.11502   0.01267  Uiso   1.00
C87    C     0.14029   0.02104   0.12178   0.01267  Uiso   1.00
C88    C     0.23290   0.86424   0.10196   0.01267  Uiso   1.00
C89    C     0.82927   0.17816   0.03870   0.01267  Uiso   1.00
C90    C     0.92005   0.16874   0.00896   0.01267  Uiso   1.00
C91    C     0.87806   0.16834   0.97554   0.01267  Uiso   1.00
C92    C     0.75080   0.17566   0.97294   0.01267  Uiso   1.00
C93    C     0.65986   0.18544   0.00264   0.01267  Uiso   1.00
C94    C     0.69659   0.18674   0.03628   0.01267  Uiso   1.00
C95    C     0.70654   0.17704   0.93728   0.01267  Uiso   1.00
C96    C     0.58561   0.36340   0.22578   0.01267  Uiso   1.00
C97    C     0.46445   0.36008   0.22142   0.01267  Uiso   1.00
C98    C     0.37152   0.35466   0.24890   0.01267  Uiso   1.00
C99    C     0.40493   0.34760   0.28294   0.01267  Uiso   1.00
C100   C     0.52941   0.35098   0.28740   0.01267  Uiso   1.00
C101   C     0.61800   0.35930   0.25890   0.01267  Uiso   1.00
C102   C     0.30680   0.33878   0.31262   0.01267  Uiso   1.00
C103   C     0.74883   0.53634   0.14900   0.01267  Uiso   1.00
C104   C     0.64509   0.58238   0.14764   0.01267  Uiso   1.00
C105   C     0.66796   0.63486   0.14622   0.01267  Uiso   1.00
C106   C     0.78969   0.64470   0.14592   0.01267  Uiso   1.00
C107   C     0.89041   0.60006   0.14892   0.01267  Uiso   1.00
C108   C     0.86914   0.54304   0.15088   0.01267  Uiso   1.00
C109   C     0.82084   0.70238   0.14114   0.01267  Uiso   1.00
C110   C     0.84122   0.38182   0.04434   0.01267  Uiso   1.00
C111   C     0.94805   0.39618   0.02332   0.01267  Uiso   1.00
C112   C     0.98310   0.37268   0.98872   0.01267  Uiso   1.00
C113   C     0.91925   0.33510   0.97720   0.01267  Uiso   1.00
C114   C     0.81344   0.32474   0.99818   0.01267  Uiso   1.00
C115   C     0.77630   0.34802   0.03278   0.01267  Uiso   1.00
C116   C     0.97229   0.30548   0.94114   0.01267  Uiso   1.00
C117   C     0.96423   0.45070   0.39844   0.01267  Uiso   1.00
C118   C     0.03312   0.46336   0.34400   0.01267  Uiso   1.00
C119   C     0.96736   0.51310   0.35478   0.01267  Uiso   1.00
C120   C     0.82492   0.54612   0.41304   0.01267  Uiso   1.00
C121   C     0.80278   0.60018   0.40286   0.01267  Uiso   1.00
C122   C     0.71336   0.64160   0.42568   0.01267  Uiso   1.00
C123   C     0.65303   0.62548   0.45706   0.01267  Uiso   1.00
C124   C     0.67510   0.57140   0.46660   0.01267  Uiso   1.00
C125   C     0.76524   0.53120   0.44212   0.01267  Uiso   1.00
C126   C     0.53872   0.66478   0.51538   0.01267  Uiso   1.00
C127   C     0.51733   0.72000   0.47114   0.01267  Uiso   1.00
C128   C     0.45395   0.74726   0.50144   0.01267  Uiso   1.00
C129   C     0.31694   0.31482   0.63170   0.01267  Uiso   1.00
C130   C     0.22806   0.31502   0.66786   0.01267  Uiso   1.00
C131   C     0.37498   0.36782   0.62842   0.01267  Uiso   1.00
C132   C     0.22851   0.31430   0.60268   0.01267  Uiso   1.00
C133   C     0.42066   0.26432   0.62836   0.01267  Uiso   1.00
C134   C     0.40005   0.11538   0.63892   0.01267  Uiso   1.00
C135   C     0.27718   0.12368   0.66576   0.01267  Uiso   1.00
C136   C     0.50323   0.06332   0.64822   0.01267  Uiso   1.00
C137   C     0.36421   0.10748   0.60290   0.01267  Uiso   1.00
C138   C     0.46632   0.16502   0.63974   0.01267  Uiso   1.00
C139   C     0.27435   0.30404   0.72826   0.01267  Uiso   1.00
C140   C     0.15046   0.30440   0.74208   0.01267  Uiso   1.00
C141   C     0.11921   0.29266   0.77812   0.01267  Uiso   1.00
C142   C     0.21414   0.28328   0.79944   0.01267  Uiso   1.00
C143   C     0.34240   0.28176   0.78604   0.01267  Uiso   1.00
C144   C     0.37023   0.29232   0.75022   0.01267  Uiso   1.00
C145   C     0.17831   0.26754   0.83864   0.01267  Uiso   1.00
C146   C     0.29383   0.46814   0.62360   0.01267  Uiso   1.00
C147   C     0.18994   0.51202   0.61990   0.01267  Uiso   1.00
C148   C     0.20366   0.56490   0.61258   0.01267  Uiso   1.00
C149   C     0.32538   0.57638   0.61046   0.01267  Uiso   1.00
C150   C     0.43140   0.53318   0.61502   0.01267  Uiso   1.00
C151   C     0.41133   0.47896   0.62178   0.01267  Uiso   1.00
C152   C     0.34714   0.63576   0.60196   0.01267  Uiso   1.00
C153   C     0.25743   0.32184   0.53870   0.01267  Uiso   1.00
C154   C     0.33879   0.33126   0.50896   0.01267  Uiso   1.00
C155   C     0.29640   0.33166   0.47554   0.01267  Uiso   1.00
C156   C     0.17646   0.32434   0.47294   0.01267  Uiso   1.00
C157   C     0.09530   0.31456   0.50264   0.01267  Uiso   1.00
C158   C     0.13333   0.31326   0.53628   0.01267  Uiso   1.00
C159   C     0.13358   0.32296   0.43728   0.01267  Uiso   1.00
C160   C     0.19901   0.13660   0.72578   0.01267  Uiso   1.00
C161   C     0.07453   0.13992   0.72142   0.01267  Uiso   1.00
C162   C     0.97618   0.14534   0.74890   0.01267  Uiso   1.00
C163   C     0.00253   0.15240   0.78294   0.01267  Uiso   1.00
C164   C     0.13039   0.14902   0.78740   0.01267  Uiso   1.00
C165   C     0.22730   0.14070   0.75890   0.01267  Uiso   1.00
C166   C     0.89558   0.16122   0.81262   0.01267  Uiso   1.00
C167   C     0.53517   0.96366   0.64900   0.01267  Uiso   1.00
C168   C     0.47747   0.91762   0.64764   0.01267  Uiso   1.00
C169   C     0.55282   0.86514   0.64622   0.01267  Uiso   1.00
C170   C     0.68439   0.85530   0.64592   0.01267  Uiso   1.00
C171   C     0.74047   0.89994   0.64892   0.01267  Uiso   1.00
C172   C     0.66218   0.95696   0.65088   0.01267  Uiso   1.00
C173   C     0.77322   0.79762   0.64114   0.01267  Uiso   1.00
C174   C     0.47304   0.11818   0.54434   0.01267  Uiso   1.00
C175   C     0.59423   0.10382   0.52332   0.01267  Uiso   1.00
C176   C     0.60578   0.12732   0.48872   0.01267  Uiso   1.00
C177   C     0.50435   0.16490   0.47720   0.01267  Uiso   1.00
C178   C     0.38818   0.17526   0.49818   0.01267  Uiso   1.00
C179   C     0.37432   0.15198   0.53278   0.01267  Uiso   1.00
C180   C     0.52777   0.19452   0.44114   0.01267  Uiso   1.00
C181   C     0.66493   0.04930   0.89844   0.01267  Uiso   1.00
C182   C     0.74648   0.03664   0.84400   0.01267  Uiso   1.00
C183   C     0.73046   0.98690   0.85478   0.01267  Uiso   1.00
C184   C     0.62104   0.95388   0.91304   0.01267  Uiso   1.00
C185   C     0.65296   0.89982   0.90286   0.01267  Uiso   1.00
C186   C     0.60496   0.85840   0.92568   0.01267  Uiso   1.00
C187   C     0.52851   0.87452   0.95706   0.01267  Uiso   1.00
C188   C     0.49650   0.92860   0.96660   0.01267  Uiso   1.00
C189   C     0.54644   0.96880   0.94212   0.01267  Uiso   1.00
C190   C     0.45350   0.83522   0.01538   0.01267  Uiso   1.00
C191   C     0.48733   0.78000   0.97114   0.01267  Uiso   1.00
C192   C     0.45121   0.75274   0.00144   0.01267  Uiso   1.00
C193   C     0.26346   0.68518   0.36830   0.01267  Uiso   1.00
C194   C     0.21094   0.68498   0.33214   0.01267  Uiso   1.00
C195   C     0.37122   0.63218   0.37158   0.01267  Uiso   1.00
C196   C     0.14549   0.68570   0.39732   0.01267  Uiso   1.00
C197   C     0.31334   0.73568   0.37164   0.01267  Uiso   1.00
C198   C     0.15435   0.88462   0.36108   0.01267  Uiso   1.00
C199   C     0.06662   0.87632   0.33424   0.01267  Uiso   1.00
C200   C     0.21477   0.93668   0.35178   0.01267  Uiso   1.00
C201   C     0.07459   0.89252   0.39710   0.01267  Uiso   1.00
C202   C     0.27108   0.83498   0.36026   0.01267  Uiso   1.00
C203   C     0.30665   0.69596   0.27174   0.01267  Uiso   1.00
C204   C     0.19694   0.69560   0.25792   0.01267  Uiso   1.00
C205   C     0.18999   0.70734   0.22188   0.01267  Uiso   1.00
C206   C     0.29686   0.71672   0.20056   0.01267  Uiso   1.00
C207   C     0.41020   0.71824   0.21396   0.01267  Uiso   1.00
C208   C     0.41277   0.70768   0.24978   0.01267  Uiso   1.00
C209   C     0.28449   0.73246   0.16136   0.01267  Uiso   1.00
C210   C     0.38557   0.53186   0.37640   0.01267  Uiso   1.00
C211   C     0.32186   0.48798   0.38010   0.01267  Uiso   1.00
C212   C     0.38114   0.43510   0.38742   0.01267  Uiso   1.00
C213   C     0.51222   0.42362   0.38954   0.01267  Uiso   1.00
C214   C     0.57960   0.46682   0.38498   0.01267  Uiso   1.00
C215   C     0.51207   0.52104   0.37822   0.01267  Uiso   1.00
C216   C     0.58486   0.36424   0.39804   0.01267  Uiso   1.00
C217   C     0.11797   0.67816   0.46130   0.01267  Uiso   1.00
C218   C     0.17901   0.66874   0.49104   0.01267  Uiso   1.00
C219   C     0.10360   0.66834   0.52446   0.01267  Uiso   1.00
C220   C     0.97374   0.67566   0.52706   0.01267  Uiso   1.00
C221   C     0.91250   0.68544   0.49736   0.01267  Uiso   1.00
C222   C     0.98287   0.68674   0.46372   0.01267  Uiso   1.00
C223   C     0.89382   0.67704   0.56272   0.01267  Uiso   1.00
C224   C     0.06139   0.86340   0.27422   0.01267  Uiso   1.00
C225   C     0.93587   0.86008   0.27858   0.01267  Uiso   1.00
C226   C     0.87042   0.85466   0.25110   0.01267  Uiso   1.00
C227   C     0.93787   0.84760   0.21706   0.01267  Uiso   1.00
C228   C     0.06681   0.85098   0.21260   0.01267  Uiso   1.00
C229   C     0.12690   0.85930   0.24110   0.01267  Uiso   1.00
C230   C     0.86942   0.83878   0.18738   0.01267  Uiso   1.00
C231   C     0.14783   0.03634   0.35100   0.01267  Uiso   1.00
C232   C     0.04273   0.08238   0.35236   0.01267  Uiso   1.00
C233   C     0.06418   0.13486   0.35378   0.01267  Uiso   1.00
C234   C     0.18561   0.14470   0.35408   0.01267  Uiso   1.00
C235   C     0.28933   0.10006   0.35108   0.01267  Uiso   1.00
C236   C     0.27002   0.04304   0.34912   0.01267  Uiso   1.00
C237   C     0.21198   0.20238   0.35886   0.01267  Uiso   1.00
C238   C     0.13556   0.88182   0.45566   0.01267  Uiso   1.00
C239   C     0.22137   0.89618   0.47668   0.01267  Uiso   1.00
C240   C     0.22182   0.87268   0.51128   0.01267  Uiso   1.00
C241   C     0.14645   0.83510   0.52280   0.01267  Uiso   1.00
C242   C     0.06162   0.82474   0.50182   0.01267  Uiso   1.00
C243   C     0.05908   0.84802   0.46722   0.01267  Uiso   1.00
C244   C     0.16343   0.80548   0.55886   0.01267  Uiso   1.00
C245   C     0.61267   0.95070   0.10156   0.01267  Uiso   1.00
C246   C     0.62712   0.96336   0.15600   0.01267  Uiso   1.00
C247   C     0.57214   0.01310   0.14522   0.01267  Uiso   1.00
C248   C     0.48796   0.04612   0.08696   0.01267  Uiso   1.00
C249   C     0.45564   0.10018   0.09714   0.01267  Uiso   1.00
C250   C     0.38904   0.14160   0.07432   0.01267  Uiso   1.00
C251   C     0.36009   0.12548   0.04294   0.01267  Uiso   1.00
C252   C     0.39170   0.07140   0.03340   0.01267  Uiso   1.00
C253   C     0.45736   0.03120   0.05788   0.01267  Uiso   1.00
C254   C     0.30410   0.16478   0.98462   0.01267  Uiso   1.00
C255   C     0.23847   0.22000   0.02886   0.01267  Uiso   1.00
C256   C     0.20539   0.24726   0.99856   0.01267  Uiso   1.00
N1     N     0.83002   0.57814   0.62902   0.01267  Uiso   1.00
N2     N     0.80828   0.49512   0.61012   0.01267  Uiso   1.00
N3     N     0.69946   0.28908   0.47180   0.01267  Uiso   1.00
N4     N     0.71779   0.33422   0.51900   0.01267  Uiso   1.00
N5     N     0.03718   0.42186   0.37098   0.01267  Uiso   1.00
N6     N     0.91352   0.50488   0.38988   0.01267  Uiso   1.00
N7     N     0.46034   0.71092   0.52820   0.01267  Uiso   1.00
N8     N     0.57101   0.66578   0.48100   0.01267  Uiso   1.00
N9     N     0.70904   0.07814   0.87098   0.01267  Uiso   1.00
N10    N     0.66840   0.99512   0.88988   0.01267  Uiso   1.00
N11    N     0.42126   0.78908   0.02820   0.01267  Uiso   1.00
N12    N     0.48679   0.83422   0.98100   0.01267  Uiso   1.00
N13    N     0.65816   0.92186   0.12902   0.01267  Uiso   1.00
N14    N     0.55340   0.00488   0.11012   0.01267  Uiso   1.00
N15    N     0.23854   0.21092   0.97180   0.01267  Uiso   1.00
N16    N     0.30201   0.16578   0.01900   0.01267  Uiso   1.00
O1     O     0.25211   0.71546   0.86832   0.01267  Uiso   1.00
O2     O     0.25998   0.81416   0.80648   0.01267  Uiso   1.00
O3     O     0.14506   0.91660   0.87008   0.01267  Uiso   1.00
O4     O     0.12969   0.82028   0.93014   0.01267  Uiso   1.00
O5     O     0.25318   0.62976   0.80068   0.01267  Uiso   1.00
O6     O     0.34623   0.51524   0.85090   0.01267  Uiso   1.00
O7     O     0.30467   0.59546   0.92220   0.01267  Uiso   1.00
O8     O     0.16140   0.76846   0.65154   0.01267  Uiso   1.00
O9     O     0.37818   0.75622   0.64222   0.01267  Uiso   1.00
O10    O     0.09885   0.17548   0.90242   0.01267  Uiso   1.00
O11    O     0.30743   0.14322   0.90092   0.01267  Uiso   1.00
O12    O     0.70111   0.82928   0.06650   0.01267  Uiso   1.00
O13    O     0.87838   0.81906   0.09098   0.01267  Uiso   1.00
O14    O     0.84281   0.65920   0.69078   0.01267  Uiso   1.00
O15    O     0.01499   0.67050   0.65672   0.01267  Uiso   1.00
O16    O     0.60311   0.25672   0.86086   0.01267  Uiso   1.00
O17    O     0.77951   0.29270   0.85988   0.01267  Uiso   1.00
O18    O     0.10427   0.71654   0.07112   0.01267  Uiso   1.00
O19    O     0.32097   0.69440   0.07006   0.01267  Uiso   1.00
O20    O     0.83589   0.28454   0.13168   0.01267  Uiso   1.00
O21    O     0.88062   0.18584   0.19352   0.01267  Uiso   1.00
O22    O     0.93174   0.08340   0.12992   0.01267  Uiso   1.00
O23    O     0.88011   0.17972   0.06986   0.01267  Uiso   1.00
O24    O     0.68362   0.37024   0.19932   0.01267  Uiso   1.00
O25    O     0.71237   0.48476   0.14910   0.01267  Uiso   1.00
O26    O     0.82233   0.40454   0.07780   0.01267  Uiso   1.00
O27    O     0.58140   0.23154   0.34846   0.01267  Uiso   1.00
O28    O     0.77662   0.24378   0.35778   0.01267  Uiso   1.00
O29    O     0.17675   0.82452   0.09758   0.01267  Uiso   1.00
O30    O     0.35157   0.85678   0.09908   0.01267  Uiso   1.00
O31    O     0.59689   0.17072   0.93350   0.01267  Uiso   1.00
O32    O     0.78842   0.18094   0.90902   0.01267  Uiso   1.00
O33    O     0.19279   0.34080   0.30922   0.01267  Uiso   1.00
O34    O     0.34221   0.32950   0.34328   0.01267  Uiso   1.00
O35    O     0.72069   0.74328   0.13914   0.01267  Uiso   1.00
O36    O     0.93209   0.70730   0.14012   0.01267  Uiso   1.00
O37    O     0.89193   0.28346   0.92888   0.01267  Uiso   1.00
O38    O     0.08543   0.30560   0.92994   0.01267  Uiso   1.00
O39    O     0.37043   0.21546   0.63168   0.01267  Uiso   1.00
O40    O     0.31646   0.31416   0.69352   0.01267  Uiso   1.00
O41    O     0.26514   0.41660   0.62992   0.01267  Uiso   1.00
O42    O     0.30983   0.32028   0.56986   0.01267  Uiso   1.00
O43    O     0.30386   0.12976   0.69932   0.01267  Uiso   1.00
O44    O     0.44713   0.01524   0.64910   0.01267  Uiso   1.00
O45    O     0.47687   0.09546   0.57780   0.01267  Uiso   1.00
O46    O     0.06294   0.26846   0.84846   0.01267  Uiso   1.00
O47    O     0.27040   0.25622   0.85778   0.01267  Uiso   1.00
O48    O     0.25127   0.67548   0.59758   0.01267  Uiso   1.00
O49    O     0.45835   0.64322   0.59908   0.01267  Uiso   1.00
O50    O     0.01761   0.32928   0.43350   0.01267  Uiso   1.00
O51    O     0.21936   0.31906   0.40902   0.01267  Uiso   1.00
O52    O     0.78359   0.15920   0.80922   0.01267  Uiso   1.00
O53    O     0.92171   0.17050   0.84328   0.01267  Uiso   1.00
O54    O     0.71397   0.75672   0.63914   0.01267  Uiso   1.00
O55    O     0.88939   0.79270   0.64012   0.01267  Uiso   1.00
O56    O     0.42539   0.21654   0.42888   0.01267  Uiso   1.00
O57    O     0.64103   0.19440   0.42994   0.01267  Uiso   1.00
O58    O     0.21757   0.78454   0.36832   0.01267  Uiso   1.00
O59    O     0.32414   0.68584   0.30648   0.01267  Uiso   1.00
O60    O     0.31166   0.58340   0.37008   0.01267  Uiso   1.00
O61    O     0.19997   0.67972   0.43014   0.01267  Uiso   1.00
O62    O     0.13294   0.87024   0.30068   0.01267  Uiso   1.00
O63    O     0.11147   0.98476   0.35090   0.01267  Uiso   1.00
O64    O     0.15013   0.90454   0.42220   0.01267  Uiso   1.00
O65    O     0.17986   0.73154   0.15154   0.01267  Uiso   1.00
O66    O     0.38440   0.74378   0.14222   0.01267  Uiso   1.00
O67    O     0.52433   0.32452   0.40242   0.01267  Uiso   1.00
O68    O     0.70065   0.35678   0.40092   0.01267  Uiso   1.00
O69    O     0.78039   0.67072   0.56650   0.01267  Uiso   1.00
O70    O     0.94744   0.68094   0.59098   0.01267  Uiso   1.00
O71    O     0.75201   0.84080   0.19078   0.01267  Uiso   1.00
O72    O     0.93549   0.82950   0.15672   0.01267  Uiso   1.00
O73    O     0.10983   0.24328   0.36086   0.01267  Uiso   1.00
O74    O     0.32221   0.20730   0.35988   0.01267  Uiso   1.00
O75    O     0.07081   0.78346   0.57112   0.01267  Uiso   1.00
O76    O     0.26537   0.80560   0.57006   0.01267  Uiso   1.00
