data_AFUKIX_clean
_audit_creation_date              2015-10-16
_audit_creation_method            'Materials Studio'
_symmetry_space_group_name_H-M    'P1'
_symmetry_Int_Tables_number       1
_symmetry_cell_setting            triclinic
loop_
_symmetry_equiv_pos_as_xyz
  x,y,z
_cell_length_a                    15.3269
_cell_length_b                    25.4411
_cell_length_c                    31.0960
_cell_angle_alpha                 73.2440
_cell_angle_beta                  80.1780
_cell_angle_gamma                 82.0930
loop_
_atom_site_label
_atom_site_type_symbol
_atom_site_fract_x
_atom_site_fract_y
_atom_site_fract_z
_atom_site_U_iso_or_equiv
_atom_site_adp_type
_atom_site_occupancy
Mn1    Mn    0.44743   0.70409   0.92530   0.01267  Uiso   1.00
Mn2    Mn    0.95635   0.16788   0.97685   0.01267  Uiso   1.00
Mn3    Mn    0.21995   0.59812   0.51412   0.01267  Uiso   1.00
Mn4    Mn    0.81238   0.11757   0.47341   0.01267  Uiso   1.00
Mn5    Mn    0.78005   0.40188   0.48588   0.01267  Uiso   1.00
Mn6    Mn    0.55257   0.29591   0.07470   0.01267  Uiso   1.00
Mn7    Mn    0.20596   0.73871   0.52177   0.01267  Uiso   1.00
Mn8    Mn    0.25430   0.77067   0.97982   0.01267  Uiso   1.00
Mn9    Mn    0.18762   0.88243   0.52659   0.01267  Uiso   1.00
Mn10   Mn    0.04365   0.83212   0.02315   0.01267  Uiso   1.00
Mn11   Mn    0.74570   0.22933   0.02018   0.01267  Uiso   1.00
Mn12   Mn    0.79404   0.26129   0.47823   0.01267  Uiso   1.00
H1     H     0.07240   0.24000   0.48760   0.01267  Uiso   1.00
H2     H     0.48730   0.81810   0.19460   0.01267  Uiso   1.00
H3     H     0.44760   0.95260   0.21110   0.01267  Uiso   1.00
H4     H     0.77880   0.54640   0.71530   0.01267  Uiso   1.00
H5     H     0.09490   0.40940   0.12230   0.01267  Uiso   1.00
H6     H     0.91940   0.35240   0.30080   0.01267  Uiso   1.00
H7     H     0.28990   0.04190   0.75200   0.01267  Uiso   1.00
H8     H     0.81970   0.70590   0.64950   0.01267  Uiso   1.00
H9     H     0.71840   0.82940   0.45130   0.01267  Uiso   1.00
H10    H     0.16610   0.90120   0.11190   0.01267  Uiso   1.00
H11    H     0.64600   0.86080   0.19790   0.01267  Uiso   1.00
H12    H     0.61120   0.46400   0.38580   0.01267  Uiso   1.00
H13    H     0.44910   0.90850   0.44370   0.01267  Uiso   1.00
H14    H     0.86520   0.01210   0.03710   0.01267  Uiso   1.00
H15    H     0.74390   0.04100   0.21460   0.01267  Uiso   1.00
H16    H     0.89840   0.76900   0.71900   0.01267  Uiso   1.00
H17    H     0.55090   0.09150   0.55630   0.01267  Uiso   1.00
H18    H     0.13480   0.98790   0.96290   0.01267  Uiso   1.00
H19    H     0.63950   0.91550   0.32270   0.01267  Uiso   1.00
H20    H     0.71790   0.90990   0.35090   0.01267  Uiso   1.00
H21    H     0.90830   0.31430   0.06590   0.01267  Uiso   1.00
H22    H     0.90880   0.01620   0.54650   0.01267  Uiso   1.00
H23    H     0.56770   0.34910   0.30020   0.01267  Uiso   1.00
H24    H     0.75460   0.11180   0.14900   0.01267  Uiso   1.00
H25    H     0.80800   0.44510   0.93770   0.01267  Uiso   1.00
H26    H     0.38960   0.18880   0.76240   0.01267  Uiso   1.00
H27    H     0.14890   0.70450   0.63360   0.01267  Uiso   1.00
H28    H     0.77080   0.85220   0.24010   0.01267  Uiso   1.00
H29    H     0.96740   0.56940   0.58620   0.01267  Uiso   1.00
H30    H     0.77270   0.96990   0.27860   0.01267  Uiso   1.00
H31    H     0.29420   0.61920   0.86450   0.01267  Uiso   1.00
H32    H     0.09120   0.98380   0.45350   0.01267  Uiso   1.00
H33    H     0.80160   0.64530   0.80290   0.01267  Uiso   1.00
H34    H     0.47060   0.05210   0.76310   0.01267  Uiso   1.00
H35    H     0.70580   0.38080   0.13550   0.01267  Uiso   1.00
H36    H     0.47240   0.40450   0.23800   0.01267  Uiso   1.00
H37    H     0.28210   0.09010   0.64910   0.01267  Uiso   1.00
H38    H     0.28160   0.17060   0.54870   0.01267  Uiso   1.00
H39    H     0.03260   0.43060   0.41380   0.01267  Uiso   1.00
H40    H     0.51270   0.18190   0.80540   0.01267  Uiso   1.00
H41    H     0.42860   0.37210   0.28640   0.01267  Uiso   1.00
H42    H     0.35440   0.89610   0.93500   0.01267  Uiso   1.00
H43    H     0.48590   0.50250   0.10950   0.01267  Uiso   1.00
H44    H     0.00410   0.95360   0.04460   0.01267  Uiso   1.00
H45    H     0.05500   0.40300   0.25770   0.01267  Uiso   1.00
H46    H     0.57620   0.91460   0.39400   0.01267  Uiso   1.00
H47    H     0.35250   0.51640   0.24290   0.01267  Uiso   1.00
H48    H     0.51390   0.42760   0.95600   0.01267  Uiso   1.00
H49    H     0.71940   0.49400   0.78370   0.01267  Uiso   1.00
H50    H     0.97650   0.80630   0.35080   0.01267  Uiso   1.00
H51    H     0.48610   0.57240   0.04400   0.01267  Uiso   1.00
H52    H     0.92050   0.21260   0.59830   0.01267  Uiso   1.00
H53    H     0.26800   0.18730   0.71350   0.01267  Uiso   1.00
H54    H     0.11190   0.14690   0.71760   0.01267  Uiso   1.00
H55    H     0.33320   0.67910   0.64500   0.01267  Uiso   1.00
H56    H     0.01480   0.48550   0.17980   0.01267  Uiso   1.00
H57    H     0.07580   0.04080   0.63360   0.01267  Uiso   1.00
H58    H     0.96000   0.82480   0.65210   0.01267  Uiso   1.00
H59    H     0.01430   0.93620   0.42220   0.01267  Uiso   1.00
H60    H     0.49710   0.03700   0.21110   0.01267  Uiso   1.00
H61    H     0.25610   0.95900   0.78540   0.01267  Uiso   1.00
H62    H     0.37880   0.81480   0.06560   0.01267  Uiso   1.00
H63    H     0.77840   0.59160   0.84150   0.01267  Uiso   1.00
H64    H     0.35400   0.13920   0.80210   0.01267  Uiso   1.00
H65    H     0.78500   0.99590   0.45660   0.01267  Uiso   1.00
H66    H     0.42380   0.08540   0.60600   0.01267  Uiso   1.00
H67    H     0.84330   0.55200   0.63900   0.01267  Uiso   1.00
H68    H     0.95220   0.95890   0.16090   0.01267  Uiso   1.00
H69    H     0.39370   0.87230   0.26670   0.01267  Uiso   1.00
H70    H     0.22730   0.03010   0.72140   0.01267  Uiso   1.00
H71    H     0.69250   0.41000   0.82430   0.01267  Uiso   1.00
H72    H     0.30750   0.59000   0.17570   0.01267  Uiso   1.00
H73    H     0.71010   0.95810   0.24800   0.01267  Uiso   1.00
H74    H     0.65200   0.59740   0.80220   0.01267  Uiso   1.00
H75    H     0.23790   0.91310   0.16670   0.01267  Uiso   1.00
H76    H     0.60630   0.12770   0.73330   0.01267  Uiso   1.00
H77    H     0.06840   0.08170   0.44890   0.01267  Uiso   1.00
H78    H     0.74980   0.68130   0.40070   0.01267  Uiso   1.00
H79    H     0.68310   0.64020   0.75610   0.01267  Uiso   1.00
H80    H     0.19840   0.35470   0.19710   0.01267  Uiso   1.00
H81    H     0.15990   0.17380   0.66860   0.01267  Uiso   1.00
H82    H     0.76330   0.76210   0.41470   0.01267  Uiso   1.00
H83    H     0.18030   0.29410   0.35050   0.01267  Uiso   1.00
H84    H     0.08060   0.64760   0.69920   0.01267  Uiso   1.00
H85    H     0.26140   0.95980   0.01310   0.01267  Uiso   1.00
H86    H     0.54150   0.17440   0.88040   0.01267  Uiso   1.00
H87    H     0.63200   0.01220   0.09600   0.01267  Uiso   1.00
H88    H     0.49140   0.50700   0.66560   0.01267  Uiso   1.00
H89    H     0.02350   0.60150   0.76740   0.01267  Uiso   1.00
H90    H     0.52940   0.94790   0.23690   0.01267  Uiso   1.00
H91    H     0.15670   0.44800   0.36100   0.01267  Uiso   1.00
H92    H     0.03830   0.57530   0.17530   0.01267  Uiso   1.00
H93    H     0.17140   0.40060   0.48260   0.01267  Uiso   1.00
H94    H     0.97650   0.39850   0.23260   0.01267  Uiso   1.00
H95    H     0.17350   0.13250   0.97130   0.01267  Uiso   1.00
H96    H     0.82860   0.59940   0.51740   0.01267  Uiso   1.00
H97    H     0.57140   0.62790   0.71360   0.01267  Uiso   1.00
H98    H     0.80900   0.41940   0.16210   0.01267  Uiso   1.00
H99    H     0.25020   0.31870   0.59930   0.01267  Uiso   1.00
H100   H     0.92870   0.64630   0.84180   0.01267  Uiso   1.00
H101   H     0.55240   0.04740   0.78890   0.01267  Uiso   1.00
H102   H     0.36050   0.08450   0.67730   0.01267  Uiso   1.00
H103   H     0.48630   0.86810   0.81930   0.01267  Uiso   1.00
H104   H     0.76210   0.08690   0.83330   0.01267  Uiso   1.00
H105   H     0.70120   0.54610   0.68830   0.01267  Uiso   1.00
H106   H     0.96170   0.42470   0.82470   0.01267  Uiso   1.00
H107   H     0.97010   0.33220   0.85540   0.01267  Uiso   1.00
H108   H     0.21500   0.00410   0.54340   0.01267  Uiso   1.00
H109   H     0.19200   0.55490   0.06230   0.01267  Uiso   1.00
H110   H     0.29880   0.45390   0.31170   0.01267  Uiso   1.00
H111   H     0.47540   0.86450   0.29310   0.01267  Uiso   1.00
H112   H     0.47230   0.08410   0.95290   0.01267  Uiso   1.00
H113   H     0.73410   0.91170   0.46160   0.01267  Uiso   1.00
H114   H     0.10160   0.23100   0.28100   0.01267  Uiso   1.00
H115   H     0.93160   0.91830   0.55110   0.01267  Uiso   1.00
H116   H     0.17510   0.64930   0.02960   0.01267  Uiso   1.00
H117   H     0.38880   0.53600   0.61420   0.01267  Uiso   1.00
H118   H     0.23670   0.23790   0.58530   0.01267  Uiso   1.00
H119   H     0.05790   0.15620   0.47370   0.01267  Uiso   1.00
H120   H     0.98610   0.65100   0.90490   0.01267  Uiso   1.00
H121   H     0.66680   0.32090   0.35500   0.01267  Uiso   1.00
H122   H     0.98520   0.51450   0.82020   0.01267  Uiso   1.00
H123   H     0.96670   0.03400   0.09680   0.01267  Uiso   1.00
H124   H     0.22920   0.14780   0.75990   0.01267  Uiso   1.00
H125   H     0.94500   0.59700   0.74230   0.01267  Uiso   1.00
H126   H     0.04000   0.17520   0.34790   0.01267  Uiso   1.00
H127   H     0.01390   0.34900   0.09510   0.01267  Uiso   1.00
H128   H     0.83720   0.68440   0.53220   0.01267  Uiso   1.00
H129   H     0.90130   0.51350   0.79760   0.01267  Uiso   1.00
H130   H     0.45850   0.82560   0.11960   0.01267  Uiso   1.00
H131   H     0.52460   0.13550   0.70690   0.01267  Uiso   1.00
H132   H     0.28060   0.50600   0.21630   0.01267  Uiso   1.00
H133   H     0.43230   0.65090   0.69980   0.01267  Uiso   1.00
H134   H     0.70410   0.34130   0.89090   0.01267  Uiso   1.00
H135   H     0.83390   0.09880   0.88810   0.01267  Uiso   1.00
H136   H     0.09870   0.48650   0.20240   0.01267  Uiso   1.00
H137   H     0.04780   0.04110   0.83910   0.01267  Uiso   1.00
H138   H     0.51370   0.13190   0.18070   0.01267  Uiso   1.00
H139   H     0.24540   0.88820   0.85100   0.01267  Uiso   1.00
H140   H     0.82490   0.35070   0.97040   0.01267  Uiso   1.00
H141   H     0.90510   0.59060   0.87770   0.01267  Uiso   1.00
H142   H     0.66950   0.89280   0.06340   0.01267  Uiso   1.00
H143   H     0.94210   0.84380   0.52630   0.01267  Uiso   1.00
H144   H     0.62120   0.18520   0.93440   0.01267  Uiso   1.00
H145   H     0.82650   0.86750   0.02870   0.01267  Uiso   1.00
H146   H     0.52770   0.91590   0.04710   0.01267  Uiso   1.00
H147   H     0.41090   0.24470   0.59870   0.01267  Uiso   1.00
H148   H     0.29590   0.65870   0.10910   0.01267  Uiso   1.00
H149   H     0.05730   0.27730   0.40140   0.01267  Uiso   1.00
H150   H     0.40470   0.93680   0.02750   0.01267  Uiso   1.00
H151   H     0.73200   0.81270   0.28650   0.01267  Uiso   1.00
H152   H     0.59530   0.06320   0.97250   0.01267  Uiso   1.00
H153   H     0.64560   0.10390   0.06500   0.01267  Uiso   1.00
H154   H     0.07130   0.35370   0.15820   0.01267  Uiso   1.00
H155   H     0.02350   0.19370   0.64920   0.01267  Uiso   1.00
H156   H     0.51410   0.49750   0.89050   0.01267  Uiso   1.00
H157   H     0.53890   0.25020   0.54920   0.01267  Uiso   1.00
H158   H     0.22120   0.45360   0.28470   0.01267  Uiso   1.00
H159   H     0.47780   0.12960   0.84200   0.01267  Uiso   1.00
H160   H     0.33050   0.10720   0.93660   0.01267  Uiso   1.00
H161   H     0.85110   0.29550   0.36640   0.01267  Uiso   1.00
H162   H     0.61040   0.81120   0.23760   0.01267  Uiso   1.00
H163   H     0.64750   0.48360   0.75710   0.01267  Uiso   1.00
H164   H     0.07950   0.78740   0.40170   0.01267  Uiso   1.00
H165   H     0.46110   0.74980   0.45080   0.01267  Uiso   1.00
H166   H     0.50860   0.49300   0.33440   0.01267  Uiso   1.00
H167   H     0.94270   0.72270   0.59860   0.01267  Uiso   1.00
H168   H     0.98570   0.06380   0.57780   0.01267  Uiso   1.00
H169   H     0.02990   0.66780   0.14460   0.01267  Uiso   1.00
H170   H     0.88810   0.85310   0.28240   0.01267  Uiso   1.00
H171   H     0.52760   0.59550   0.76200   0.01267  Uiso   1.00
H172   H     0.19100   0.58060   0.83790   0.01267  Uiso   1.00
H173   H     0.16280   0.31560   0.46780   0.01267  Uiso   1.00
H174   H     0.34800   0.40260   0.19780   0.01267  Uiso   1.00
H175   H     0.50290   0.96300   0.78890   0.01267  Uiso   1.00
H176   H     0.99590   0.04640   0.95540   0.01267  Uiso   1.00
H177   H     0.22160   0.40840   0.15850   0.01267  Uiso   1.00
H178   H     0.09170   0.68570   0.93410   0.01267  Uiso   1.00
H179   H     0.73860   0.04020   0.98690   0.01267  Uiso   1.00
H180   H     0.58910   0.75530   0.40130   0.01267  Uiso   1.00
H181   H     0.52220   0.87040   0.15800   0.01267  Uiso   1.00
H182   H     0.26590   0.08830   0.53840   0.01267  Uiso   1.00
H183   H     0.31690   0.35980   0.24390   0.01267  Uiso   1.00
H184   H     0.36800   0.98780   0.90400   0.01267  Uiso   1.00
H185   H     0.92760   0.76000   0.51240   0.01267  Uiso   1.00
H186   H     0.84010   0.82620   0.33140   0.01267  Uiso   1.00
H187   H     0.03330   0.96600   0.90320   0.01267  Uiso   1.00
H188   H     0.92420   0.95920   0.36640   0.01267  Uiso   1.00
C1     C     0.31130   0.39840   0.22710   0.01267  Uiso   1.00
C2     C     0.98540   0.83270   0.36461   0.01267  Uiso   1.00
C3     C     0.43590   0.98530   0.84320   0.01267  Uiso   1.00
C4     C     0.42610   0.62850   0.68190   0.01267  Uiso   1.00
C5     C     0.18040   0.01081   0.52023   0.01267  Uiso   1.00
C6     C     0.26680   0.89360   0.14650   0.01267  Uiso   1.00
C7     C     0.33900   0.49320   0.22550   0.01267  Uiso   1.00
C8     C     0.78670   0.03790   0.19020   0.01267  Uiso   1.00
C9     C     0.27810   0.03880   0.97700   0.01267  Uiso   1.00
C10    C     0.58020   0.18880   0.10290   0.01267  Uiso   1.00
C11    C     0.88810   0.33470   0.08670   0.01267  Uiso   1.00
C12    C     0.45560   0.00870   0.99420   0.01267  Uiso   1.00
C13    C     0.88710   0.79030   0.50330   0.01267  Uiso   1.00
C14    C     0.89670   0.84090   0.51100   0.01267  Uiso   1.00
C15    C     0.60010   0.15940   0.88190   0.01267  Uiso   1.00
C16    C     0.91520   0.27070   0.93822   0.01267  Uiso   1.00
C17    C     0.17940   0.31560   0.49520   0.01267  Uiso   1.00
C18    C     0.35840   0.79657   0.35087   0.01267  Uiso   1.00
C19    C     0.24310   0.11300   0.70700   0.01267  Uiso   1.00
C20    C     0.27910   0.67410   0.44470   0.01267  Uiso   1.00
C21    C     0.93400   0.41000   0.85400   0.01267  Uiso   1.00
C22    C     0.10330   0.15910   0.48900   0.01267  Uiso   1.00
C23    C     0.87410   0.97540   0.03650   0.01267  Uiso   1.00
C24    C     0.38910   0.97230   0.01020   0.01267  Uiso   1.00
C25    C     0.85270   0.36550   0.94110   0.01267  Uiso   1.00
C26    C     0.64840   0.16530   0.91410   0.01267  Uiso   1.00
C27    C     0.04900   0.05690   0.95940   0.01267  Uiso   1.00
C28    C     0.17000   0.60330   0.85680   0.01267  Uiso   1.00
C29    C     0.11190   0.66530   0.91330   0.01267  Uiso   1.00
C30    C     0.35480   0.87080   0.14880   0.01267  Uiso   1.00
C31    C     0.41550   0.77290   0.32031   0.01267  Uiso   1.00
C32    C     0.72300   0.56570   0.70620   0.01267  Uiso   1.00
C33    C     0.94300   0.14160   0.58151   0.01267  Uiso   1.00
C34    C     0.72160   0.52013   0.42534   0.01267  Uiso   1.00
C35    C     0.23560   0.05500   0.73850   0.01267  Uiso   1.00
C36    C     0.22720   0.11880   0.52710   0.01267  Uiso   1.00
C37    C     0.08480   0.72930   0.06178   0.01267  Uiso   1.00
C38    C     0.38690   0.62380   0.07020   0.01267  Uiso   1.00
C39    C     0.09520   0.41250   0.18850   0.01267  Uiso   1.00
C40    C     0.11290   0.20970   0.49670   0.01267  Uiso   1.00
C41    C     0.49100   0.06250   0.78716   0.01267  Uiso   1.00
C42    C     0.61090   0.02770   0.98980   0.01267  Uiso   1.00
C43    C     0.73950   0.31480   0.08060   0.01267  Uiso   1.00
C44    C     0.33570   0.70626   0.40091   0.01267  Uiso   1.00
C45    C     0.47490   0.57600   0.68630   0.01267  Uiso   1.00
C46    C     0.72090   0.32590   0.55530   0.01267  Uiso   1.00
C47    C     0.92350   0.68760   0.60730   0.01267  Uiso   1.00
C48    C     0.56410   0.01470   0.15680   0.01267  Uiso   1.00
C49    C     0.76390   0.83160   0.46690   0.01267  Uiso   1.00
C50    C     0.39280   0.68259   0.37030   0.01267  Uiso   1.00
C51    C     0.88970   0.15598   0.54385   0.01267  Uiso   1.00
C52    C     0.81070   0.60540   0.81146   0.01267  Uiso   1.00
C53    C     0.06600   0.59000   0.14600   0.01267  Uiso   1.00
C54    C     0.79550   0.08090   0.15130   0.01267  Uiso   1.00
C55    C     0.69730   0.01420   0.99790   0.01267  Uiso   1.00
C56    C     0.66430   0.37230   0.89100   0.01267  Uiso   1.00
C57    C     0.51520   0.21640   0.56080   0.01267  Uiso   1.00
C58    C     0.54440   0.99130   0.00580   0.01267  Uiso   1.00
C59    C     0.15130   0.32190   0.36300   0.01267  Uiso   1.00
C60    C     0.47670   0.87740   0.43530   0.01267  Uiso   1.00
C61    C     0.26780   0.85670   0.08300   0.01267  Uiso   1.00
C62    C     0.93780   0.60640   0.84820   0.01267  Uiso   1.00
C63    C     0.78330   0.15240   0.95300   0.01267  Uiso   1.00
C64    C     0.13700   0.41290   0.36960   0.01267  Uiso   1.00
C65    C     0.81130   0.63260   0.49730   0.01267  Uiso   1.00
C66    C     0.44890   0.53480   0.10930   0.01267  Uiso   1.00
C67    C     0.35160   0.83470   0.08590   0.01267  Uiso   1.00
C68    C     0.15770   0.00940   0.80790   0.01267  Uiso   1.00
C69    C     0.15680   0.57780   0.07820   0.01267  Uiso   1.00
C70    C     0.72190   0.96120   0.02300   0.01267  Uiso   1.00
C71    C     0.77280   0.88120   0.47290   0.01267  Uiso   1.00
C72    C     0.98340   0.70150   0.71420   0.01267  Uiso   1.00
C73    C     0.55110   0.46520   0.89070   0.01267  Uiso   1.00
C74    C     0.64520   0.12920   0.85120   0.01267  Uiso   1.00
C75    C     0.68150   0.23680   0.60884   0.01267  Uiso   1.00
C76    C     0.95420   0.17860   0.60405   0.01267  Uiso   1.00
C77    C     0.01460   0.16730   0.63539   0.01267  Uiso   1.00
C78    C     0.13340   0.87290   0.92790   0.01267  Uiso   1.00
C79    C     0.66430   0.29374   0.59909   0.01267  Uiso   1.00
C80    C     0.76560   0.68170   0.42820   0.01267  Uiso   1.00
C81    C     0.90190   0.28230   0.35023   0.01267  Uiso   1.00
C82    C     0.07800   0.47440   0.17934   0.01267  Uiso   1.00
C83    C     0.94330   0.31600   0.31070   0.01267  Uiso   1.00
C84    C     0.82060   0.68440   0.50480   0.01267  Uiso   1.00
C85    C     0.94010   0.88400   0.35517   0.01267  Uiso   1.00
C86    C     0.84320   0.42220   0.92180   0.01267  Uiso   1.00
C87    C     0.27700   0.43430   0.29380   0.01267  Uiso   1.00
C88    C     0.52330   0.12260   0.56470   0.01267  Uiso   1.00
C89    C     0.11260   0.00030   0.47220   0.01267  Uiso   1.00
C90    C     0.88650   0.44450   0.87860   0.01267  Uiso   1.00
C91    C     0.75690   0.88700   0.29300   0.01267  Uiso   1.00
C92    C     0.30200   0.63310   0.58430   0.01267  Uiso   1.00
C93    C     0.58450   0.22710   0.67969   0.01267  Uiso   1.00
C94    C     0.51560   0.87620   0.22280   0.01267  Uiso   1.00
C95    C     0.92070   0.38720   0.13240   0.01267  Uiso   1.00
C96    C     0.56060   0.78660   0.40910   0.01267  Uiso   1.00
C97    C     0.18930   0.39460   0.18854   0.01267  Uiso   1.00
C98    C     0.05990   0.11600   0.64483   0.01267  Uiso   1.00
C99    C     0.84870   0.67810   0.63700   0.01267  Uiso   1.00
C100   C     0.01660   0.29850   0.28580   0.01267  Uiso   1.00
C101   C     0.84710   0.86050   0.30780   0.01267  Uiso   1.00
C102   C     0.95100   0.94310   0.04060   0.01267  Uiso   1.00
C103   C     0.88740   0.99970   0.52780   0.01267  Uiso   1.00
C104   C     0.81960   0.98919   0.47977   0.01267  Uiso   1.00
C105   C     0.65820   0.56650   0.74680   0.01267  Uiso   1.00
C106   C     0.08910   0.01040   0.84150   0.01267  Uiso   1.00
C107   C     0.96060   0.61126   0.76540   0.01267  Uiso   1.00
C108   C     0.44730   0.11930   0.59510   0.01267  Uiso   1.00
C109   C     0.51590   0.14200   0.81345   0.01267  Uiso   1.00
C110   C     0.94700   0.75580   0.70140   0.01267  Uiso   1.00
C111   C     0.02690   0.35270   0.41090   0.01267  Uiso   1.00
C112   C     0.48410   0.85800   0.18655   0.01267  Uiso   1.00
C113   C     0.12590   0.02460   0.96350   0.01267  Uiso   1.00
C114   C     0.03940   0.38874   0.23460   0.01267  Uiso   1.00
C115   C     0.43010   0.05910   0.96610   0.01267  Uiso   1.00
C116   C     0.23440   0.31830   0.57180   0.01267  Uiso   1.00
C117   C     0.04720   0.07620   0.62510   0.01267  Uiso   1.00
C118   C     0.93920   0.59660   0.59960   0.01267  Uiso   1.00
C119   C     0.39990   0.84060   0.11810   0.01267  Uiso   1.00
C120   C     0.35780   0.82350   0.48450   0.01267  Uiso   1.00
C121   C     0.64160   0.20343   0.64913   0.01267  Uiso   1.00
C122   C     0.83000   0.39670   0.14320   0.01267  Uiso   1.00
C123   C     0.37400   0.66880   0.02630   0.01267  Uiso   1.00
C124   C     0.64220   0.17650   0.51550   0.01267  Uiso   1.00
C125   C     0.47240   0.94990   0.81780   0.01267  Uiso   1.00
C126   C     0.41950   0.87300   0.87990   0.01267  Uiso   1.00
C127   C     0.15290   0.13950   0.69220   0.01267  Uiso   1.00
C128   C     0.04690   0.64390   0.89650   0.01267  Uiso   1.00
C129   C     0.18580   0.37290   0.35090   0.01267  Uiso   1.00
C130   C     0.65560   0.92650   0.04310   0.01267  Uiso   1.00
C131   C     0.05500   0.65620   0.55890   0.01267  Uiso   1.00
C132   C     0.07650   0.31240   0.39270   0.01267  Uiso   1.00
C133   C     0.23350   0.62610   0.87300   0.01267  Uiso   1.00
C134   C     0.52760   0.05010   0.18220   0.01267  Uiso   1.00
C135   C     0.81420   0.62710   0.64910   0.01267  Uiso   1.00
C136   C     0.72620   0.57732   0.41884   0.01267  Uiso   1.00
C137   C     0.43270   0.71590   0.33000   0.01267  Uiso   1.00
C138   C     0.63330   0.35480   0.35150   0.01267  Uiso   1.00
C139   C     0.89810   0.94510   0.53170   0.01267  Uiso   1.00
C140   C     0.77660   0.72920   0.43620   0.01267  Uiso   1.00
C141   C     0.27380   0.42268   0.58116   0.01267  Uiso   1.00
C142   C     0.48440   0.12380   0.77720   0.01267  Uiso   1.00
C143   C     0.99160   0.08970   0.59278   0.01267  Uiso   1.00
C144   C     0.36670   0.64520   0.64850   0.01267  Uiso   1.00
C145   C     0.64230   0.38720   0.37860   0.01267  Uiso   1.00
C146   C     0.41980   0.81120   0.89710   0.01267  Uiso   1.00
C147   C     0.56730   0.28410   0.67000   0.01267  Uiso   1.00
C148   C     0.86660   0.12710   0.07210   0.01267  Uiso   1.00
C149   C     0.09710   0.66880   0.08280   0.01267  Uiso   1.00
C150   C     0.35770   0.61280   0.62140   0.01267  Uiso   1.00
C151   C     0.73320   0.10640   0.85350   0.01267  Uiso   1.00
C152   C     0.56750   0.59180   0.73500   0.01267  Uiso   1.00
C153   C     0.91970   0.03510   0.11990   0.01267  Uiso   1.00
C154   C     0.13890   0.91980   0.88400   0.01267  Uiso   1.00
C155   C     0.60910   0.85100   0.22710   0.01267  Uiso   1.00
C156   C     0.86110   0.08020   0.11600   0.01267  Uiso   1.00
C157   C     0.95310   0.35610   0.10350   0.01267  Uiso   1.00
C158   C     0.79010   0.53003   0.48241   0.01267  Uiso   1.00
C159   C     0.77540   0.11370   0.88610   0.01267  Uiso   1.00
C160   C     0.60760   0.03660   0.11320   0.01267  Uiso   1.00
C161   C     0.85260   0.89680   0.03200   0.01267  Uiso   1.00
C162   C     0.80680   0.73140   0.47490   0.01267  Uiso   1.00
C163   C     0.55870   0.17240   0.54680   0.01267  Uiso   1.00
C164   C     0.22460   0.88630   0.11390   0.01267  Uiso   1.00
C165   C     0.26930   0.14940   0.73190   0.01267  Uiso   1.00
C166   C     0.22340   0.27080   0.56380   0.01267  Uiso   1.00
C167   C     0.21670   0.84760   0.04700   0.01267  Uiso   1.00
C168   C     0.61640   0.09110   0.09430   0.01267  Uiso   1.00
C169   C     0.60720   0.31741   0.62970   0.01267  Uiso   1.00
C170   C     0.34440   0.07350   0.95690   0.01267  Uiso   1.00
C171   C     0.06220   0.39360   0.15180   0.01267  Uiso   1.00
C172   C     0.55270   0.88070   0.40490   0.01267  Uiso   1.00
C173   C     0.69220   0.89250   0.33270   0.01267  Uiso   1.00
C174   C     0.31850   0.76320   0.39116   0.01267  Uiso   1.00
C175   C     0.33570   0.62770   0.10900   0.01267  Uiso   1.00
C176   C     0.81620   0.78580   0.48180   0.01267  Uiso   1.00
C177   C     0.46090   0.54190   0.66150   0.01267  Uiso   1.00
C178   C     0.22180   0.36630   0.53830   0.01267  Uiso   1.00
C179   C     0.06080   0.40340   0.40040   0.01267  Uiso   1.00
C180   C     0.18380   0.21420   0.51820   0.01267  Uiso   1.00
C181   C     0.20450   0.91910   0.84870   0.01267  Uiso   1.00
C182   C     0.56990   0.94090   0.03390   0.01267  Uiso   1.00
C183   C     0.06160   0.77180   0.63490   0.01267  Uiso   1.00
C184   C     0.86300   0.58710   0.63040   0.01267  Uiso   1.00
C185   C     0.89770   0.19025   0.40810   0.01267  Uiso   1.00
C186   C     0.30780   0.10750   0.66730   0.01267  Uiso   1.00
C187   C     0.90480   0.58750   0.81150   0.01267  Uiso   1.00
C188   C     0.20230   0.65760   0.90060   0.01267  Uiso   1.00
C189   C     0.05700   0.85840   0.41849   0.01267  Uiso   1.00
C190   C     0.48480   0.78360   0.43920   0.01267  Uiso   1.00
C191   C     0.26050   0.68520   0.91940   0.01267  Uiso   1.00
C192   C     0.93840   0.22820   0.36510   0.01267  Uiso   1.00
C193   C     0.97310   0.64730   0.58910   0.01267  Uiso   1.00
C194   C     0.57390   0.37150   0.31810   0.01267  Uiso   1.00
C195   C     0.05990   0.64490   0.12730   0.01267  Uiso   1.00
C196   C     0.95280   0.92380   0.37490   0.01267  Uiso   1.00
C197   C     0.23610   0.16840   0.53310   0.01267  Uiso   1.00
C198   C     0.68870   0.60160   0.77290   0.01267  Uiso   1.00
C199   C     0.39090   0.14900   0.77290   0.01267  Uiso   1.00
C200   C     0.18870   0.36740   0.50270   0.01267  Uiso   1.00
C201   C     0.04580   0.82140   0.39595   0.01267  Uiso   1.00
C202   C     0.16160   0.11370   0.50451   0.01267  Uiso   1.00
C203   C     0.58050   0.12700   0.12010   0.01267  Uiso   1.00
C204   C     0.98550   0.78880   0.66190   0.01267  Uiso   1.00
C205   C     0.94010   0.35510   0.87270   0.01267  Uiso   1.00
C206   C     0.44820   0.57550   0.07010   0.01267  Uiso   1.00
C207   C     0.73070   0.85060   0.26810   0.01267  Uiso   1.00
C208   C     0.30270   0.98580   0.00210   0.01267  Uiso   1.00
C209   C     0.43250   0.40820   0.26500   0.01267  Uiso   1.00
C210   C     0.53910   0.45810   0.33850   0.01267  Uiso   1.00
C211   C     0.94500   0.34380   0.44110   0.01267  Uiso   1.00
C212   C     0.61310   0.37620   0.92980   0.01267  Uiso   1.00
C213   C     0.08030   0.96490   0.88010   0.01267  Uiso   1.00
C214   C     0.20990   0.46997   0.51759   0.01267  Uiso   1.00
C215   C     0.55180   0.42450   0.92990   0.01267  Uiso   1.00
C216   C     0.11030   0.84402   0.45615   0.01267  Uiso   1.00
C217   C     0.73220   0.14330   0.91700   0.01267  Uiso   1.00
C218   C     0.90290   0.33120   0.91720   0.01267  Uiso   1.00
C219   C     0.54620   0.14500   0.73100   0.01267  Uiso   1.00
C220   C     0.83840   0.88630   0.49549   0.01267  Uiso   1.00
C221   C     0.92200   0.52560   0.82066   0.01267  Uiso   1.00
C222   C     0.07930   0.61280   0.86760   0.01267  Uiso   1.00
C223   C     0.77820   0.63370   0.46170   0.01267  Uiso   1.00
C224   C     0.43940   0.21340   0.59090   0.01267  Uiso   1.00
C225   C     0.21330   0.96210   0.80980   0.01267  Uiso   1.00
C226   C     0.19320   0.26860   0.52510   0.01267  Uiso   1.00
C227   C     0.60360   0.46070   0.85090   0.01267  Uiso   1.00
C228   C     0.05670   0.68400   0.68930   0.01267  Uiso   1.00
C229   C     0.46300   0.89260   0.83650   0.01267  Uiso   1.00
C230   C     0.79770   0.34240   0.09940   0.01267  Uiso   1.00
C231   C     0.39240   0.96340   0.88680   0.01267  Uiso   1.00
C232   C     0.14730   0.63450   0.05890   0.01267  Uiso   1.00
C233   C     0.01450   0.21120   0.33810   0.01267  Uiso   1.00
C234   C     0.00840   0.91030   0.40722   0.01267  Uiso   1.00
C235   C     0.40400   0.16140   0.61020   0.01267  Uiso   1.00
C236   C     0.14740   0.10320   0.96800   0.01267  Uiso   1.00
C237   C     0.84230   0.99060   0.19210   0.01267  Uiso   1.00
C238   C     0.05300   0.24420   0.29860   0.01267  Uiso   1.00
C239   C     0.39640   0.53930   0.14910   0.01267  Uiso   1.00
C240   C     0.27840   0.47987   0.57466   0.01267  Uiso   1.00
C241   C     0.10190   0.05490   0.46830   0.01267  Uiso   1.00
C242   C     0.34160   0.58590   0.14890   0.01267  Uiso   1.00
C243   C     0.34180   0.43350   0.25320   0.01267  Uiso   1.00
C244   C     0.40040   0.55990   0.62980   0.01267  Uiso   1.00
C245   C     0.50900   0.93750   0.21284   0.01267  Uiso   1.00
C246   C     0.59600   0.83860   0.38980   0.01267  Uiso   1.00
C247   C     0.38360   0.90890   0.90570   0.01267  Uiso   1.00
C248   C     0.62600   0.33120   0.97370   0.01267  Uiso   1.00
C249   C     0.11350   0.55550   0.12140   0.01267  Uiso   1.00
C250   C     0.66100   0.50680   0.77450   0.01267  Uiso   1.00
C251   C     0.10230   0.80975   0.59190   0.01267  Uiso   1.00
C252   C     0.52510   0.42400   0.31370   0.01267  Uiso   1.00
C253   C     0.53700   0.10740   0.16350   0.01267  Uiso   1.00
C254   C     0.76440   0.94500   0.26150   0.01267  Uiso   1.00
C255   C     0.91090   0.98960   0.15850   0.01267  Uiso   1.00
C256   C     0.59960   0.44010   0.37020   0.01267  Uiso   1.00
C257   C     0.44130   0.82760   0.45320   0.01267  Uiso   1.00
C258   C     0.65840   0.41410   0.85110   0.01267  Uiso   1.00
C259   C     0.69800   0.36690   0.41570   0.01267  Uiso   1.00
C260   C     0.76650   0.37390   0.12700   0.01267  Uiso   1.00
C261   C     0.09810   0.71770   0.64977   0.01267  Uiso   1.00
C262   C     0.45380   0.85500   0.26900   0.01267  Uiso   1.00
N1     N     0.76850   0.58344   0.45411   0.01267  Uiso   1.00
N2     N     0.85120   0.93731   0.50236   0.01267  Uiso   1.00
N3     N     0.93830   0.89314   0.03802   0.01267  Uiso   1.00
N4     N     0.15800   0.97257   0.50662   0.01267  Uiso   1.00
N5     N     0.23150   0.41656   0.54589   0.01267  Uiso   1.00
N6     N     0.84200   0.02743   0.49338   0.01267  Uiso   1.00
N7     N     0.23890   0.50910   0.53537   0.01267  Uiso   1.00
N8     N     0.76110   0.49090   0.46463   0.01267  Uiso   1.00
N9     N     0.80960   0.94469   0.03110   0.01267  Uiso   1.00
N10    N     0.19040   0.05531   0.96890   0.01267  Uiso   1.00
N11    N     0.14880   0.06269   0.49764   0.01267  Uiso   1.00
N12    N     0.06170   0.10686   0.96198   0.01267  Uiso   1.00
O1     O     0.16120   0.05588   0.77356   0.01267  Uiso   1.00
O2     O     0.75200   0.31264   0.52615   0.01267  Uiso   1.00
O3     O     0.34280   0.67931   0.90161   0.01267  Uiso   1.00
O4     O     0.32520   0.70953   0.02772   0.01267  Uiso   1.00
O5     O     0.87960   0.90110   0.32505   0.01267  Uiso   1.00
O6     O     0.06890   0.86055   0.58083   0.01267  Uiso   1.00
O7     O     0.88200   0.11979   0.52554   0.01267  Uiso   1.00
O8     O     0.73770   0.17269   0.98137   0.01267  Uiso   1.00
O9     O     0.22100   0.41610   0.22104   0.01267  Uiso   1.00
O10    O     0.68670   0.13195   0.50722   0.01267  Uiso   1.00
O11    O     0.26230   0.37902   0.32091   0.01267  Uiso   1.00
O12    O     0.39510   0.88044   0.18163   0.01267  Uiso   1.00
O13    O     0.83160   0.20656   0.43173   0.01267  Uiso   1.00
O14    O     0.72970   0.31876   0.42476   0.01267  Uiso   1.00
O15    O     0.77110   0.28815   0.05324   0.01267  Uiso   1.00
O16    O     0.77900   0.58390   0.77896   0.01267  Uiso   1.00
O17    O     0.26230   0.82731   0.01863   0.01267  Uiso   1.00
O18    O     0.12040   0.09890   0.67495   0.01267  Uiso   1.00
O19    O     0.33130   0.16074   0.64098   0.01267  Uiso   1.00
O20    O     0.14720   0.79491   0.46714   0.01267  Uiso   1.00
O21    O     0.27030   0.68124   0.57524   0.01267  Uiso   1.00
O22    O     0.05990   0.32882   0.24554   0.01267  Uiso   1.00
O23    O     0.70850   0.40076   0.43573   0.01267  Uiso   1.00
O24    O     0.29150   0.59924   0.56427   0.01267  Uiso   1.00
O25    O     0.53640   0.55447   0.71528   0.01267  Uiso   1.00
O26    O     0.67240   0.22346   0.49835   0.01267  Uiso   1.00
O27    O     0.07380   0.87950   0.95874   0.01267  Uiso   1.00
O28    O     0.13530   0.86282   0.05047   0.01267  Uiso   1.00
O29    O     0.54380   0.21873   0.12786   0.01267  Uiso   1.00
O30    O     0.91750   0.29667   0.45300   0.01267  Uiso   1.00
O31    O     0.61750   0.20896   0.06265   0.01267  Uiso   1.00
O32    O     0.09970   0.61462   0.54613   0.01267  Uiso   1.00
O33    O     0.92620   0.12050   0.04126   0.01267  Uiso   1.00
O34    O     0.32760   0.77654   0.50165   0.01267  Uiso   1.00
O35    O     0.30970   0.61820   0.45260   0.01267  Uiso   1.00
O36    O     0.96780   0.24229   0.91750   0.01267  Uiso   1.00
O37    O     0.35800   0.12857   0.74123   0.01267  Uiso   1.00
O38    O     0.54580   0.20139   0.72132   0.01267  Uiso   1.00
O39    O     0.12450   0.49846   0.13601   0.01267  Uiso   1.00
O40    O     0.67480   0.29047   0.97228   0.01267  Uiso   1.00
O41    O     0.85280   0.20509   0.53286   0.01267  Uiso   1.00
O42    O     0.87550   0.50154   0.86399   0.01267  Uiso   1.00
O43    O     0.38250   0.79104   0.93735   0.01267  Uiso   1.00
O44    O     0.45620   0.78127   0.87214   0.01267  Uiso   1.00
O45    O     0.46360   0.44553   0.28472   0.01267  Uiso   1.00
O46    O     0.93110   0.13945   0.41917   0.01267  Uiso   1.00
O47    O     0.02980   0.58861   0.84808   0.01267  Uiso   1.00
O48    O     0.94010   0.67118   0.75446   0.01267  Uiso   1.00
O49    O     0.11800   0.88021   0.47446   0.01267  Uiso   1.00
O50    O     0.69030   0.38180   0.54740   0.01267  Uiso   1.00
O51    O     0.66870   0.83926   0.35902   0.01267  Uiso   1.00
O52    O     0.86470   0.13718   0.94953   0.01267  Uiso   1.00
O53    O     0.65720   0.32069   0.09839   0.01267  Uiso   1.00
O54    O     0.64200   0.87143   0.25877   0.01267  Uiso   1.00
O55    O     0.56220   0.95879   0.17112   0.01267  Uiso   1.00
O56    O     0.45420   0.79861   0.27868   0.01267  Uiso   1.00
O57    O     0.40500   0.49456   0.18675   0.01267  Uiso   1.00
O58    O     0.57390   0.34333   0.00917   0.01267  Uiso   1.00
O59    O     0.12550   0.75049   0.02270   0.01267  Uiso   1.00
O60    O     0.03220   0.75771   0.08250   0.01267  Uiso   1.00
O61    O     0.73770   0.62098   0.67909   0.01267  Uiso   1.00
O62    O     0.90030   0.38538   0.45387   0.01267  Uiso   1.00
O63    O     0.60490   0.11956   0.81837   0.01267  Uiso   1.00
O64    O     0.16840   0.79344   0.56827   0.01267  Uiso   1.00
O65    O     0.87450   0.24951   0.97730   0.01267  Uiso   1.00
O66    O     0.19240   0.83331   0.92863   0.01267  Uiso   1.00
O67    O     0.08250   0.70333   0.54700   0.01267  Uiso   1.00
O68    O     0.83880   0.94412   0.22644   0.01267  Uiso   1.00
O69    O     0.80760   0.16669   0.07137   0.01267  Uiso   1.00
O70    O     0.24800   0.68736   0.47385   0.01267  Uiso   1.00
O71    O     0.97020   0.41139   0.15192   0.01267  Uiso   1.00
O72    O     0.31330   0.86805   0.49278   0.01267  Uiso   1.00
O73    O     0.59500   0.50544   0.81325   0.01267  Uiso   1.00
O74    O     0.22890   0.71185   0.94676   0.01267  Uiso   1.00
O75    O     0.43780   0.04121   0.82888   0.01267  Uiso   1.00
O76    O     0.42610   0.65667   0.99083   0.01267  Uiso   1.00
