data_AFUPEX_clean
_audit_creation_date              2014-07-02
_audit_creation_method            'Materials Studio'
_symmetry_space_group_name_H-M    'P1'
_symmetry_Int_Tables_number       1
_symmetry_cell_setting            triclinic
loop_
_symmetry_equiv_pos_as_xyz
  x,y,z
_cell_length_a                    10.8010
_cell_length_b                    10.9060
_cell_length_c                    15.5500
_cell_angle_alpha                 90.0000
_cell_angle_beta                  90.0000
_cell_angle_gamma                 100.4010
loop_
_atom_site_label
_atom_site_type_symbol
_atom_site_fract_x
_atom_site_fract_y
_atom_site_fract_z
_atom_site_U_iso_or_equiv
_atom_site_adp_type
_atom_site_occupancy
Tm1    Tm    0.35641   0.60211   0.89792   0.01267  Uiso   1.00
Tm2    Tm    0.14359   0.89789   0.39792   0.01267  Uiso   1.00
Tm3    Tm    0.64359   0.39789   0.10208   0.01267  Uiso   1.00
Tm4    Tm    0.85641   0.10211   0.60208   0.01267  Uiso   1.00
H1     H     0.31860   0.22260   0.18560   0.01267  Uiso   1.00
H2     H     0.94810   0.18130   0.23350   0.01267  Uiso   1.00
H3     H     0.10150   0.40960   0.04500   0.01267  Uiso   1.00
H4     H     0.18140   0.27740   0.68560   0.01267  Uiso   1.00
H5     H     0.55190   0.31870   0.73350   0.01267  Uiso   1.00
H6     H     0.39850   0.09040   0.54500   0.01267  Uiso   1.00
H7     H     0.68140   0.77740   0.81440   0.01267  Uiso   1.00
H8     H     0.05190   0.81870   0.76650   0.01267  Uiso   1.00
H9     H     0.89850   0.59040   0.95500   0.01267  Uiso   1.00
H10    H     0.81860   0.72260   0.31440   0.01267  Uiso   1.00
H11    H     0.44810   0.68130   0.26650   0.01267  Uiso   1.00
H12    H     0.60150   0.90960   0.45500   0.01267  Uiso   1.00
C1     C     0.34080   0.38650   0.05630   0.01267  Uiso   1.00
C2     C     0.22830   0.32530   0.10870   0.01267  Uiso   1.00
C3     C     0.24020   0.24240   0.17340   0.01267  Uiso   1.00
C4     C     0.13520   0.18780   0.22090   0.01267  Uiso   1.00
C5     C     0.01820   0.21830   0.20210   0.01267  Uiso   1.00
C6     C     0.00410   0.30220   0.13790   0.01267  Uiso   1.00
C7     C     0.10960   0.35500   0.08960   0.01267  Uiso   1.00
C8     C     0.14380   0.09710   0.29210   0.01267  Uiso   1.00
C9     C     0.87790   0.33540   0.12220   0.01267  Uiso   1.00
C10    C     0.15920   0.11350   0.55630   0.01267  Uiso   1.00
C11    C     0.27170   0.17470   0.60870   0.01267  Uiso   1.00
C12    C     0.25980   0.25760   0.67340   0.01267  Uiso   1.00
C13    C     0.36480   0.31220   0.72090   0.01267  Uiso   1.00
C14    C     0.48180   0.28170   0.70210   0.01267  Uiso   1.00
C15    C     0.49590   0.19780   0.63790   0.01267  Uiso   1.00
C16    C     0.39040   0.14500   0.58960   0.01267  Uiso   1.00
C17    C     0.35620   0.40290   0.79210   0.01267  Uiso   1.00
C18    C     0.62210   0.16460   0.62220   0.01267  Uiso   1.00
C19    C     0.65920   0.61350   0.94370   0.01267  Uiso   1.00
C20    C     0.77170   0.67470   0.89130   0.01267  Uiso   1.00
C21    C     0.75980   0.75760   0.82660   0.01267  Uiso   1.00
C22    C     0.86480   0.81220   0.77910   0.01267  Uiso   1.00
C23    C     0.98180   0.78170   0.79790   0.01267  Uiso   1.00
C24    C     0.99590   0.69780   0.86210   0.01267  Uiso   1.00
C25    C     0.89040   0.64500   0.91040   0.01267  Uiso   1.00
C26    C     0.85620   0.90290   0.70790   0.01267  Uiso   1.00
C27    C     0.12210   0.66460   0.87780   0.01267  Uiso   1.00
C28    C     0.84080   0.88650   0.44370   0.01267  Uiso   1.00
C29    C     0.72830   0.82530   0.39130   0.01267  Uiso   1.00
C30    C     0.74020   0.74240   0.32660   0.01267  Uiso   1.00
C31    C     0.63520   0.68780   0.27910   0.01267  Uiso   1.00
C32    C     0.51820   0.71830   0.29790   0.01267  Uiso   1.00
C33    C     0.50410   0.80220   0.36210   0.01267  Uiso   1.00
C34    C     0.60960   0.85500   0.41040   0.01267  Uiso   1.00
C35    C     0.64380   0.59710   0.20790   0.01267  Uiso   1.00
C36    C     0.37790   0.83540   0.37780   0.01267  Uiso   1.00
O1     O     0.32980   0.47620   0.01050   0.01267  Uiso   1.00
O2     O     0.43810   0.33650   0.06270   0.01267  Uiso   1.00
O3     O     0.24370   0.05460   0.30200   0.01267  Uiso   1.00
O4     O     0.04940   0.06000   0.33840   0.01267  Uiso   1.00
O5     O     0.86410   0.41000   0.06370   0.01267  Uiso   1.00
O6     O     0.78750   0.28840   0.16960   0.01267  Uiso   1.00
O7     O     0.17020   0.02380   0.51050   0.01267  Uiso   1.00
O8     O     0.06190   0.16350   0.56270   0.01267  Uiso   1.00
O9     O     0.25630   0.44540   0.80200   0.01267  Uiso   1.00
O10    O     0.45060   0.44000   0.83840   0.01267  Uiso   1.00
O11    O     0.63590   0.09000   0.56370   0.01267  Uiso   1.00
O12    O     0.71250   0.21160   0.66960   0.01267  Uiso   1.00
O13    O     0.67020   0.52380   0.98950   0.01267  Uiso   1.00
O14    O     0.56190   0.66350   0.93730   0.01267  Uiso   1.00
O15    O     0.75630   0.94540   0.69800   0.01267  Uiso   1.00
O16    O     0.95060   0.94000   0.66160   0.01267  Uiso   1.00
O17    O     0.13590   0.59000   0.93630   0.01267  Uiso   1.00
O18    O     0.21250   0.71160   0.83040   0.01267  Uiso   1.00
O19    O     0.82980   0.97620   0.48950   0.01267  Uiso   1.00
O20    O     0.93810   0.83650   0.43730   0.01267  Uiso   1.00
O21    O     0.74370   0.55460   0.19800   0.01267  Uiso   1.00
O22    O     0.54940   0.56000   0.16160   0.01267  Uiso   1.00
O23    O     0.36410   0.91000   0.43630   0.01267  Uiso   1.00
O24    O     0.28750   0.78840   0.33040   0.01267  Uiso   1.00
