data_image0
_cell_length_a       18.605
_cell_length_b       18.605
_cell_length_c       14.904
_cell_angle_alpha    90
_cell_angle_beta     90
_cell_angle_gamma    120

_symmetry_space_group_name_H-M    "P 1"
_symmetry_int_tables_number       1

loop_
  _symmetry_equiv_pos_as_xyz
  'x, y, z'

loop_
  _atom_site_label
  _atom_site_occupancy
  _atom_site_fract_x
  _atom_site_fract_y
  _atom_site_fract_z
  _atom_site_thermal_displace_type
  _atom_site_B_iso_or_equiv
  _atom_site_type_symbol
  O1       1.0000 0.49370  0.91280  0.08290  Biso   1.000  O
  O2       1.0000 0.40930  0.90190  0.93220  Biso   1.000  O
  O3       1.0000 0.34390  0.76330  0.93780  Biso   1.000  O
  N1       1.0000 0.42580  0.76900  0.08660  Biso   1.000  N
  C1       1.0000 0.46500  0.76750  0.16850  Biso   1.000  C
  C2       1.0000 0.52990  0.75010  0.16770  Biso   1.000  C
  C3       1.0000 0.44270  0.84050  0.05370  Biso   1.000  C
  C4       1.0000 0.39440  0.83430  0.96740  Biso   1.000  C
  O4       1.0000 0.08720  0.58090  0.08290  Biso   1.000  O
  O5       1.0000 0.09810  0.50740  0.93220  Biso   1.000  O
  O6       1.0000 0.23670  0.58060  0.93780  Biso   1.000  O
  N2       1.0000 0.23100  0.65680  0.08660  Biso   1.000  N
  C5       1.0000 0.23250  0.69750  0.16850  Biso   1.000  C
  C6       1.0000 0.24990  0.77980  0.16770  Biso   1.000  C
  C7       1.0000 0.15950  0.60220  0.05370  Biso   1.000  C
  C8       1.0000 0.16570  0.56010  0.96740  Biso   1.000  C
  O7       1.0000 0.41910  0.50630  0.08290  Biso   1.000  O
  O8       1.0000 0.49260  0.59070  0.93220  Biso   1.000  O
  O9       1.0000 0.41940  0.65610  0.93780  Biso   1.000  O
  N3       1.0000 0.34320  0.57420  0.08660  Biso   1.000  N
  C9       1.0000 0.30250  0.53500  0.16850  Biso   1.000  C
  C10      1.0000 0.22020  0.47010  0.16770  Biso   1.000  C
  C11      1.0000 0.39780  0.55730  0.05370  Biso   1.000  C
  C12      1.0000 0.43990  0.60560  0.96740  Biso   1.000  C
  O10      1.0000 0.50630  0.08720  0.58290  Biso   1.000  O
  O11      1.0000 0.59070  0.09810  0.43220  Biso   1.000  O
  O12      1.0000 0.65610  0.23670  0.43780  Biso   1.000  O
  N4       1.0000 0.57420  0.23100  0.58660  Biso   1.000  N
  C13      1.0000 0.53500  0.23250  0.66850  Biso   1.000  C
  C14      1.0000 0.47010  0.24990  0.66770  Biso   1.000  C
  C15      1.0000 0.55730  0.15950  0.55370  Biso   1.000  C
  C16      1.0000 0.60560  0.16570  0.46740  Biso   1.000  C
  O13      1.0000 0.91280  0.41910  0.58290  Biso   1.000  O
  O14      1.0000 0.90190  0.49260  0.43220  Biso   1.000  O
  O15      1.0000 0.76330  0.41940  0.43780  Biso   1.000  O
  N5       1.0000 0.76900  0.34320  0.58660  Biso   1.000  N
  C17      1.0000 0.76750  0.30250  0.66850  Biso   1.000  C
  C18      1.0000 0.75010  0.22020  0.66770  Biso   1.000  C
  C19      1.0000 0.84050  0.39780  0.55370  Biso   1.000  C
  C20      1.0000 0.83430  0.43990  0.46740  Biso   1.000  C
  O16      1.0000 0.58090  0.49370  0.58290  Biso   1.000  O
  O17      1.0000 0.50740  0.40930  0.43220  Biso   1.000  O
  O18      1.0000 0.58060  0.34390  0.43780  Biso   1.000  O
  N6       1.0000 0.65680  0.42580  0.58660  Biso   1.000  N
  C21      1.0000 0.69750  0.46500  0.66850  Biso   1.000  C
  C22      1.0000 0.77980  0.52990  0.66770  Biso   1.000  C
  C23      1.0000 0.60220  0.44270  0.55370  Biso   1.000  C
  C24      1.0000 0.56010  0.39440  0.46740  Biso   1.000  C
  O19      1.0000 0.50630  0.08720  0.91710  Biso   1.000  O
  O20      1.0000 0.59070  0.09810  0.06780  Biso   1.000  O
  O21      1.0000 0.65610  0.23670  0.06220  Biso   1.000  O
  N7       1.0000 0.57420  0.23100  0.91340  Biso   1.000  N
  C25      1.0000 0.53500  0.23250  0.83150  Biso   1.000  C
  C26      1.0000 0.47010  0.24990  0.83230  Biso   1.000  C
  C27      1.0000 0.55730  0.15950  0.94630  Biso   1.000  C
  C28      1.0000 0.60560  0.16570  0.03260  Biso   1.000  C
  O22      1.0000 0.91280  0.41910  0.91710  Biso   1.000  O
  O23      1.0000 0.90190  0.49260  0.06780  Biso   1.000  O
  O24      1.0000 0.76330  0.41940  0.06220  Biso   1.000  O
  N8       1.0000 0.76900  0.34320  0.91340  Biso   1.000  N
  C29      1.0000 0.76750  0.30250  0.83150  Biso   1.000  C
  C30      1.0000 0.75010  0.22020  0.83230  Biso   1.000  C
  C31      1.0000 0.84050  0.39780  0.94630  Biso   1.000  C
  C32      1.0000 0.83430  0.43990  0.03260  Biso   1.000  C
  O25      1.0000 0.58090  0.49370  0.91710  Biso   1.000  O
  O26      1.0000 0.50740  0.40930  0.06780  Biso   1.000  O
  O27      1.0000 0.58060  0.34390  0.06220  Biso   1.000  O
  N9       1.0000 0.65680  0.42580  0.91340  Biso   1.000  N
  C33      1.0000 0.69750  0.46500  0.83150  Biso   1.000  C
  C34      1.0000 0.77980  0.52990  0.83230  Biso   1.000  C
  C35      1.0000 0.60220  0.44270  0.94630  Biso   1.000  C
  C36      1.0000 0.56010  0.39440  0.03260  Biso   1.000  C
  O28      1.0000 0.49370  0.91280  0.41710  Biso   1.000  O
  O29      1.0000 0.40930  0.90190  0.56780  Biso   1.000  O
  O30      1.0000 0.34390  0.76330  0.56220  Biso   1.000  O
  N10      1.0000 0.42580  0.76900  0.41340  Biso   1.000  N
  C37      1.0000 0.46500  0.76750  0.33150  Biso   1.000  C
  C38      1.0000 0.52990  0.75010  0.33230  Biso   1.000  C
  C39      1.0000 0.44270  0.84050  0.44630  Biso   1.000  C
  C40      1.0000 0.39440  0.83430  0.53260  Biso   1.000  C
  O31      1.0000 0.08720  0.58090  0.41710  Biso   1.000  O
  O32      1.0000 0.09810  0.50740  0.56780  Biso   1.000  O
  O33      1.0000 0.23670  0.58060  0.56220  Biso   1.000  O
  N11      1.0000 0.23100  0.65680  0.41340  Biso   1.000  N
  C41      1.0000 0.23250  0.69750  0.33150  Biso   1.000  C
  C42      1.0000 0.24990  0.77980  0.33230  Biso   1.000  C
  C43      1.0000 0.15950  0.60220  0.44630  Biso   1.000  C
  C44      1.0000 0.16570  0.56010  0.53260  Biso   1.000  C
  O34      1.0000 0.41910  0.50630  0.41710  Biso   1.000  O
  O35      1.0000 0.49260  0.59070  0.56780  Biso   1.000  O
  O36      1.0000 0.41940  0.65610  0.56220  Biso   1.000  O
  N12      1.0000 0.34320  0.57420  0.41340  Biso   1.000  N
  C45      1.0000 0.30250  0.53500  0.33150  Biso   1.000  C
  C46      1.0000 0.22020  0.47010  0.33230  Biso   1.000  C
  C47      1.0000 0.39780  0.55730  0.44630  Biso   1.000  C
  C48      1.0000 0.43990  0.60560  0.53260  Biso   1.000  C
  Ni1      1.0000 0.33333  0.66667  0.02000  Biso   1.000  Ni
  Ni2      1.0000 0.66667  0.33333  0.52000  Biso   1.000  Ni
  Ni3      1.0000 0.66667  0.33333  0.98000  Biso   1.000  Ni
  Ni4      1.0000 0.33333  0.66667  0.48000  Biso   1.000  Ni
  C49      1.0000 0.43420  0.77780  0.25000  Biso   1.000  C
  C50      1.0000 0.56120  0.74120  0.25000  Biso   1.000  C
  C51      1.0000 0.22220  0.65640  0.25000  Biso   1.000  C
  C52      1.0000 0.25880  0.82000  0.25000  Biso   1.000  C
  C53      1.0000 0.34360  0.56580  0.25000  Biso   1.000  C
  C54      1.0000 0.18000  0.43880  0.25000  Biso   1.000  C
  C55      1.0000 0.56580  0.22220  0.75000  Biso   1.000  C
  C56      1.0000 0.43880  0.25880  0.75000  Biso   1.000  C
  C57      1.0000 0.77780  0.34360  0.75000  Biso   1.000  C
  C58      1.0000 0.74120  0.18000  0.75000  Biso   1.000  C
  C59      1.0000 0.65640  0.43420  0.75000  Biso   1.000  C
  C60      1.0000 0.82000  0.56120  0.75000  Biso   1.000  C
  Li1      1.0000 0.50000  0.00000  0.00000  Biso   1.000  Li
  Li2      1.0000 0.00000  0.50000  0.00000  Biso   1.000  Li
  Li3      1.0000 0.50000  0.50000  0.00000  Biso   1.000  Li
  Li4      1.0000 0.50000  0.00000  0.50000  Biso   1.000  Li
  Li5      1.0000 0.00000  0.50000  0.50000  Biso   1.000  Li
  Li6      1.0000 0.50000  0.50000  0.50000  Biso   1.000  Li
