data_AGESIP_clean
_audit_creation_date              2014-07-02
_audit_creation_method            'Materials Studio'
_symmetry_space_group_name_H-M    'P1'
_symmetry_Int_Tables_number       1
_symmetry_cell_setting            triclinic
loop_
_symmetry_equiv_pos_as_xyz
  x,y,z
_cell_length_a                    5.6437
_cell_length_b                    9.1507
_cell_length_c                    12.8357
_cell_angle_alpha                 90.0000
_cell_angle_beta                  90.0000
_cell_angle_gamma                 95.8920
loop_
_atom_site_label
_atom_site_type_symbol
_atom_site_fract_x
_atom_site_fract_y
_atom_site_fract_z
_atom_site_U_iso_or_equiv
_atom_site_adp_type
_atom_site_occupancy
Cu1    Cu    0.01236   0.53936   0.11172   0.01267  Uiso   1.00
Cu2    Cu    0.98764   0.96064   0.61172   0.01267  Uiso   1.00
Cu3    Cu    0.98764   0.46064   0.88828   0.01267  Uiso   1.00
Cu4    Cu    0.01236   0.03936   0.38828   0.01267  Uiso   1.00
Cu5    Cu    0.50000   0.00000   0.50000   0.01267  Uiso   1.00
Cu6    Cu    0.50000   0.50000   0.00000   0.01267  Uiso   1.00
H1     H     0.77700   0.83900   0.46700   0.01267  Uiso   1.00
H2     H     0.22300   0.66100   0.96700   0.01267  Uiso   1.00
H3     H     0.22300   0.16100   0.53300   0.01267  Uiso   1.00
H4     H     0.77700   0.33900   0.03300   0.01267  Uiso   1.00
C1     C     0.36670   0.75860   0.21143   0.01267  Uiso   1.00
C2     C     0.46000   0.86050   0.29159   0.01267  Uiso   1.00
C3     C     0.69390   0.87480   0.24292   0.01267  Uiso   1.00
C4     C     0.60510   0.76740   0.16248   0.01267  Uiso   1.00
C5     C     0.63330   0.74140   0.71143   0.01267  Uiso   1.00
C6     C     0.54000   0.63950   0.79159   0.01267  Uiso   1.00
C7     C     0.30610   0.62520   0.74292   0.01267  Uiso   1.00
C8     C     0.39490   0.73260   0.66248   0.01267  Uiso   1.00
C9     C     0.63330   0.24140   0.78857   0.01267  Uiso   1.00
C10    C     0.54000   0.13950   0.70841   0.01267  Uiso   1.00
C11    C     0.30610   0.12520   0.75708   0.01267  Uiso   1.00
C12    C     0.39490   0.23260   0.83752   0.01267  Uiso   1.00
C13    C     0.36670   0.25860   0.28857   0.01267  Uiso   1.00
C14    C     0.46000   0.36050   0.20841   0.01267  Uiso   1.00
C15    C     0.69390   0.37480   0.25708   0.01267  Uiso   1.00
C16    C     0.60510   0.26740   0.33752   0.01267  Uiso   1.00
O1     O     0.16350   0.69460   0.19792   0.01267  Uiso   1.00
O2     O     0.36200   0.90940   0.37197   0.01267  Uiso   1.00
O3     O     0.89160   0.94790   0.25912   0.01267  Uiso   1.00
O4     O     0.69520   0.70690   0.08709   0.01267  Uiso   1.00
O5     O     0.80590   0.91582   0.48290   0.01267  Uiso   1.00
O6     O     0.83650   0.80540   0.69792   0.01267  Uiso   1.00
O7     O     0.63800   0.59060   0.87197   0.01267  Uiso   1.00
O8     O     0.10840   0.55210   0.75912   0.01267  Uiso   1.00
O9     O     0.30480   0.79310   0.58709   0.01267  Uiso   1.00
O10    O     0.19410   0.58418   0.98290   0.01267  Uiso   1.00
O11    O     0.83650   0.30540   0.80208   0.01267  Uiso   1.00
O12    O     0.63800   0.09060   0.62803   0.01267  Uiso   1.00
O13    O     0.10840   0.05210   0.74088   0.01267  Uiso   1.00
O14    O     0.30480   0.29310   0.91291   0.01267  Uiso   1.00
O15    O     0.19410   0.08418   0.51710   0.01267  Uiso   1.00
O16    O     0.16350   0.19460   0.30208   0.01267  Uiso   1.00
O17    O     0.36200   0.40940   0.12803   0.01267  Uiso   1.00
O18    O     0.89160   0.44790   0.24088   0.01267  Uiso   1.00
O19    O     0.69520   0.20690   0.41291   0.01267  Uiso   1.00
O20    O     0.80590   0.41582   0.01710   0.01267  Uiso   1.00
