data_AGIREP_clean
_audit_creation_date              2015-10-16
_audit_creation_method            'Materials Studio'
_symmetry_space_group_name_H-M    'P1'
_symmetry_Int_Tables_number       1
_symmetry_cell_setting            triclinic
loop_
_symmetry_equiv_pos_as_xyz
  x,y,z
_cell_length_a                    19.7390
_cell_length_b                    28.4245
_cell_length_c                    28.4245
_cell_angle_alpha                 61.5950
_cell_angle_beta                  69.6827
_cell_angle_gamma                 69.6827
loop_
_atom_site_label
_atom_site_type_symbol
_atom_site_fract_x
_atom_site_fract_y
_atom_site_fract_z
_atom_site_U_iso_or_equiv
_atom_site_adp_type
_atom_site_occupancy
Zn1    Zn    0.96710   0.28290   0.78290   0.01267  Uiso   1.00
Zn2    Zn    0.35227   0.94364   0.80266   0.01267  Uiso   1.00
Zn3    Zn    0.24091   0.89574   0.89574   0.01267  Uiso   1.00
Zn4    Zn    0.20575   0.59295   0.59295   0.01267  Uiso   1.00
Zn5    Zn    0.96710   0.78290   0.28290   0.01267  Uiso   1.00
Zn6    Zn    0.96761   0.39574   0.39574   0.01267  Uiso   1.00
Zn7    Zn    0.64242   0.55064   0.68078   0.01267  Uiso   1.00
Zn8    Zn    0.58512   0.57581   0.57582   0.01267  Uiso   1.00
Zn9    Zn    0.87384   0.94936   0.81922   0.01267  Uiso   1.00
Zn10   Zn    0.12616   0.18078   0.05064   0.01267  Uiso   1.00
Zn11   Zn    0.35227   0.80266   0.94364   0.01267  Uiso   1.00
Zn12   Zn    0.80749   0.52066   0.01445   0.01267  Uiso   1.00
Zn13   Zn    0.09857   0.55636   0.69734   0.01267  Uiso   1.00
Zn14   Zn    0.26326   0.07581   0.07581   0.01267  Uiso   1.00
Zn15   Zn    0.19251   0.47934   0.98555   0.01267  Uiso   1.00
Zn16   Zn    0.39165   0.90705   0.90705   0.01267  Uiso   1.00
Zn17   Zn    0.03290   0.21710   0.71710   0.01267  Uiso   1.00
Zn18   Zn    0.60835   0.09295   0.09295   0.01267  Uiso   1.00
Zn19   Zn    0.73674   0.92419   0.92419   0.01267  Uiso   1.00
Zn20   Zn    0.75909   0.10426   0.10426   0.01267  Uiso   1.00
Zn21   Zn    0.90143   0.44364   0.30266   0.01267  Uiso   1.00
Zn22   Zn    0.64242   0.68078   0.55064   0.01267  Uiso   1.00
Zn23   Zn    0.35758   0.31922   0.44936   0.01267  Uiso   1.00
Zn24   Zn    0.34260   0.48555   0.97935   0.01267  Uiso   1.00
Zn25   Zn    0.03290   0.71710   0.21710   0.01267  Uiso   1.00
Zn26   Zn    0.41488   0.42419   0.42418   0.01267  Uiso   1.00
Zn27   Zn    0.12616   0.05064   0.18078   0.01267  Uiso   1.00
Zn28   Zn    0.87384   0.81922   0.94936   0.01267  Uiso   1.00
Zn29   Zn    0.79425   0.40705   0.40705   0.01267  Uiso   1.00
Zn30   Zn    0.80750   0.01445   0.52065   0.01267  Uiso   1.00
Zn31   Zn    0.03239   0.60426   0.60426   0.01267  Uiso   1.00
Zn32   Zn    0.65739   0.02066   0.51445   0.01267  Uiso   1.00
Zn33   Zn    0.34261   0.97934   0.48555   0.01267  Uiso   1.00
Zn34   Zn    0.35758   0.44936   0.31922   0.01267  Uiso   1.00
Zn35   Zn    0.90143   0.30266   0.44364   0.01267  Uiso   1.00
Zn36   Zn    0.65740   0.51445   0.02065   0.01267  Uiso   1.00
Zn37   Zn    0.09857   0.69734   0.55636   0.01267  Uiso   1.00
Zn38   Zn    0.19250   0.98555   0.47935   0.01267  Uiso   1.00
Zn39   Zn    0.64773   0.05636   0.19734   0.01267  Uiso   1.00
Zn40   Zn    0.64773   0.19734   0.05636   0.01267  Uiso   1.00
H1     H     0.76260   0.97890   0.69510   0.01267  Uiso   1.00
H2     H     0.43660   0.52110   0.80490   0.01267  Uiso   1.00
H3     H     0.76260   0.69510   0.97890   0.01267  Uiso   1.00
H4     H     0.17330   0.42360   0.29240   0.01267  Uiso   1.00
H5     H     0.20190   0.60210   0.31270   0.01267  Uiso   1.00
H6     H     0.72410   0.06080   0.94860   0.01267  Uiso   1.00
H7     H     0.88330   0.81270   0.10210   0.01267  Uiso   1.00
H8     H     0.88330   0.10210   0.81270   0.01267  Uiso   1.00
H9     H     0.11070   0.79240   0.92360   0.01267  Uiso   1.00
H10    H     0.56670   0.68880   0.97280   0.01267  Uiso   1.00
H11    H     0.43330   0.02720   0.31120   0.01267  Uiso   1.00
H12    H     0.39840   0.05660   0.16820   0.01267  Uiso   1.00
H13    H     0.79810   0.39790   0.68730   0.01267  Uiso   1.00
H14    H     0.69070   0.54410   0.85610   0.01267  Uiso   1.00
H15    H     0.37680   0.55660   0.66820   0.01267  Uiso   1.00
H16    H     0.82670   0.57640   0.70760   0.01267  Uiso   1.00
H17    H     0.80810   0.90520   0.18920   0.01267  Uiso   1.00
H18    H     0.90250   0.59480   0.31080   0.01267  Uiso   1.00
H19    H     0.11670   0.18730   0.89790   0.01267  Uiso   1.00
H20    H     0.28850   0.66670   0.94070   0.01267  Uiso   1.00
H21    H     0.73350   0.43920   0.55140   0.01267  Uiso   1.00
H22    H     0.10410   0.16670   0.44070   0.01267  Uiso   1.00
H23    H     0.69070   0.85610   0.54410   0.01267  Uiso   1.00
H24    H     0.09090   0.95590   0.64390   0.01267  Uiso   1.00
H25    H     0.90910   0.35610   0.04410   0.01267  Uiso   1.00
H26    H     0.88930   0.07640   0.20760   0.01267  Uiso   1.00
H27    H     0.56670   0.97280   0.68880   0.01267  Uiso   1.00
H28    H     0.11070   0.92360   0.79240   0.01267  Uiso   1.00
H29    H     0.56340   0.19510   0.47890   0.01267  Uiso   1.00
H30    H     0.56340   0.47890   0.19510   0.01267  Uiso   1.00
H31    H     0.60160   0.94340   0.83180   0.01267  Uiso   1.00
H32    H     0.30930   0.14390   0.45590   0.01267  Uiso   1.00
H33    H     0.30930   0.45590   0.14390   0.01267  Uiso   1.00
H34    H     0.89590   0.55930   0.83330   0.01267  Uiso   1.00
H35    H     0.23740   0.02110   0.30490   0.01267  Uiso   1.00
H36    H     0.10410   0.44070   0.16670   0.01267  Uiso   1.00
H37    H     0.20190   0.31270   0.60210   0.01267  Uiso   1.00
H38    H     0.27590   0.05140   0.93920   0.01267  Uiso   1.00
H39    H     0.19190   0.09480   0.81080   0.01267  Uiso   1.00
H40    H     0.26650   0.44860   0.56080   0.01267  Uiso   1.00
H41    H     0.80810   0.18920   0.90520   0.01267  Uiso   1.00
H42    H     0.77170   0.18880   0.47280   0.01267  Uiso   1.00
H43    H     0.27590   0.93920   0.05140   0.01267  Uiso   1.00
H44    H     0.22830   0.81120   0.52720   0.01267  Uiso   1.00
H45    H     0.90910   0.04410   0.35610   0.01267  Uiso   1.00
H46    H     0.72410   0.94860   0.06080   0.01267  Uiso   1.00
H47    H     0.88930   0.20760   0.07640   0.01267  Uiso   1.00
H48    H     0.71150   0.05930   0.33330   0.01267  Uiso   1.00
H49    H     0.71150   0.33330   0.05930   0.01267  Uiso   1.00
H50    H     0.39840   0.16820   0.05660   0.01267  Uiso   1.00
H51    H     0.82670   0.70760   0.57640   0.01267  Uiso   1.00
H52    H     0.62320   0.44340   0.33180   0.01267  Uiso   1.00
H53    H     0.22830   0.52720   0.81120   0.01267  Uiso   1.00
H54    H     0.62320   0.33180   0.44340   0.01267  Uiso   1.00
H55    H     0.89590   0.83330   0.55930   0.01267  Uiso   1.00
H56    H     0.37680   0.66820   0.55660   0.01267  Uiso   1.00
H57    H     0.09750   0.68920   0.40520   0.01267  Uiso   1.00
H58    H     0.43660   0.80490   0.52110   0.01267  Uiso   1.00
H59    H     0.09750   0.40520   0.68920   0.01267  Uiso   1.00
H60    H     0.17330   0.29240   0.42360   0.01267  Uiso   1.00
H61    H     0.43330   0.31120   0.02720   0.01267  Uiso   1.00
H62    H     0.19190   0.81080   0.09480   0.01267  Uiso   1.00
H63    H     0.60160   0.83180   0.94340   0.01267  Uiso   1.00
H64    H     0.90250   0.31080   0.59480   0.01267  Uiso   1.00
H65    H     0.11670   0.89790   0.18730   0.01267  Uiso   1.00
H66    H     0.73350   0.55140   0.43920   0.01267  Uiso   1.00
H67    H     0.79810   0.68730   0.39790   0.01267  Uiso   1.00
H68    H     0.09090   0.64390   0.95590   0.01267  Uiso   1.00
H69    H     0.28850   0.94070   0.66670   0.01267  Uiso   1.00
H70    H     0.77170   0.47280   0.18880   0.01267  Uiso   1.00
H71    H     0.23740   0.30490   0.02110   0.01267  Uiso   1.00
H72    H     0.26650   0.56080   0.44860   0.01267  Uiso   1.00
C1     C     0.76454   0.29504   0.44308   0.01267  Uiso   1.00
C2     C     0.19717   0.12848   0.97398   0.01267  Uiso   1.00
C3     C     0.80741   0.89879   0.16019   0.01267  Uiso   1.00
C4     C     0.80741   0.16019   0.89879   0.01267  Uiso   1.00
C5     C     0.28527   0.28748   0.02658   0.01267  Uiso   1.00
C6     C     0.77137   0.41358   0.03968   0.01267  Uiso   1.00
C7     C     0.23493   0.58332   0.42462   0.01267  Uiso   1.00
C8     C     0.75713   0.08332   0.92462   0.01267  Uiso   1.00
C9     C     0.81815   0.56904   0.74446   0.01267  Uiso   1.00
C10    C     0.14093   0.18027   0.44047   0.01267  Uiso   1.00
C11    C     0.61853   0.79450   0.95144   0.01267  Uiso   1.00
C12    C     0.81815   0.74446   0.56904   0.01267  Uiso   1.00
C13    C     0.67081   0.18227   0.47891   0.01267  Uiso   1.00
C14    C     0.61853   0.95144   0.79450   0.01267  Uiso   1.00
C15    C     0.77537   0.53968   0.91358   0.01267  Uiso   1.00
C16    C     0.13165   0.93096   0.75554   0.01267  Uiso   1.00
C17    C     0.30556   0.00523   0.37865   0.01267  Uiso   1.00
C18    C     0.40218   0.03053   0.29111   0.01267  Uiso   1.00
C19    C     0.30944   0.04019   0.23153   0.01267  Uiso   1.00
C20    C     0.58116   0.45981   0.26847   0.01267  Uiso   1.00
C21    C     0.36447   0.70550   0.54856   0.01267  Uiso   1.00
C22    C     0.75031   0.77939   0.55879   0.01267  Uiso   1.00
C23    C     0.14566   0.84808   0.14760   0.01267  Uiso   1.00
C24    C     0.24969   0.44121   0.22061   0.01267  Uiso   1.00
C25    C     0.82054   0.56446   0.37446   0.01267  Uiso   1.00
C26    C     0.80407   0.05112   0.35434   0.01267  Uiso   1.00
C27    C     0.80253   0.87922   0.07432   0.01267  Uiso   1.00
C28    C     0.23833   0.94047   0.68027   0.01267  Uiso   1.00
C29    C     0.16808   0.48702   0.63242   0.01267  Uiso   1.00
C30    C     0.20953   0.14566   0.44888   0.01267  Uiso   1.00
C31    C     0.31056   0.50523   0.87865   0.01267  Uiso   1.00
C32    C     0.79047   0.55112   0.85434   0.01267  Uiso   1.00
C33    C     0.80340   0.65680   0.39160   0.01267  Uiso   1.00
C34    C     0.09311   0.81162   0.18576   0.01267  Uiso   1.00
C35    C     0.99400   0.25830   0.05290   0.01267  Uiso   1.00
C36    C     0.59782   0.70889   0.96947   0.01267  Uiso   1.00
C37    C     0.83192   0.51298   0.36758   0.01267  Uiso   1.00
C38    C     0.08849   0.94121   0.72061   0.01267  Uiso   1.00
C39    C     0.28527   0.02658   0.28748   0.01267  Uiso   1.00
C40    C     0.13361   0.66019   0.39879   0.01267  Uiso   1.00
C41    C     0.50404   0.45276   0.30336   0.01267  Uiso   1.00
C42    C     0.85907   0.81973   0.55953   0.01267  Uiso   1.00
C43    C     0.18185   0.43096   0.25554   0.01267  Uiso   1.00
C44    C     0.66801   0.68227   0.97891   0.01267  Uiso   1.00
C45    C     0.25022   0.92450   0.77246   0.01267  Uiso   1.00
C46    C     0.18185   0.25554   0.43096   0.01267  Uiso   1.00
C47    C     0.90951   0.68576   0.31162   0.01267  Uiso   1.00
C48    C     0.57209   0.76510   0.95512   0.01267  Uiso   1.00
C49    C     0.68944   0.49477   0.12135   0.01267  Uiso   1.00
C50    C     0.70037   0.47398   0.62848   0.01267  Uiso   1.00
C51    C     0.79330   0.26535   0.06825   0.01267  Uiso   1.00
C52    C     0.80253   0.07432   0.87922   0.01267  Uiso   1.00
C53    C     0.50266   0.20496   0.05692   0.01267  Uiso   1.00
C54    C     0.75031   0.55879   0.77939   0.01267  Uiso   1.00
C55    C     0.32919   0.52109   0.81773   0.01267  Uiso   1.00
C56    C     0.85866   0.64760   0.34808   0.01267  Uiso   1.00
C57    C     0.14134   0.65192   0.35240   0.01267  Uiso   1.00
C58    C     0.86639   0.60121   0.33981   0.01267  Uiso   1.00
C59    C     0.17946   0.62554   0.43554   0.01267  Uiso   1.00
C60    C     0.14566   0.14760   0.84808   0.01267  Uiso   1.00
C61    C     0.69480   0.75830   0.55290   0.01267  Uiso   1.00
C62    C     0.16808   0.63242   0.48702   0.01267  Uiso   1.00
C63    C     0.85434   0.85240   0.15192   0.01267  Uiso   1.00
C64    C     0.79330   0.06825   0.26535   0.01267  Uiso   1.00
C65    C     0.17946   0.43554   0.62554   0.01267  Uiso   1.00
C66    C     0.77537   0.91358   0.53968   0.01267  Uiso   1.00
C67    C     0.69056   0.76847   0.95981   0.01267  Uiso   1.00
C68    C     0.73984   0.80336   0.95276   0.01267  Uiso   1.00
C69    C     0.12690   0.23465   0.43175   0.01267  Uiso   1.00
C70    C     0.67081   0.47891   0.18227   0.01267  Uiso   1.00
C71    C     0.14820   0.15680   0.89160   0.01267  Uiso   1.00
C72    C     0.29231   0.54488   0.73490   0.01267  Uiso   1.00
C73    C     0.22863   0.58642   0.96032   0.01267  Uiso   1.00
C74    C     0.32919   0.81773   0.52109   0.01267  Uiso   1.00
C75    C     0.41884   0.73153   0.54019   0.01267  Uiso   1.00
C76    C     0.19747   0.92568   0.12078   0.01267  Uiso   1.00
C77    C     0.05282   0.42450   0.27246   0.01267  Uiso   1.00
C78    C     0.50404   0.30336   0.45276   0.01267  Uiso   1.00
C79    C     0.85180   0.84320   0.10840   0.01267  Uiso   1.00
C80    C     0.86835   0.24446   0.06904   0.01267  Uiso   1.00
C81    C     0.14093   0.44047   0.18027   0.01267  Uiso   1.00
C82    C     0.83192   0.36758   0.51298   0.01267  Uiso   1.00
C83    C     0.24054   0.87446   0.06446   0.01267  Uiso   1.00
C84    C     0.13361   0.39879   0.66019   0.01267  Uiso   1.00
C85    C     0.76507   0.57538   0.41668   0.01267  Uiso   1.00
C86    C     0.20953   0.44888   0.14566   0.01267  Uiso   1.00
C87    C     0.49596   0.54724   0.69664   0.01267  Uiso   1.00
C88    C     0.09049   0.68838   0.31424   0.01267  Uiso   1.00
C89    C     0.19593   0.64566   0.94888   0.01267  Uiso   1.00
C90    C     0.74978   0.07550   0.22754   0.01267  Uiso   1.00
C91    C     0.24287   0.91668   0.07538   0.01267  Uiso   1.00
C92    C     0.40218   0.29111   0.03053   0.01267  Uiso   1.00
C93    C     0.41884   0.54019   0.73153   0.01267  Uiso   1.00
C94    C     0.23546   0.70496   0.55692   0.01267  Uiso   1.00
C95    C     0.49734   0.79504   0.94308   0.01267  Uiso   1.00
C96    C     0.85434   0.15192   0.85240   0.01267  Uiso   1.00
C97    C     0.38147   0.20550   0.04856   0.01267  Uiso   1.00
C98    C     0.26353   0.16667   0.44967   0.01267  Uiso   1.00
C99    C     0.85907   0.55953   0.81973   0.01267  Uiso   1.00
C100   C     0.22463   0.08642   0.46032   0.01267  Uiso   1.00
C101   C     0.26016   0.04724   0.19664   0.01267  Uiso   1.00
C102   C     0.08849   0.72061   0.94121   0.01267  Uiso   1.00
C103   C     0.26016   0.19664   0.04724   0.01267  Uiso   1.00
C104   C     0.25022   0.77246   0.92450   0.01267  Uiso   1.00
C105   C     0.70769   0.26510   0.45512   0.01267  Uiso   1.00
C106   C     0.75713   0.92462   0.08332   0.01267  Uiso   1.00
C107   C     0.69444   0.99477   0.62135   0.01267  Uiso   1.00
C108   C     0.75946   0.93554   0.12554   0.01267  Uiso   1.00
C109   C     0.29231   0.73490   0.54488   0.01267  Uiso   1.00
C110   C     0.71248   0.13242   0.98702   0.01267  Uiso   1.00
C111   C     0.33199   0.31773   0.02109   0.01267  Uiso   1.00
C112   C     0.75607   0.42568   0.62078   0.01267  Uiso   1.00
C113   C     0.23493   0.42462   0.58332   0.01267  Uiso   1.00
C114   C     0.19660   0.60840   0.34320   0.01267  Uiso   1.00
C115   C     0.30556   0.37865   0.00523   0.01267  Uiso   1.00
C116   C     0.59933   0.21252   0.47342   0.01267  Uiso   1.00
C117   C     0.12013   0.66667   0.94967   0.01267  Uiso   1.00
C118   C     0.75946   0.12554   0.93554   0.01267  Uiso   1.00
C119   C     0.09311   0.18576   0.81162   0.01267  Uiso   1.00
C120   C     0.82054   0.37446   0.56446   0.01267  Uiso   1.00
C121   C     0.85866   0.34808   0.64760   0.01267  Uiso   1.00
C122   C     0.63553   0.45144   0.29450   0.01267  Uiso   1.00
C123   C     0.26353   0.44967   0.16667   0.01267  Uiso   1.00
C124   C     0.27618   0.79111   0.53053   0.01267  Uiso   1.00
C125   C     0.90689   0.81424   0.18838   0.01267  Uiso   1.00
C126   C     0.80340   0.39160   0.65680   0.01267  Uiso   1.00
C127   C     0.90689   0.18838   0.81424   0.01267  Uiso   1.00
C128   C     0.30520   0.24170   0.44710   0.01267  Uiso   1.00
C129   C     0.00600   0.94710   0.74170   0.01267  Uiso   1.00
C130   C     0.19593   0.94888   0.64566   0.01267  Uiso   1.00
C131   C     0.71473   0.97342   0.71252   0.01267  Uiso   1.00
C132   C     0.38147   0.04856   0.20550   0.01267  Uiso   1.00
C133   C     0.42791   0.23490   0.04488   0.01267  Uiso   1.00
C134   C     0.22463   0.46032   0.08642   0.01267  Uiso   1.00
C135   C     0.19259   0.10121   0.83981   0.01267  Uiso   1.00
C136   C     0.33199   0.02109   0.31773   0.01267  Uiso   1.00
C137   C     0.40067   0.52658   0.78748   0.01267  Uiso   1.00
C138   C     0.73647   0.55033   0.83333   0.01267  Uiso   1.00
C139   C     0.24393   0.57432   0.37922   0.01267  Uiso   1.00
C140   C     0.70769   0.45512   0.26510   0.01267  Uiso   1.00
C141   C     0.73647   0.83333   0.55033   0.01267  Uiso   1.00
C142   C     0.80283   0.87152   0.02602   0.01267  Uiso   1.00
C143   C     0.87987   0.33333   0.05033   0.01267  Uiso   1.00
C144   C     0.19259   0.83981   0.10121   0.01267  Uiso   1.00
C145   C     0.22863   0.96032   0.58642   0.01267  Uiso   1.00
C146   C     0.23546   0.55692   0.70496   0.01267  Uiso   1.00
C147   C     0.19747   0.12078   0.92568   0.01267  Uiso   1.00
C148   C     0.30944   0.23153   0.04019   0.01267  Uiso   1.00
C149   C     0.29963   0.37152   0.52602   0.01267  Uiso   1.00
C150   C     0.40067   0.78748   0.52658   0.01267  Uiso   1.00
C151   C     0.24287   0.07538   0.91668   0.01267  Uiso   1.00
C152   C     0.12690   0.43175   0.23465   0.01267  Uiso   1.00
C153   C     0.79047   0.85434   0.55112   0.01267  Uiso   1.00
C154   C     0.14820   0.89160   0.15680   0.01267  Uiso   1.00
C155   C     0.30520   0.44710   0.24170   0.01267  Uiso   1.00
C156   C     0.85180   0.10840   0.84320   0.01267  Uiso   1.00
C157   C     0.28752   0.86758   0.01298   0.01267  Uiso   1.00
C158   C     0.71248   0.98702   0.13242   0.01267  Uiso   1.00
C159   C     0.76167   0.05953   0.31973   0.01267  Uiso   1.00
C160   C     0.57209   0.95512   0.76510   0.01267  Uiso   1.00
C161   C     0.66801   0.97891   0.68227   0.01267  Uiso   1.00
C162   C     0.72382   0.20889   0.46947   0.01267  Uiso   1.00
C163   C     0.77137   0.03968   0.41358   0.01267  Uiso   1.00
C164   C     0.71473   0.71252   0.97342   0.01267  Uiso   1.00
C165   C     0.19660   0.34320   0.60840   0.01267  Uiso   1.00
C166   C     0.76454   0.44308   0.29504   0.01267  Uiso   1.00
C167   C     0.58116   0.26847   0.45981   0.01267  Uiso   1.00
C168   C     0.24393   0.37922   0.57432   0.01267  Uiso   1.00
C169   C     0.20670   0.93175   0.73465   0.01267  Uiso   1.00
C170   C     0.86835   0.06904   0.24446   0.01267  Uiso   1.00
C171   C     0.59782   0.96947   0.70889   0.01267  Uiso   1.00
C172   C     0.90951   0.31162   0.68576   0.01267  Uiso   1.00
C173   C     0.29963   0.52602   0.37152   0.01267  Uiso   1.00
C174   C     0.49734   0.94308   0.79504   0.01267  Uiso   1.00
C175   C     0.36447   0.54856   0.70550   0.01267  Uiso   1.00
C176   C     0.87987   0.05033   0.33333   0.01267  Uiso   1.00
C177   C     0.14134   0.35240   0.65192   0.01267  Uiso   1.00
C178   C     0.23833   0.68027   0.94047   0.01267  Uiso   1.00
C179   C     0.80407   0.35434   0.05112   0.01267  Uiso   1.00
C180   C     0.42791   0.04488   0.23490   0.01267  Uiso   1.00
C181   C     0.70037   0.62848   0.47398   0.01267  Uiso   1.00
C182   C     0.74978   0.22754   0.07550   0.01267  Uiso   1.00
C183   C     0.24969   0.22061   0.44121   0.01267  Uiso   1.00
C184   C     0.80283   0.02602   0.87152   0.01267  Uiso   1.00
C185   C     0.76507   0.41668   0.57538   0.01267  Uiso   1.00
C186   C     0.91151   0.05879   0.27939   0.01267  Uiso   1.00
C187   C     0.91151   0.27939   0.05879   0.01267  Uiso   1.00
C188   C     0.12013   0.94967   0.66667   0.01267  Uiso   1.00
C189   C     0.87310   0.76535   0.56825   0.01267  Uiso   1.00
C190   C     0.50266   0.05692   0.20496   0.01267  Uiso   1.00
C191   C     0.20670   0.73465   0.93175   0.01267  Uiso   1.00
C192   C     0.00600   0.74170   0.94710   0.01267  Uiso   1.00
C193   C     0.19717   0.97398   0.12848   0.01267  Uiso   1.00
C194   C     0.27618   0.53053   0.79111   0.01267  Uiso   1.00
C195   C     0.76167   0.31973   0.05953   0.01267  Uiso   1.00
C196   C     0.87310   0.56825   0.76535   0.01267  Uiso   1.00
C197   C     0.28752   0.01298   0.86758   0.01267  Uiso   1.00
C198   C     0.49596   0.69664   0.54724   0.01267  Uiso   1.00
C199   C     0.73984   0.95276   0.80336   0.01267  Uiso   1.00
C200   C     0.13165   0.75554   0.93096   0.01267  Uiso   1.00
C201   C     0.63553   0.29450   0.45144   0.01267  Uiso   1.00
C202   C     0.94718   0.57550   0.72754   0.01267  Uiso   1.00
C203   C     0.86639   0.33981   0.60121   0.01267  Uiso   1.00
C204   C     0.31056   0.87865   0.50523   0.01267  Uiso   1.00
C205   C     0.05282   0.27246   0.42450   0.01267  Uiso   1.00
C206   C     0.24054   0.06446   0.87446   0.01267  Uiso   1.00
C207   C     0.09049   0.31424   0.68838   0.01267  Uiso   1.00
C208   C     0.72382   0.46947   0.20889   0.01267  Uiso   1.00
C209   C     0.99400   0.05290   0.25830   0.01267  Uiso   1.00
C210   C     0.69444   0.62135   0.99477   0.01267  Uiso   1.00
C211   C     0.69056   0.95981   0.76847   0.01267  Uiso   1.00
C212   C     0.68944   0.12135   0.49477   0.01267  Uiso   1.00
C213   C     0.75607   0.62078   0.42568   0.01267  Uiso   1.00
C214   C     0.69480   0.55290   0.75830   0.01267  Uiso   1.00
C215   C     0.59933   0.47342   0.21252   0.01267  Uiso   1.00
C216   C     0.94718   0.72754   0.57550   0.01267  Uiso   1.00
O1     O     0.70444   0.04039   0.43147   0.01267  Uiso   1.00
O2     O     0.03630   0.01700   0.29360   0.01267  Uiso   1.00
O3     O     0.69018   0.05602   0.25062   0.01267  Uiso   1.00
O4     O     0.09537   0.51043   0.64283   0.01267  Uiso   1.00
O5     O     0.17630   0.45961   0.06853   0.01267  Uiso   1.00
O6     O     0.21797   0.91902   0.81928   0.01267  Uiso   1.00
O7     O     0.78671   0.48624   0.39274   0.01267  Uiso   1.00
O8     O     0.71052   0.84961   0.94835   0.01267  Uiso   1.00
O9     O     0.09445   0.17464   0.77432   0.01267  Uiso   1.00
O10    O     0.76007   0.99931   0.60043   0.01267  Uiso   1.00
O11    O     0.85223   0.01675   0.83139   0.01267  Uiso   1.00
O12    O     0.34690   0.20640   0.48300   0.01267  Uiso   1.00
O13    O     0.96370   0.70640   0.98300   0.01267  Uiso   1.00
O14    O     0.21329   0.60726   0.51376   0.01267  Uiso   1.00
O15    O     0.50848   0.65039   0.55165   0.01267  Uiso   1.00
O16    O     0.75458   0.50142   0.09622   0.01267  Uiso   1.00
O17    O     0.65310   0.51700   0.79360   0.01267  Uiso   1.00
O18    O     0.00318   0.55602   0.75062   0.01267  Uiso   1.00
O19    O     0.64019   0.49931   0.10043   0.01267  Uiso   1.00
O20    O     0.04373   0.31928   0.41902   0.01267  Uiso   1.00
O21    O     0.45968   0.45451   0.27945   0.01267  Uiso   1.00
O22    O     0.49152   0.44835   0.34961   0.01267  Uiso   1.00
O23    O     0.90124   0.32202   0.72600   0.01267  Uiso   1.00
O24    O     0.04341   0.72568   0.32536   0.01267  Uiso   1.00
O25    O     0.24490   0.09847   0.99973   0.01267  Uiso   1.00
O26    O     0.64019   0.10043   0.49931   0.01267  Uiso   1.00
O27    O     0.25548   0.56338   0.65732   0.01267  Uiso   1.00
O28    O     0.97933   0.79018   0.93508   0.01267  Uiso   1.00
O29    O     0.85233   0.89577   0.89577   0.01267  Uiso   1.00
O30    O     0.29541   0.43508   0.29018   0.01267  Uiso   1.00
O31    O     0.90463   0.35717   0.48957   0.01267  Uiso   1.00
O32    O     0.24863   0.98957   0.85717   0.01267  Uiso   1.00
O33    O     0.82789   0.44811   0.26791   0.01267  Uiso   1.00
O34    O     0.03630   0.29360   0.01700   0.01267  Uiso   1.00
O35    O     0.05074   0.22600   0.82202   0.01267  Uiso   1.00
O36    O     0.54391   0.05189   0.23209   0.01267  Uiso   1.00
O37    O     0.65417   0.12199   0.12199   0.01267  Uiso   1.00
O38    O     0.30982   0.74938   0.94398   0.01267  Uiso   1.00
O39    O     0.19364   0.04549   0.22055   0.01267  Uiso   1.00
O40    O     0.24542   0.90378   0.49858   0.01267  Uiso   1.00
O41    O     0.95659   0.67464   0.27432   0.01267  Uiso   1.00
O42    O     0.24863   0.85717   0.98957   0.01267  Uiso   1.00
O43    O     0.85223   0.83139   0.01675   0.01267  Uiso   1.00
O44    O     0.45609   0.76791   0.94811   0.01267  Uiso   1.00
O45    O     0.81650   0.44214   0.02886   0.01267  Uiso   1.00
O46    O     0.33431   0.98624   0.89274   0.01267  Uiso   1.00
O47    O     0.14777   0.98325   0.16861   0.01267  Uiso   1.00
O48    O     0.71250   0.52886   0.94214   0.01267  Uiso   1.00
O49    O     0.94926   0.17798   0.77400   0.01267  Uiso   1.00
O50    O     0.75137   0.14283   0.01043   0.01267  Uiso   1.00
O51    O     0.17211   0.73209   0.55189   0.01267  Uiso   1.00
O52    O     0.34583   0.87801   0.87801   0.01267  Uiso   1.00
O53    O     0.29556   0.95961   0.56853   0.01267  Uiso   1.00
O54    O     0.78203   0.18072   0.08098   0.01267  Uiso   1.00
O55    O     0.54032   0.72055   0.54549   0.01267  Uiso   1.00
O56    O     0.94926   0.77400   0.17798   0.01267  Uiso   1.00
O57    O     0.47618   0.93662   0.84268   0.01267  Uiso   1.00
O58    O     0.80636   0.95451   0.77945   0.01267  Uiso   1.00
O59    O     0.02067   0.20982   0.06492   0.01267  Uiso   1.00
O60    O     0.70444   0.43147   0.04039   0.01267  Uiso   1.00
O61    O     0.19364   0.22055   0.04549   0.01267  Uiso   1.00
O62    O     0.23993   0.00069   0.39957   0.01267  Uiso   1.00
O63    O     0.34310   0.50027   0.40153   0.01267  Uiso   1.00
O64    O     0.52382   0.06338   0.15732   0.01267  Uiso   1.00
O65    O     0.97933   0.93508   0.79018   0.01267  Uiso   1.00
O66    O     0.74452   0.43662   0.34268   0.01267  Uiso   1.00
O67    O     0.64778   0.59622   0.00142   0.01267  Uiso   1.00
O68    O     0.21329   0.51376   0.60726   0.01267  Uiso   1.00
O69    O     0.29556   0.56853   0.95961   0.01267  Uiso   1.00
O70    O     0.65690   0.49973   0.59847   0.01267  Uiso   1.00
O71    O     0.18350   0.55786   0.97114   0.01267  Uiso   1.00
O72    O     0.35981   0.89957   0.50069   0.01267  Uiso   1.00
O73    O     0.90463   0.48957   0.35717   0.01267  Uiso   1.00
O74    O     0.71250   0.94214   0.52886   0.01267  Uiso   1.00
O75    O     0.09876   0.27400   0.67798   0.01267  Uiso   1.00
O76    O     0.82370   0.93147   0.54039   0.01267  Uiso   1.00
O77    O     0.64778   0.00142   0.59622   0.01267  Uiso   1.00
O78    O     0.78203   0.08098   0.18072   0.01267  Uiso   1.00
O79    O     0.69018   0.25062   0.05602   0.01267  Uiso   1.00
O80    O     0.70037   0.48325   0.66861   0.01267  Uiso   1.00
O81    O     0.09876   0.67798   0.27400   0.01267  Uiso   1.00
O82    O     0.35613   0.39577   0.39577   0.01267  Uiso   1.00
O83    O     0.65690   0.59847   0.49973   0.01267  Uiso   1.00
O84    O     0.66569   0.01376   0.10726   0.01267  Uiso   1.00
O85    O     0.45968   0.27945   0.45451   0.01267  Uiso   1.00
O86    O     0.66569   0.10726   0.01376   0.01267  Uiso   1.00
O87    O     0.99682   0.24938   0.44398   0.01267  Uiso   1.00
O88    O     0.35222   0.99858   0.40378   0.01267  Uiso   1.00
O89    O     0.49152   0.34961   0.44835   0.01267  Uiso   1.00
O90    O     0.50848   0.55165   0.65039   0.01267  Uiso   1.00
O91    O     0.25548   0.65732   0.56338   0.01267  Uiso   1.00
O92    O     0.70459   0.56492   0.70982   0.01267  Uiso   1.00
O93    O     0.65310   0.79360   0.51700   0.01267  Uiso   1.00
O94    O     0.28948   0.15039   0.05165   0.01267  Uiso   1.00
O95    O     0.45609   0.94811   0.76791   0.01267  Uiso   1.00
O96    O     0.28750   0.47114   0.05786   0.01267  Uiso   1.00
O97    O     0.70037   0.66861   0.48325   0.01267  Uiso   1.00
O98    O     0.75510   0.00027   0.90153   0.01267  Uiso   1.00
O99    O     0.17630   0.06853   0.45961   0.01267  Uiso   1.00
O100   O     0.04373   0.41902   0.31928   0.01267  Uiso   1.00
O101   O     0.34310   0.40153   0.50027   0.01267  Uiso   1.00
O102   O     0.29963   0.33139   0.51675   0.01267  Uiso   1.00
O103   O     0.78671   0.39274   0.48624   0.01267  Uiso   1.00
O104   O     0.95659   0.27432   0.67464   0.01267  Uiso   1.00
O105   O     0.34690   0.48300   0.20640   0.01267  Uiso   1.00
O106   O     0.95627   0.68072   0.58098   0.01267  Uiso   1.00
O107   O     0.89815   0.37801   0.37801   0.01267  Uiso   1.00
O108   O     0.70459   0.70982   0.56492   0.01267  Uiso   1.00
O109   O     0.24490   0.99973   0.09847   0.01267  Uiso   1.00
O110   O     0.75510   0.90153   0.00027   0.01267  Uiso   1.00
O111   O     0.90555   0.82536   0.22568   0.01267  Uiso   1.00
O112   O     0.74452   0.34268   0.43662   0.01267  Uiso   1.00
O113   O     0.54391   0.23209   0.05189   0.01267  Uiso   1.00
O114   O     0.30982   0.94398   0.74938   0.01267  Uiso   1.00
O115   O     0.64387   0.60423   0.60423   0.01267  Uiso   1.00
O116   O     0.82789   0.26791   0.44811   0.01267  Uiso   1.00
O117   O     0.82370   0.54039   0.93147   0.01267  Uiso   1.00
O118   O     0.90555   0.22568   0.82536   0.01267  Uiso   1.00
O119   O     0.21797   0.81928   0.91902   0.01267  Uiso   1.00
O120   O     0.75458   0.09622   0.50142   0.01267  Uiso   1.00
O121   O     0.14767   0.10423   0.10423   0.01267  Uiso   1.00
O122   O     0.02067   0.06492   0.20982   0.01267  Uiso   1.00
O123   O     0.90124   0.72600   0.32202   0.01267  Uiso   1.00
O124   O     0.35981   0.50069   0.89957   0.01267  Uiso   1.00
O125   O     0.04341   0.32536   0.72568   0.01267  Uiso   1.00
O126   O     0.99682   0.44398   0.24938   0.01267  Uiso   1.00
O127   O     0.33431   0.89274   0.98624   0.01267  Uiso   1.00
O128   O     0.00318   0.75062   0.55602   0.01267  Uiso   1.00
O129   O     0.35222   0.40378   0.99858   0.01267  Uiso   1.00
O130   O     0.10185   0.62199   0.62199   0.01267  Uiso   1.00
O131   O     0.54032   0.54549   0.72055   0.01267  Uiso   1.00
O132   O     0.96370   0.98300   0.70640   0.01267  Uiso   1.00
O133   O     0.71052   0.94835   0.84961   0.01267  Uiso   1.00
O134   O     0.52382   0.15732   0.06338   0.01267  Uiso   1.00
O135   O     0.95627   0.58098   0.68072   0.01267  Uiso   1.00
O136   O     0.29541   0.29018   0.43508   0.01267  Uiso   1.00
O137   O     0.29963   0.51675   0.33139   0.01267  Uiso   1.00
O138   O     0.76007   0.60043   0.99931   0.01267  Uiso   1.00
O139   O     0.17211   0.55189   0.73209   0.01267  Uiso   1.00
O140   O     0.47618   0.84268   0.93662   0.01267  Uiso   1.00
O141   O     0.05074   0.82202   0.22600   0.01267  Uiso   1.00
O142   O     0.09445   0.77432   0.17464   0.01267  Uiso   1.00
O143   O     0.23993   0.39957   0.00069   0.01267  Uiso   1.00
O144   O     0.81650   0.02886   0.44214   0.01267  Uiso   1.00
O145   O     0.80636   0.77945   0.95451   0.01267  Uiso   1.00
O146   O     0.28948   0.05165   0.15039   0.01267  Uiso   1.00
O147   O     0.24542   0.49858   0.90378   0.01267  Uiso   1.00
O148   O     0.18350   0.97114   0.55786   0.01267  Uiso   1.00
O149   O     0.28750   0.05786   0.47114   0.01267  Uiso   1.00
O150   O     0.75137   0.01043   0.14283   0.01267  Uiso   1.00
O151   O     0.09537   0.64283   0.51043   0.01267  Uiso   1.00
O152   O     0.14777   0.16861   0.98325   0.01267  Uiso   1.00
