data_image0
_cell_length_a       7.9105
_cell_length_b       11.128
_cell_length_c       19.441
_cell_angle_alpha    90
_cell_angle_beta     101.061
_cell_angle_gamma    90

_symmetry_space_group_name_H-M    "P 1"
_symmetry_int_tables_number       1

loop_
  _symmetry_equiv_pos_as_xyz
  'x, y, z'

loop_
  _atom_site_label
  _atom_site_occupancy
  _atom_site_fract_x
  _atom_site_fract_y
  _atom_site_fract_z
  _atom_site_thermal_displace_type
  _atom_site_B_iso_or_equiv
  _atom_site_type_symbol
  Cd1      1.0000 0.85245  0.99628  0.07697  Biso   1.000  Cd
  O1       1.0000 0.94340  0.17124  0.13962  Biso   1.000  O
  O2       1.0000 0.02370  0.00053  0.19297  Biso   1.000  O
  O3       1.0000 0.36330  0.10710  0.18364  Biso   1.000  O
  H1       1.0000 0.43930  0.07050  0.16900  Biso   1.000  H
  O4       1.0000 0.54640  0.09180  0.28457  Biso   1.000  O
  O5       1.0000 0.45570  0.38465  0.46630  Biso   1.000  O
  O6       1.0000 0.19150  0.41011  0.48444  Biso   1.000  O
  O7       1.0000 0.90590  0.49249  0.36990  Biso   1.000  O
  O8       1.0000 0.81120  0.32722  0.41170  Biso   1.000  O
  C1       1.0000 0.09850  0.18180  0.25680  Biso   1.000  C
  C2       1.0000 0.27610  0.18320  0.28474  Biso   1.000  C
  C3       1.0000 0.33470  0.24640  0.34608  Biso   1.000  C
  H2       1.0000 0.45210  0.24710  0.36480  Biso   1.000  H
  C4       1.0000 0.22350  0.30880  0.38044  Biso   1.000  C
  C5       1.0000 0.04690  0.30840  0.35220  Biso   1.000  C
  C6       1.0000 0.98650  0.24410  0.29139  Biso   1.000  C
  H3       1.0000 0.86890  0.24240  0.27330  Biso   1.000  H
  C7       1.0000 0.01930  0.11160  0.19232  Biso   1.000  C
  C8       1.0000 0.40860  0.12160  0.25153  Biso   1.000  C
  C9       1.0000 0.29550  0.37320  0.44754  Biso   1.000  C
  C10      1.0000 0.91540  0.38080  0.38145  Biso   1.000  C
  Cd2      1.0000 0.64755  0.49628  0.42303  Biso   1.000  Cd
  O9       1.0000 0.55660  0.67124  0.36038  Biso   1.000  O
  O10      1.0000 0.47630  0.50053  0.30703  Biso   1.000  O
  O11      1.0000 0.13670  0.60710  0.31636  Biso   1.000  O
  H4       1.0000 0.06070  0.57050  0.33100  Biso   1.000  H
  O12      1.0000 0.95360  0.59180  0.21543  Biso   1.000  O
  O13      1.0000 0.04430  0.88465  0.03370  Biso   1.000  O
  O14      1.0000 0.30850  0.91011  0.01556  Biso   1.000  O
  O15      1.0000 0.59410  0.99249  0.13010  Biso   1.000  O
  O16      1.0000 0.68880  0.82722  0.08830  Biso   1.000  O
  C11      1.0000 0.40150  0.68180  0.24320  Biso   1.000  C
  C12      1.0000 0.22390  0.68320  0.21526  Biso   1.000  C
  C13      1.0000 0.16530  0.74640  0.15392  Biso   1.000  C
  H5       1.0000 0.04790  0.74710  0.13520  Biso   1.000  H
  C14      1.0000 0.27650  0.80880  0.11956  Biso   1.000  C
  C15      1.0000 0.45310  0.80840  0.14780  Biso   1.000  C
  C16      1.0000 0.51350  0.74410  0.20861  Biso   1.000  C
  H6       1.0000 0.63110  0.74240  0.22670  Biso   1.000  H
  C17      1.0000 0.48070  0.61160  0.30768  Biso   1.000  C
  C18      1.0000 0.09140  0.62160  0.24847  Biso   1.000  C
  C19      1.0000 0.20450  0.87320  0.05246  Biso   1.000  C
  C20      1.0000 0.58460  0.88080  0.11855  Biso   1.000  C
  Cd3      1.0000 0.14755  0.00372  0.92303  Biso   1.000  Cd
  O17      1.0000 0.05660  0.82876  0.86038  Biso   1.000  O
  O18      1.0000 0.97630  0.99947  0.80703  Biso   1.000  O
  O19      1.0000 0.63670  0.89290  0.81636  Biso   1.000  O
  H7       1.0000 0.56070  0.92950  0.83100  Biso   1.000  H
  O20      1.0000 0.45360  0.90820  0.71543  Biso   1.000  O
  O21      1.0000 0.54430  0.61535  0.53370  Biso   1.000  O
  O22      1.0000 0.80850  0.58989  0.51556  Biso   1.000  O
  O23      1.0000 0.09410  0.50751  0.63010  Biso   1.000  O
  O24      1.0000 0.18880  0.67278  0.58830  Biso   1.000  O
  C21      1.0000 0.90150  0.81820  0.74320  Biso   1.000  C
  C22      1.0000 0.72390  0.81680  0.71526  Biso   1.000  C
  C23      1.0000 0.66530  0.75360  0.65392  Biso   1.000  C
  H8       1.0000 0.54790  0.75290  0.63520  Biso   1.000  H
  C24      1.0000 0.77650  0.69120  0.61956  Biso   1.000  C
  C25      1.0000 0.95310  0.69160  0.64780  Biso   1.000  C
  C26      1.0000 0.01350  0.75590  0.70861  Biso   1.000  C
  H9       1.0000 0.13110  0.75760  0.72670  Biso   1.000  H
  C27      1.0000 0.98070  0.88840  0.80768  Biso   1.000  C
  C28      1.0000 0.59140  0.87840  0.74847  Biso   1.000  C
  C29      1.0000 0.70450  0.62680  0.55246  Biso   1.000  C
  C30      1.0000 0.08460  0.61920  0.61855  Biso   1.000  C
  Cd4      1.0000 0.35245  0.50372  0.57697  Biso   1.000  Cd
  O25      1.0000 0.44340  0.32876  0.63962  Biso   1.000  O
  O26      1.0000 0.52370  0.49947  0.69297  Biso   1.000  O
  O27      1.0000 0.86330  0.39290  0.68364  Biso   1.000  O
  H10      1.0000 0.93930  0.42950  0.66900  Biso   1.000  H
  O28      1.0000 0.04640  0.40820  0.78457  Biso   1.000  O
  O29      1.0000 0.95570  0.11535  0.96630  Biso   1.000  O
  O30      1.0000 0.69150  0.08989  0.98444  Biso   1.000  O
  O31      1.0000 0.40590  0.00751  0.86990  Biso   1.000  O
  O32      1.0000 0.31120  0.17278  0.91170  Biso   1.000  O
  C31      1.0000 0.59850  0.31820  0.75680  Biso   1.000  C
  C32      1.0000 0.77610  0.31680  0.78474  Biso   1.000  C
  C33      1.0000 0.83470  0.25360  0.84608  Biso   1.000  C
  H11      1.0000 0.95210  0.25290  0.86480  Biso   1.000  H
  C34      1.0000 0.72350  0.19120  0.88044  Biso   1.000  C
  C35      1.0000 0.54690  0.19160  0.85220  Biso   1.000  C
  C36      1.0000 0.48650  0.25590  0.79139  Biso   1.000  C
  H12      1.0000 0.36890  0.25760  0.77330  Biso   1.000  H
  C37      1.0000 0.51930  0.38840  0.69232  Biso   1.000  C
  C38      1.0000 0.90860  0.37840  0.75153  Biso   1.000  C
  C39      1.0000 0.79550  0.12680  0.94754  Biso   1.000  C
  C40      1.0000 0.41540  0.11920  0.88145  Biso   1.000  C
