data_image0
_cell_length_a       12.9012
_cell_length_b       14.5816
_cell_length_c       11.8243
_cell_angle_alpha    90
_cell_angle_beta     90
_cell_angle_gamma    90

_symmetry_space_group_name_H-M    "P 1"
_symmetry_int_tables_number       1

loop_
  _symmetry_equiv_pos_as_xyz
  'x, y, z'

loop_
  _atom_site_label
  _atom_site_occupancy
  _atom_site_fract_x
  _atom_site_fract_y
  _atom_site_fract_z
  _atom_site_thermal_displace_type
  _atom_site_B_iso_or_equiv
  _atom_site_type_symbol
  Cd1      1.0000 0.50211  0.25495  0.02373  Biso   1.000  Cd
  O1       1.0000 0.47946  0.11477  0.14730  Biso   1.000  O
  O2       1.0000 0.34461  0.19532  0.09262  Biso   1.000  O
  O3       1.0000 0.14152  0.10304  0.02362  Biso   1.000  O
  O4       1.0000 0.08693  0.18534  0.16975  Biso   1.000  O
  O5       1.0000 0.08996  0.81700  0.37887  Biso   1.000  O
  O6       1.0000 0.11338  0.91225  0.52128  Biso   1.000  O
  O7       1.0000 0.32280  0.81488  0.47549  Biso   1.000  O
  O8       1.0000 0.46345  0.86245  0.39528  Biso   1.000  O
  C1       1.0000 0.38419  0.12831  0.14417  Biso   1.000  C
  C2       1.0000 0.31464  0.06356  0.20828  Biso   1.000  C
  C3       1.0000 0.20615  0.06609  0.20585  Biso   1.000  C
  C4       1.0000 0.14228  0.12301  0.12502  Biso   1.000  C
  C5       1.0000 0.15083  0.00822  0.27810  Biso   1.000  C
  C6       1.0000 0.19942  0.94464  0.34840  Biso   1.000  C
  C7       1.0000 0.13049  0.88631  0.42354  Biso   1.000  C
  C8       1.0000 0.30767  0.93815  0.34497  Biso   1.000  C
  C9       1.0000 0.36738  0.86762  0.41087  Biso   1.000  C
  C10      1.0000 0.36262  0.99896  0.27700  Biso   1.000  C
  H1       1.0000 0.43710  0.99270  0.27900  Biso   1.000  H
  H2       1.0000 0.07230  0.01190  0.28100  Biso   1.000  H
  Cd2      1.0000 0.49789  0.74506  0.52373  Biso   1.000  Cd
  O9       1.0000 0.52054  0.88523  0.64730  Biso   1.000  O
  O10      1.0000 0.65539  0.80468  0.59262  Biso   1.000  O
  O11      1.0000 0.85848  0.89696  0.52362  Biso   1.000  O
  O12      1.0000 0.91307  0.81466  0.66975  Biso   1.000  O
  O13      1.0000 0.91004  0.18300  0.87887  Biso   1.000  O
  O14      1.0000 0.88662  0.08775  0.02128  Biso   1.000  O
  O15      1.0000 0.67720  0.18512  0.97549  Biso   1.000  O
  O16      1.0000 0.53655  0.13755  0.89528  Biso   1.000  O
  C11      1.0000 0.61581  0.87169  0.64417  Biso   1.000  C
  C12      1.0000 0.68536  0.93644  0.70828  Biso   1.000  C
  C13      1.0000 0.79385  0.93391  0.70585  Biso   1.000  C
  C14      1.0000 0.85772  0.87699  0.62502  Biso   1.000  C
  C15      1.0000 0.84917  0.99178  0.77810  Biso   1.000  C
  C16      1.0000 0.80058  0.05536  0.84840  Biso   1.000  C
  C17      1.0000 0.86951  0.11369  0.92354  Biso   1.000  C
  C18      1.0000 0.69233  0.06185  0.84497  Biso   1.000  C
  C19      1.0000 0.63262  0.13238  0.91087  Biso   1.000  C
  C20      1.0000 0.63738  0.00104  0.77700  Biso   1.000  C
  H3       1.0000 0.56290  0.00730  0.77900  Biso   1.000  H
  H4       1.0000 0.92770  0.98810  0.78100  Biso   1.000  H
  Cd3      1.0000 0.00211  0.24506  0.02373  Biso   1.000  Cd
  O17      1.0000 0.97946  0.38523  0.14730  Biso   1.000  O
  O18      1.0000 0.84461  0.30468  0.09262  Biso   1.000  O
  O19      1.0000 0.64152  0.39696  0.02362  Biso   1.000  O
  O20      1.0000 0.58693  0.31466  0.16975  Biso   1.000  O
  O21      1.0000 0.58996  0.68300  0.37887  Biso   1.000  O
  O22      1.0000 0.61338  0.58775  0.52128  Biso   1.000  O
  O23      1.0000 0.82280  0.68512  0.47549  Biso   1.000  O
  O24      1.0000 0.96345  0.63755  0.39528  Biso   1.000  O
  C21      1.0000 0.88419  0.37169  0.14417  Biso   1.000  C
  C22      1.0000 0.81464  0.43644  0.20828  Biso   1.000  C
  C23      1.0000 0.70615  0.43391  0.20585  Biso   1.000  C
  C24      1.0000 0.64228  0.37699  0.12502  Biso   1.000  C
  C25      1.0000 0.65083  0.49178  0.27810  Biso   1.000  C
  C26      1.0000 0.69942  0.55536  0.34840  Biso   1.000  C
  C27      1.0000 0.63049  0.61369  0.42354  Biso   1.000  C
  C28      1.0000 0.80767  0.56185  0.34497  Biso   1.000  C
  C29      1.0000 0.86738  0.63238  0.41087  Biso   1.000  C
  C30      1.0000 0.86262  0.50104  0.27700  Biso   1.000  C
  H5       1.0000 0.93710  0.50730  0.27900  Biso   1.000  H
  H6       1.0000 0.57230  0.48810  0.28100  Biso   1.000  H
  Cd4      1.0000 0.99789  0.75495  0.52373  Biso   1.000  Cd
  O25      1.0000 0.02054  0.61477  0.64730  Biso   1.000  O
  O26      1.0000 0.15539  0.69532  0.59262  Biso   1.000  O
  O27      1.0000 0.35848  0.60304  0.52362  Biso   1.000  O
  O28      1.0000 0.41307  0.68534  0.66975  Biso   1.000  O
  O29      1.0000 0.41004  0.31700  0.87887  Biso   1.000  O
  O30      1.0000 0.38662  0.41225  0.02128  Biso   1.000  O
  O31      1.0000 0.17720  0.31488  0.97549  Biso   1.000  O
  O32      1.0000 0.03655  0.36245  0.89528  Biso   1.000  O
  C31      1.0000 0.11581  0.62831  0.64417  Biso   1.000  C
  C32      1.0000 0.18536  0.56356  0.70828  Biso   1.000  C
  C33      1.0000 0.29385  0.56609  0.70585  Biso   1.000  C
  C34      1.0000 0.35772  0.62301  0.62502  Biso   1.000  C
  C35      1.0000 0.34917  0.50822  0.77810  Biso   1.000  C
  C36      1.0000 0.30058  0.44464  0.84840  Biso   1.000  C
  C37      1.0000 0.36951  0.38631  0.92354  Biso   1.000  C
  C38      1.0000 0.19233  0.43815  0.84497  Biso   1.000  C
  C39      1.0000 0.13262  0.36762  0.91087  Biso   1.000  C
  C40      1.0000 0.13738  0.49896  0.77700  Biso   1.000  C
  H7       1.0000 0.06290  0.49270  0.77900  Biso   1.000  H
  H8       1.0000 0.42770  0.51190  0.78100  Biso   1.000  H
