data_image0
_cell_length_a       29.0505
_cell_length_b       29.0505
_cell_length_c       28.7967
_cell_angle_alpha    90
_cell_angle_beta     90
_cell_angle_gamma    90

_symmetry_space_group_name_H-M    "P 1"
_symmetry_int_tables_number       1

loop_
  _symmetry_equiv_pos_as_xyz
  'x, y, z'

loop_
  _atom_site_label
  _atom_site_occupancy
  _atom_site_fract_x
  _atom_site_fract_y
  _atom_site_fract_z
  _atom_site_thermal_displace_type
  _atom_site_B_iso_or_equiv
  _atom_site_type_symbol
  In1      1.0000 0.20910  0.79089  0.38455  Biso   1.000  In
  In2      1.0000 0.20388  0.88138  0.30323  Biso   1.000  In
  In3      1.0000 0.11873  0.79609  0.30321  Biso   1.000  In
  O1       1.0000 0.17720  0.82220  0.33020  Biso   1.000  O
  O2       1.0000 0.20070  0.72360  0.35510  Biso   1.000  O
  O3       1.0000 0.14700  0.72760  0.29810  Biso   1.000  O
  O4       1.0000 0.27280  0.85240  0.29850  Biso   1.000  O
  O5       1.0000 0.21830  0.85350  0.42280  Biso   1.000  O
  O6       1.0000 0.21860  0.14790  0.57800  Biso   1.000  O
  O7       1.0000 0.27600  0.79990  0.35490  Biso   1.000  O
  O8       1.0000 0.35890  0.69510  0.73260  Biso   1.000  O
  N1       1.0000 0.24260  0.75760  0.44250  Biso   1.000  N
  O9       1.0000 0.30510  0.64000  0.73180  Biso   1.000  O
  O10      1.0000 0.21900  0.90900  0.37060  Biso   1.000  O
  O11      1.0000 0.22030  0.09070  0.62920  Biso   1.000  O
  C1       1.0000 0.22180  0.89540  0.41150  Biso   1.000  C
  N2       1.0000 0.26630  0.44600  0.22480  Biso   1.000  N
  C2       1.0000 0.19020  0.66170  0.30670  Biso   1.000  C
  C3       1.0000 0.17900  0.70800  0.32130  Biso   1.000  C
  C4       1.0000 0.33890  0.81020  0.30760  Biso   1.000  C
  C5       1.0000 0.29340  0.82320  0.32160  Biso   1.000  C
  C6       1.0000 0.42670  0.78220  0.27680  Biso   1.000  C
  N3       1.0000 0.55410  0.73320  0.22260  Biso   1.000  N
  C7       1.0000 0.22610  0.07060  0.55200  Biso   1.000  C
  C8       1.0000 0.22550  0.92850  0.44800  Biso   1.000  C
  C9       1.0000 0.24580  0.70000  0.50180  Biso   1.000  C
  C10      1.0000 0.29780  0.75730  0.50540  Biso   1.000  C
  C11      1.0000 0.28070  0.77620  0.46310  Biso   1.000  C
  C12      1.0000 0.36580  0.78210  0.33430  Biso   1.000  C
  C13      1.0000 0.32760  0.67350  0.71260  Biso   1.000  C
  C14      1.0000 0.21340  0.63010  0.33530  Biso   1.000  C
  C15      1.0000 0.41080  0.77180  0.32020  Biso   1.000  C
  C16      1.0000 0.22340  0.71890  0.46440  Biso   1.000  C
  C17      1.0000 0.22290  0.10610  0.58900  Biso   1.000  C
  C18      1.0000 0.29480  0.70510  0.57470  Biso   1.000  C
  C19      1.0000 0.21600  0.57320  0.27860  Biso   1.000  C
  C20      1.0000 0.28280  0.66140  0.64150  Biso   1.000  C
  C21      1.0000 0.31760  0.68170  0.66600  Biso   1.000  C
  C22      1.0000 0.22800  0.00540  0.47850  Biso   1.000  C
  C23      1.0000 0.27460  0.72300  0.52830  Biso   1.000  C
  C24      1.0000 0.33750  0.71660  0.64060  Biso   1.000  C
  C25      1.0000 0.22920  0.02620  0.55720  Biso   1.000  C
  C26      1.0000 0.22970  0.99320  0.52220  Biso   1.000  C
  C27      1.0000 0.22730  0.97410  0.44270  Biso   1.000  C
  C28      1.0000 0.22940  0.58930  0.31880  Biso   1.000  C
  C29      1.0000 0.35810  0.82510  0.26810  Biso   1.000  C
  C30      1.0000 0.17840  0.64650  0.26470  Biso   1.000  C
  C31      1.0000 0.33210  0.72690  0.59610  Biso   1.000  C
  C32      1.0000 0.27010  0.67210  0.59830  Biso   1.000  C
  C33      1.0000 0.24190  0.52720  0.26090  Biso   1.000  C
  C34      1.0000 0.18790  0.59950  0.25160  Biso   1.000  C
  C35      1.0000 0.22500  0.08700  0.50870  Biso   1.000  C
  C36      1.0000 0.40080  0.81090  0.25120  Biso   1.000  C
  C37      1.0000 0.24200  0.04500  0.46810  Biso   1.000  C
  C38      1.0000 0.22700  0.91090  0.49150  Biso   1.000  C
  C39      1.0000 0.23000  0.94960  0.53110  Biso   1.000  C
  C40      1.0000 0.46910  0.76180  0.25680  Biso   1.000  C
  C41      1.0000 0.52100  0.71560  0.20830  Biso   1.000  C
  C42      1.0000 0.51060  0.76620  0.27480  Biso   1.000  C
  C43      1.0000 0.23090  0.48860  0.27890  Biso   1.000  C
  C44      1.0000 0.55070  0.75700  0.25300  Biso   1.000  C
  C45      1.0000 0.27300  0.49600  0.21200  Biso   1.000  C
  C46      1.0000 0.25030  0.44660  0.25920  Biso   1.000  C
  C47      1.0000 0.47080  0.73100  0.21470  Biso   1.000  C
  In4      1.0000 0.70910  0.29089  0.88455  Biso   1.000  In
  In5      1.0000 0.70388  0.38138  0.80323  Biso   1.000  In
  In6      1.0000 0.61873  0.29609  0.80321  Biso   1.000  In
  O12      1.0000 0.67720  0.32220  0.83020  Biso   1.000  O
  O13      1.0000 0.70070  0.22360  0.85510  Biso   1.000  O
  O14      1.0000 0.64700  0.22760  0.79810  Biso   1.000  O
  O15      1.0000 0.77280  0.35240  0.79850  Biso   1.000  O
  O16      1.0000 0.71830  0.35350  0.92280  Biso   1.000  O
  O17      1.0000 0.71860  0.64790  0.07800  Biso   1.000  O
  O18      1.0000 0.77600  0.29990  0.85490  Biso   1.000  O
  O19      1.0000 0.85890  0.19510  0.23260  Biso   1.000  O
  N4       1.0000 0.74260  0.25760  0.94250  Biso   1.000  N
  O20      1.0000 0.80510  0.14000  0.23180  Biso   1.000  O
  O21      1.0000 0.71900  0.40900  0.87060  Biso   1.000  O
  O22      1.0000 0.72030  0.59070  0.12920  Biso   1.000  O
  C48      1.0000 0.72180  0.39540  0.91150  Biso   1.000  C
  N5       1.0000 0.76630  0.94600  0.72480  Biso   1.000  N
  C49      1.0000 0.69020  0.16170  0.80670  Biso   1.000  C
  C50      1.0000 0.67900  0.20800  0.82130  Biso   1.000  C
  C51      1.0000 0.83890  0.31020  0.80760  Biso   1.000  C
  C52      1.0000 0.79340  0.32320  0.82160  Biso   1.000  C
  C53      1.0000 0.92670  0.28220  0.77680  Biso   1.000  C
  N6       1.0000 0.05410  0.23320  0.72260  Biso   1.000  N
  C54      1.0000 0.72610  0.57060  0.05200  Biso   1.000  C
  C55      1.0000 0.72550  0.42850  0.94800  Biso   1.000  C
  C56      1.0000 0.74580  0.20000  0.00180  Biso   1.000  C
  C57      1.0000 0.79780  0.25730  0.00540  Biso   1.000  C
  C58      1.0000 0.78070  0.27620  0.96310  Biso   1.000  C
  C59      1.0000 0.86580  0.28210  0.83430  Biso   1.000  C
  C60      1.0000 0.82760  0.17350  0.21260  Biso   1.000  C
  C61      1.0000 0.71340  0.13010  0.83530  Biso   1.000  C
  C62      1.0000 0.91080  0.27180  0.82020  Biso   1.000  C
  C63      1.0000 0.72340  0.21890  0.96440  Biso   1.000  C
  C64      1.0000 0.72290  0.60610  0.08900  Biso   1.000  C
  C65      1.0000 0.79480  0.20510  0.07470  Biso   1.000  C
  C66      1.0000 0.71600  0.07320  0.77860  Biso   1.000  C
  C67      1.0000 0.78280  0.16140  0.14150  Biso   1.000  C
  C68      1.0000 0.81760  0.18170  0.16600  Biso   1.000  C
  C69      1.0000 0.72800  0.50540  0.97850  Biso   1.000  C
  C70      1.0000 0.77460  0.22300  0.02830  Biso   1.000  C
  C71      1.0000 0.83750  0.21660  0.14060  Biso   1.000  C
  C72      1.0000 0.72920  0.52620  0.05720  Biso   1.000  C
  C73      1.0000 0.72970  0.49320  0.02220  Biso   1.000  C
  C74      1.0000 0.72730  0.47410  0.94270  Biso   1.000  C
  C75      1.0000 0.72940  0.08930  0.81880  Biso   1.000  C
  C76      1.0000 0.85810  0.32510  0.76810  Biso   1.000  C
  C77      1.0000 0.67840  0.14650  0.76470  Biso   1.000  C
  C78      1.0000 0.83210  0.22690  0.09610  Biso   1.000  C
  C79      1.0000 0.77010  0.17210  0.09830  Biso   1.000  C
  C80      1.0000 0.74190  0.02720  0.76090  Biso   1.000  C
  C81      1.0000 0.68790  0.09950  0.75160  Biso   1.000  C
  C82      1.0000 0.72500  0.58700  0.00870  Biso   1.000  C
  C83      1.0000 0.90080  0.31090  0.75120  Biso   1.000  C
  C84      1.0000 0.74200  0.54500  0.96810  Biso   1.000  C
  C85      1.0000 0.72700  0.41090  0.99150  Biso   1.000  C
  C86      1.0000 0.73000  0.44960  0.03110  Biso   1.000  C
  C87      1.0000 0.96910  0.26180  0.75680  Biso   1.000  C
  C88      1.0000 0.02100  0.21560  0.70830  Biso   1.000  C
  C89      1.0000 0.01060  0.26620  0.77480  Biso   1.000  C
  C90      1.0000 0.73090  0.98860  0.77890  Biso   1.000  C
  C91      1.0000 0.05070  0.25700  0.75300  Biso   1.000  C
  C92      1.0000 0.77300  0.99600  0.71200  Biso   1.000  C
  C93      1.0000 0.75030  0.94660  0.75920  Biso   1.000  C
  C94      1.0000 0.97080  0.23100  0.71470  Biso   1.000  C
  In7      1.0000 0.79090  0.20911  0.38455  Biso   1.000  In
  In8      1.0000 0.79612  0.11862  0.30323  Biso   1.000  In
  In9      1.0000 0.88127  0.20391  0.30321  Biso   1.000  In
  O23      1.0000 0.82280  0.17780  0.33020  Biso   1.000  O
  O24      1.0000 0.79930  0.27640  0.35510  Biso   1.000  O
  O25      1.0000 0.85300  0.27240  0.29810  Biso   1.000  O
  O26      1.0000 0.72720  0.14760  0.29850  Biso   1.000  O
  O27      1.0000 0.78170  0.14650  0.42280  Biso   1.000  O
  O28      1.0000 0.78140  0.85210  0.57800  Biso   1.000  O
  O29      1.0000 0.72400  0.20010  0.35490  Biso   1.000  O
  O30      1.0000 0.64110  0.30490  0.73260  Biso   1.000  O
  N7       1.0000 0.75740  0.24240  0.44250  Biso   1.000  N
  O31      1.0000 0.69490  0.36000  0.73180  Biso   1.000  O
  O32      1.0000 0.78100  0.09100  0.37060  Biso   1.000  O
  O33      1.0000 0.77970  0.90930  0.62920  Biso   1.000  O
  C95      1.0000 0.77820  0.10460  0.41150  Biso   1.000  C
  N8       1.0000 0.73370  0.55400  0.22480  Biso   1.000  N
  C96      1.0000 0.80980  0.33830  0.30670  Biso   1.000  C
  C97      1.0000 0.82100  0.29200  0.32130  Biso   1.000  C
  C98      1.0000 0.66110  0.18980  0.30760  Biso   1.000  C
  C99      1.0000 0.70660  0.17680  0.32160  Biso   1.000  C
  C100     1.0000 0.57330  0.21780  0.27680  Biso   1.000  C
  N9       1.0000 0.44590  0.26680  0.22260  Biso   1.000  N
  C101     1.0000 0.77390  0.92940  0.55200  Biso   1.000  C
  C102     1.0000 0.77450  0.07150  0.44800  Biso   1.000  C
  C103     1.0000 0.75420  0.30000  0.50180  Biso   1.000  C
  C104     1.0000 0.70220  0.24270  0.50540  Biso   1.000  C
  C105     1.0000 0.71930  0.22380  0.46310  Biso   1.000  C
  C106     1.0000 0.63420  0.21790  0.33430  Biso   1.000  C
  C107     1.0000 0.67240  0.32650  0.71260  Biso   1.000  C
  C108     1.0000 0.78660  0.36990  0.33530  Biso   1.000  C
  C109     1.0000 0.58920  0.22820  0.32020  Biso   1.000  C
  C110     1.0000 0.77660  0.28110  0.46440  Biso   1.000  C
  C111     1.0000 0.77710  0.89390  0.58900  Biso   1.000  C
  C112     1.0000 0.70520  0.29490  0.57470  Biso   1.000  C
  C113     1.0000 0.78400  0.42680  0.27860  Biso   1.000  C
  C114     1.0000 0.71720  0.33860  0.64150  Biso   1.000  C
  C115     1.0000 0.68240  0.31830  0.66600  Biso   1.000  C
  C116     1.0000 0.77200  0.99460  0.47850  Biso   1.000  C
  C117     1.0000 0.72540  0.27700  0.52830  Biso   1.000  C
  C118     1.0000 0.66250  0.28340  0.64060  Biso   1.000  C
  C119     1.0000 0.77080  0.97380  0.55720  Biso   1.000  C
  C120     1.0000 0.77030  0.00680  0.52220  Biso   1.000  C
  C121     1.0000 0.77270  0.02590  0.44270  Biso   1.000  C
  C122     1.0000 0.77060  0.41070  0.31880  Biso   1.000  C
  C123     1.0000 0.64190  0.17490  0.26810  Biso   1.000  C
  C124     1.0000 0.82160  0.35350  0.26470  Biso   1.000  C
  C125     1.0000 0.66790  0.27310  0.59610  Biso   1.000  C
  C126     1.0000 0.72990  0.32790  0.59830  Biso   1.000  C
  C127     1.0000 0.75810  0.47280  0.26090  Biso   1.000  C
  C128     1.0000 0.81210  0.40050  0.25160  Biso   1.000  C
  C129     1.0000 0.77500  0.91300  0.50870  Biso   1.000  C
  C130     1.0000 0.59920  0.18910  0.25120  Biso   1.000  C
  C131     1.0000 0.75800  0.95500  0.46810  Biso   1.000  C
  C132     1.0000 0.77300  0.08910  0.49150  Biso   1.000  C
  C133     1.0000 0.77000  0.05040  0.53110  Biso   1.000  C
  C134     1.0000 0.53090  0.23820  0.25680  Biso   1.000  C
  C135     1.0000 0.47900  0.28440  0.20830  Biso   1.000  C
  C136     1.0000 0.48940  0.23380  0.27480  Biso   1.000  C
  C137     1.0000 0.76910  0.51140  0.27890  Biso   1.000  C
  C138     1.0000 0.44930  0.24300  0.25300  Biso   1.000  C
  C139     1.0000 0.72700  0.50400  0.21200  Biso   1.000  C
  C140     1.0000 0.74970  0.55340  0.25920  Biso   1.000  C
  C141     1.0000 0.52920  0.26900  0.21470  Biso   1.000  C
  In10     1.0000 0.29090  0.70911  0.88455  Biso   1.000  In
  In11     1.0000 0.29612  0.61862  0.80323  Biso   1.000  In
  In12     1.0000 0.38127  0.70391  0.80321  Biso   1.000  In
  O34      1.0000 0.32280  0.67780  0.83020  Biso   1.000  O
  O35      1.0000 0.29930  0.77640  0.85510  Biso   1.000  O
  O36      1.0000 0.35300  0.77240  0.79810  Biso   1.000  O
  O37      1.0000 0.22720  0.64760  0.79850  Biso   1.000  O
  O38      1.0000 0.28170  0.64650  0.92280  Biso   1.000  O
  O39      1.0000 0.28140  0.35210  0.07800  Biso   1.000  O
  O40      1.0000 0.22400  0.70010  0.85490  Biso   1.000  O
  O41      1.0000 0.14110  0.80490  0.23260  Biso   1.000  O
  N10      1.0000 0.25740  0.74240  0.94250  Biso   1.000  N
  O42      1.0000 0.19490  0.86000  0.23180  Biso   1.000  O
  O43      1.0000 0.28100  0.59100  0.87060  Biso   1.000  O
  O44      1.0000 0.27970  0.40930  0.12920  Biso   1.000  O
  C142     1.0000 0.27820  0.60460  0.91150  Biso   1.000  C
  N11      1.0000 0.23370  0.05400  0.72480  Biso   1.000  N
  C143     1.0000 0.30980  0.83830  0.80670  Biso   1.000  C
  C144     1.0000 0.32100  0.79200  0.82130  Biso   1.000  C
  C145     1.0000 0.16110  0.68980  0.80760  Biso   1.000  C
  C146     1.0000 0.20660  0.67680  0.82160  Biso   1.000  C
  C147     1.0000 0.07330  0.71780  0.77680  Biso   1.000  C
  N12      1.0000 0.94590  0.76680  0.72260  Biso   1.000  N
  C148     1.0000 0.27390  0.42940  0.05200  Biso   1.000  C
  C149     1.0000 0.27450  0.57150  0.94800  Biso   1.000  C
  C150     1.0000 0.25420  0.80000  0.00180  Biso   1.000  C
  C151     1.0000 0.20220  0.74270  0.00540  Biso   1.000  C
  C152     1.0000 0.21930  0.72380  0.96310  Biso   1.000  C
  C153     1.0000 0.13420  0.71790  0.83430  Biso   1.000  C
  C154     1.0000 0.17240  0.82650  0.21260  Biso   1.000  C
  C155     1.0000 0.28660  0.86990  0.83530  Biso   1.000  C
  C156     1.0000 0.08920  0.72820  0.82020  Biso   1.000  C
  C157     1.0000 0.27660  0.78110  0.96440  Biso   1.000  C
  C158     1.0000 0.27710  0.39390  0.08900  Biso   1.000  C
  C159     1.0000 0.20520  0.79490  0.07470  Biso   1.000  C
  C160     1.0000 0.28400  0.92680  0.77860  Biso   1.000  C
  C161     1.0000 0.21720  0.83860  0.14150  Biso   1.000  C
  C162     1.0000 0.18240  0.81830  0.16600  Biso   1.000  C
  C163     1.0000 0.27200  0.49460  0.97850  Biso   1.000  C
  C164     1.0000 0.22540  0.77700  0.02830  Biso   1.000  C
  C165     1.0000 0.16250  0.78340  0.14060  Biso   1.000  C
  C166     1.0000 0.27080  0.47380  0.05720  Biso   1.000  C
  C167     1.0000 0.27030  0.50680  0.02220  Biso   1.000  C
  C168     1.0000 0.27270  0.52590  0.94270  Biso   1.000  C
  C169     1.0000 0.27060  0.91070  0.81880  Biso   1.000  C
  C170     1.0000 0.14190  0.67490  0.76810  Biso   1.000  C
  C171     1.0000 0.32160  0.85350  0.76470  Biso   1.000  C
  C172     1.0000 0.16790  0.77310  0.09610  Biso   1.000  C
  C173     1.0000 0.22990  0.82790  0.09830  Biso   1.000  C
  C174     1.0000 0.25810  0.97280  0.76090  Biso   1.000  C
  C175     1.0000 0.31210  0.90050  0.75160  Biso   1.000  C
  C176     1.0000 0.27500  0.41300  0.00870  Biso   1.000  C
  C177     1.0000 0.09920  0.68910  0.75120  Biso   1.000  C
  C178     1.0000 0.25800  0.45500  0.96810  Biso   1.000  C
  C179     1.0000 0.27300  0.58910  0.99150  Biso   1.000  C
  C180     1.0000 0.27000  0.55040  0.03110  Biso   1.000  C
  C181     1.0000 0.03090  0.73820  0.75680  Biso   1.000  C
  C182     1.0000 0.97900  0.78440  0.70830  Biso   1.000  C
  C183     1.0000 0.98940  0.73380  0.77480  Biso   1.000  C
  C184     1.0000 0.26910  0.01140  0.77890  Biso   1.000  C
  C185     1.0000 0.94930  0.74300  0.75300  Biso   1.000  C
  C186     1.0000 0.22700  0.00400  0.71200  Biso   1.000  C
  C187     1.0000 0.24970  0.05340  0.75920  Biso   1.000  C
  C188     1.0000 0.02920  0.76900  0.71470  Biso   1.000  C
  In13     1.0000 0.79089  0.79090  0.61545  Biso   1.000  In
  In14     1.0000 0.88138  0.79612  0.69677  Biso   1.000  In
  In15     1.0000 0.79609  0.88127  0.69679  Biso   1.000  In
  O45      1.0000 0.82220  0.82280  0.66980  Biso   1.000  O
  O46      1.0000 0.72360  0.79930  0.64490  Biso   1.000  O
  O47      1.0000 0.72760  0.85300  0.70190  Biso   1.000  O
  O48      1.0000 0.85240  0.72720  0.70150  Biso   1.000  O
  O49      1.0000 0.85350  0.78170  0.57720  Biso   1.000  O
  O50      1.0000 0.14790  0.78140  0.42200  Biso   1.000  O
  O51      1.0000 0.79990  0.72400  0.64510  Biso   1.000  O
  O52      1.0000 0.69510  0.64110  0.26740  Biso   1.000  O
  N13      1.0000 0.75760  0.75740  0.55750  Biso   1.000  N
  O53      1.0000 0.64000  0.69490  0.26820  Biso   1.000  O
  O54      1.0000 0.90900  0.78100  0.62940  Biso   1.000  O
  O55      1.0000 0.09070  0.77970  0.37080  Biso   1.000  O
  C189     1.0000 0.89540  0.77820  0.58850  Biso   1.000  C
  N14      1.0000 0.44600  0.73370  0.77520  Biso   1.000  N
  C190     1.0000 0.66170  0.80980  0.69330  Biso   1.000  C
  C191     1.0000 0.70800  0.82100  0.67870  Biso   1.000  C
  C192     1.0000 0.81020  0.66110  0.69240  Biso   1.000  C
  C193     1.0000 0.82320  0.70660  0.67840  Biso   1.000  C
  C194     1.0000 0.78220  0.57330  0.72320  Biso   1.000  C
  N15      1.0000 0.73320  0.44590  0.77740  Biso   1.000  N
  C195     1.0000 0.07060  0.77390  0.44800  Biso   1.000  C
  C196     1.0000 0.92850  0.77450  0.55200  Biso   1.000  C
  C197     1.0000 0.70000  0.75420  0.49820  Biso   1.000  C
  C198     1.0000 0.75730  0.70220  0.49460  Biso   1.000  C
  C199     1.0000 0.77620  0.71930  0.53690  Biso   1.000  C
  C200     1.0000 0.78210  0.63420  0.66570  Biso   1.000  C
  C201     1.0000 0.67350  0.67240  0.28740  Biso   1.000  C
  C202     1.0000 0.63010  0.78660  0.66470  Biso   1.000  C
  C203     1.0000 0.77180  0.58920  0.67980  Biso   1.000  C
  C204     1.0000 0.71890  0.77660  0.53560  Biso   1.000  C
  C205     1.0000 0.10610  0.77710  0.41100  Biso   1.000  C
  C206     1.0000 0.70510  0.70520  0.42530  Biso   1.000  C
  C207     1.0000 0.57320  0.78400  0.72140  Biso   1.000  C
  C208     1.0000 0.66140  0.71720  0.35850  Biso   1.000  C
  C209     1.0000 0.68170  0.68240  0.33400  Biso   1.000  C
  C210     1.0000 0.00540  0.77200  0.52150  Biso   1.000  C
  C211     1.0000 0.72300  0.72540  0.47170  Biso   1.000  C
  C212     1.0000 0.71660  0.66250  0.35940  Biso   1.000  C
  C213     1.0000 0.02620  0.77080  0.44280  Biso   1.000  C
  C214     1.0000 0.99320  0.77030  0.47780  Biso   1.000  C
  C215     1.0000 0.97410  0.77270  0.55730  Biso   1.000  C
  C216     1.0000 0.58930  0.77060  0.68120  Biso   1.000  C
  C217     1.0000 0.82510  0.64190  0.73190  Biso   1.000  C
  C218     1.0000 0.64650  0.82160  0.73530  Biso   1.000  C
  C219     1.0000 0.72690  0.66790  0.40390  Biso   1.000  C
  C220     1.0000 0.67210  0.72990  0.40170  Biso   1.000  C
  C221     1.0000 0.52720  0.75810  0.73910  Biso   1.000  C
  C222     1.0000 0.59950  0.81210  0.74840  Biso   1.000  C
  C223     1.0000 0.08700  0.77500  0.49130  Biso   1.000  C
  C224     1.0000 0.81090  0.59920  0.74880  Biso   1.000  C
  C225     1.0000 0.04500  0.75800  0.53190  Biso   1.000  C
  C226     1.0000 0.91090  0.77300  0.50850  Biso   1.000  C
  C227     1.0000 0.94960  0.77000  0.46890  Biso   1.000  C
  C228     1.0000 0.76180  0.53090  0.74320  Biso   1.000  C
  C229     1.0000 0.71560  0.47900  0.79170  Biso   1.000  C
  C230     1.0000 0.76620  0.48940  0.72520  Biso   1.000  C
  C231     1.0000 0.48860  0.76910  0.72110  Biso   1.000  C
  C232     1.0000 0.75700  0.44930  0.74700  Biso   1.000  C
  C233     1.0000 0.49600  0.72700  0.78800  Biso   1.000  C
  C234     1.0000 0.44660  0.74970  0.74080  Biso   1.000  C
  C235     1.0000 0.73100  0.52920  0.78530  Biso   1.000  C
  In16     1.0000 0.29089  0.29090  0.11545  Biso   1.000  In
  In17     1.0000 0.38138  0.29612  0.19677  Biso   1.000  In
  In18     1.0000 0.29609  0.38127  0.19679  Biso   1.000  In
  O56      1.0000 0.32220  0.32280  0.16980  Biso   1.000  O
  O57      1.0000 0.22360  0.29930  0.14490  Biso   1.000  O
  O58      1.0000 0.22760  0.35300  0.20190  Biso   1.000  O
  O59      1.0000 0.35240  0.22720  0.20150  Biso   1.000  O
  O60      1.0000 0.35350  0.28170  0.07720  Biso   1.000  O
  O61      1.0000 0.64790  0.28140  0.92200  Biso   1.000  O
  O62      1.0000 0.29990  0.22400  0.14510  Biso   1.000  O
  O63      1.0000 0.19510  0.14110  0.76740  Biso   1.000  O
  N16      1.0000 0.25760  0.25740  0.05750  Biso   1.000  N
  O64      1.0000 0.14000  0.19490  0.76820  Biso   1.000  O
  O65      1.0000 0.40900  0.28100  0.12940  Biso   1.000  O
  O66      1.0000 0.59070  0.27970  0.87080  Biso   1.000  O
  C236     1.0000 0.39540  0.27820  0.08850  Biso   1.000  C
  N17      1.0000 0.94600  0.23370  0.27520  Biso   1.000  N
  C237     1.0000 0.16170  0.30980  0.19330  Biso   1.000  C
  C238     1.0000 0.20800  0.32100  0.17870  Biso   1.000  C
  C239     1.0000 0.31020  0.16110  0.19240  Biso   1.000  C
  C240     1.0000 0.32320  0.20660  0.17840  Biso   1.000  C
  C241     1.0000 0.28220  0.07330  0.22320  Biso   1.000  C
  N18      1.0000 0.23320  0.94590  0.27740  Biso   1.000  N
  C242     1.0000 0.57060  0.27390  0.94800  Biso   1.000  C
  C243     1.0000 0.42850  0.27450  0.05200  Biso   1.000  C
  C244     1.0000 0.20000  0.25420  0.99820  Biso   1.000  C
  C245     1.0000 0.25730  0.20220  0.99460  Biso   1.000  C
  C246     1.0000 0.27620  0.21930  0.03690  Biso   1.000  C
  C247     1.0000 0.28210  0.13420  0.16570  Biso   1.000  C
  C248     1.0000 0.17350  0.17240  0.78740  Biso   1.000  C
  C249     1.0000 0.13010  0.28660  0.16470  Biso   1.000  C
  C250     1.0000 0.27180  0.08920  0.17980  Biso   1.000  C
  C251     1.0000 0.21890  0.27660  0.03560  Biso   1.000  C
  C252     1.0000 0.60610  0.27710  0.91100  Biso   1.000  C
  C253     1.0000 0.20510  0.20520  0.92530  Biso   1.000  C
  C254     1.0000 0.07320  0.28400  0.22140  Biso   1.000  C
  C255     1.0000 0.16140  0.21720  0.85850  Biso   1.000  C
  C256     1.0000 0.18170  0.18240  0.83400  Biso   1.000  C
  C257     1.0000 0.50540  0.27200  0.02150  Biso   1.000  C
  C258     1.0000 0.22300  0.22540  0.97170  Biso   1.000  C
  C259     1.0000 0.21660  0.16250  0.85940  Biso   1.000  C
  C260     1.0000 0.52620  0.27080  0.94280  Biso   1.000  C
  C261     1.0000 0.49320  0.27030  0.97780  Biso   1.000  C
  C262     1.0000 0.47410  0.27270  0.05730  Biso   1.000  C
  C263     1.0000 0.08930  0.27060  0.18120  Biso   1.000  C
  C264     1.0000 0.32510  0.14190  0.23190  Biso   1.000  C
  C265     1.0000 0.14650  0.32160  0.23530  Biso   1.000  C
  C266     1.0000 0.22690  0.16790  0.90390  Biso   1.000  C
  C267     1.0000 0.17210  0.22990  0.90170  Biso   1.000  C
  C268     1.0000 0.02720  0.25810  0.23910  Biso   1.000  C
  C269     1.0000 0.09950  0.31210  0.24840  Biso   1.000  C
  C270     1.0000 0.58700  0.27500  0.99130  Biso   1.000  C
  C271     1.0000 0.31090  0.09920  0.24880  Biso   1.000  C
  C272     1.0000 0.54500  0.25800  0.03190  Biso   1.000  C
  C273     1.0000 0.41090  0.27300  0.00850  Biso   1.000  C
  C274     1.0000 0.44960  0.27000  0.96890  Biso   1.000  C
  C275     1.0000 0.26180  0.03090  0.24320  Biso   1.000  C
  C276     1.0000 0.21560  0.97900  0.29170  Biso   1.000  C
  C277     1.0000 0.26620  0.98940  0.22520  Biso   1.000  C
  C278     1.0000 0.98860  0.26910  0.22110  Biso   1.000  C
  C279     1.0000 0.25700  0.94930  0.24700  Biso   1.000  C
  C280     1.0000 0.99600  0.22700  0.28800  Biso   1.000  C
  C281     1.0000 0.94660  0.24970  0.24080  Biso   1.000  C
  C282     1.0000 0.23100  0.02920  0.28530  Biso   1.000  C
  In19     1.0000 0.20911  0.20910  0.61545  Biso   1.000  In
  In20     1.0000 0.11862  0.20388  0.69677  Biso   1.000  In
  In21     1.0000 0.20391  0.11873  0.69679  Biso   1.000  In
  O67      1.0000 0.17780  0.17720  0.66980  Biso   1.000  O
  O68      1.0000 0.27640  0.20070  0.64490  Biso   1.000  O
  O69      1.0000 0.27240  0.14700  0.70190  Biso   1.000  O
  O70      1.0000 0.14760  0.27280  0.70150  Biso   1.000  O
  O71      1.0000 0.14650  0.21830  0.57720  Biso   1.000  O
  O72      1.0000 0.85210  0.21860  0.42200  Biso   1.000  O
  O73      1.0000 0.20010  0.27600  0.64510  Biso   1.000  O
  O74      1.0000 0.30490  0.35890  0.26740  Biso   1.000  O
  N19      1.0000 0.24240  0.24260  0.55750  Biso   1.000  N
  O75      1.0000 0.36000  0.30510  0.26820  Biso   1.000  O
  O76      1.0000 0.09100  0.21900  0.62940  Biso   1.000  O
  O77      1.0000 0.90930  0.22030  0.37080  Biso   1.000  O
  C283     1.0000 0.10460  0.22180  0.58850  Biso   1.000  C
  N20      1.0000 0.55400  0.26630  0.77520  Biso   1.000  N
  C284     1.0000 0.33830  0.19020  0.69330  Biso   1.000  C
  C285     1.0000 0.29200  0.17900  0.67870  Biso   1.000  C
  C286     1.0000 0.18980  0.33890  0.69240  Biso   1.000  C
  C287     1.0000 0.17680  0.29340  0.67840  Biso   1.000  C
  C288     1.0000 0.21780  0.42670  0.72320  Biso   1.000  C
  N21      1.0000 0.26680  0.55410  0.77740  Biso   1.000  N
  C289     1.0000 0.92940  0.22610  0.44800  Biso   1.000  C
  C290     1.0000 0.07150  0.22550  0.55200  Biso   1.000  C
  C291     1.0000 0.30000  0.24580  0.49820  Biso   1.000  C
  C292     1.0000 0.24270  0.29780  0.49460  Biso   1.000  C
  C293     1.0000 0.22380  0.28070  0.53690  Biso   1.000  C
  C294     1.0000 0.21790  0.36580  0.66570  Biso   1.000  C
  C295     1.0000 0.32650  0.32760  0.28740  Biso   1.000  C
  C296     1.0000 0.36990  0.21340  0.66470  Biso   1.000  C
  C297     1.0000 0.22820  0.41080  0.67980  Biso   1.000  C
  C298     1.0000 0.28110  0.22340  0.53560  Biso   1.000  C
  C299     1.0000 0.89390  0.22290  0.41100  Biso   1.000  C
  C300     1.0000 0.29490  0.29480  0.42530  Biso   1.000  C
  C301     1.0000 0.42680  0.21600  0.72140  Biso   1.000  C
  C302     1.0000 0.33860  0.28280  0.35850  Biso   1.000  C
  C303     1.0000 0.31830  0.31760  0.33400  Biso   1.000  C
  C304     1.0000 0.99460  0.22800  0.52150  Biso   1.000  C
  C305     1.0000 0.27700  0.27460  0.47170  Biso   1.000  C
  C306     1.0000 0.28340  0.33750  0.35940  Biso   1.000  C
  C307     1.0000 0.97380  0.22920  0.44280  Biso   1.000  C
  C308     1.0000 0.00680  0.22970  0.47780  Biso   1.000  C
  C309     1.0000 0.02590  0.22730  0.55730  Biso   1.000  C
  C310     1.0000 0.41070  0.22940  0.68120  Biso   1.000  C
  C311     1.0000 0.17490  0.35810  0.73190  Biso   1.000  C
  C312     1.0000 0.35350  0.17840  0.73530  Biso   1.000  C
  C313     1.0000 0.27310  0.33210  0.40390  Biso   1.000  C
  C314     1.0000 0.32790  0.27010  0.40170  Biso   1.000  C
  C315     1.0000 0.47280  0.24190  0.73910  Biso   1.000  C
  C316     1.0000 0.40050  0.18790  0.74840  Biso   1.000  C
  C317     1.0000 0.91300  0.22500  0.49130  Biso   1.000  C
  C318     1.0000 0.18910  0.40080  0.74880  Biso   1.000  C
  C319     1.0000 0.95500  0.24200  0.53190  Biso   1.000  C
  C320     1.0000 0.08910  0.22700  0.50850  Biso   1.000  C
  C321     1.0000 0.05040  0.23000  0.46890  Biso   1.000  C
  C322     1.0000 0.23820  0.46910  0.74320  Biso   1.000  C
  C323     1.0000 0.28440  0.52100  0.79170  Biso   1.000  C
  C324     1.0000 0.23380  0.51060  0.72520  Biso   1.000  C
  C325     1.0000 0.51140  0.23090  0.72110  Biso   1.000  C
  C326     1.0000 0.24300  0.55070  0.74700  Biso   1.000  C
  C327     1.0000 0.50400  0.27300  0.78800  Biso   1.000  C
  C328     1.0000 0.55340  0.25030  0.74080  Biso   1.000  C
  C329     1.0000 0.26900  0.47080  0.78530  Biso   1.000  C
  In22     1.0000 0.70911  0.70910  0.11545  Biso   1.000  In
  In23     1.0000 0.61862  0.70388  0.19677  Biso   1.000  In
  In24     1.0000 0.70391  0.61873  0.19679  Biso   1.000  In
  O78      1.0000 0.67780  0.67720  0.16980  Biso   1.000  O
  O79      1.0000 0.77640  0.70070  0.14490  Biso   1.000  O
  O80      1.0000 0.77240  0.64700  0.20190  Biso   1.000  O
  O81      1.0000 0.64760  0.77280  0.20150  Biso   1.000  O
  O82      1.0000 0.64650  0.71830  0.07720  Biso   1.000  O
  O83      1.0000 0.35210  0.71860  0.92200  Biso   1.000  O
  O84      1.0000 0.70010  0.77600  0.14510  Biso   1.000  O
  O85      1.0000 0.80490  0.85890  0.76740  Biso   1.000  O
  N22      1.0000 0.74240  0.74260  0.05750  Biso   1.000  N
  O86      1.0000 0.86000  0.80510  0.76820  Biso   1.000  O
  O87      1.0000 0.59100  0.71900  0.12940  Biso   1.000  O
  O88      1.0000 0.40930  0.72030  0.87080  Biso   1.000  O
  C330     1.0000 0.60460  0.72180  0.08850  Biso   1.000  C
  N23      1.0000 0.05400  0.76630  0.27520  Biso   1.000  N
  C331     1.0000 0.83830  0.69020  0.19330  Biso   1.000  C
  C332     1.0000 0.79200  0.67900  0.17870  Biso   1.000  C
  C333     1.0000 0.68980  0.83890  0.19240  Biso   1.000  C
  C334     1.0000 0.67680  0.79340  0.17840  Biso   1.000  C
  C335     1.0000 0.71780  0.92670  0.22320  Biso   1.000  C
  N24      1.0000 0.76680  0.05410  0.27740  Biso   1.000  N
  C336     1.0000 0.42940  0.72610  0.94800  Biso   1.000  C
  C337     1.0000 0.57150  0.72550  0.05200  Biso   1.000  C
  C338     1.0000 0.80000  0.74580  0.99820  Biso   1.000  C
  C339     1.0000 0.74270  0.79780  0.99460  Biso   1.000  C
  C340     1.0000 0.72380  0.78070  0.03690  Biso   1.000  C
  C341     1.0000 0.71790  0.86580  0.16570  Biso   1.000  C
  C342     1.0000 0.82650  0.82760  0.78740  Biso   1.000  C
  C343     1.0000 0.86990  0.71340  0.16470  Biso   1.000  C
  C344     1.0000 0.72820  0.91080  0.17980  Biso   1.000  C
  C345     1.0000 0.78110  0.72340  0.03560  Biso   1.000  C
  C346     1.0000 0.39390  0.72290  0.91100  Biso   1.000  C
  C347     1.0000 0.79490  0.79480  0.92530  Biso   1.000  C
  C348     1.0000 0.92680  0.71600  0.22140  Biso   1.000  C
  C349     1.0000 0.83860  0.78280  0.85850  Biso   1.000  C
  C350     1.0000 0.81830  0.81760  0.83400  Biso   1.000  C
  C351     1.0000 0.49460  0.72800  0.02150  Biso   1.000  C
  C352     1.0000 0.77700  0.77460  0.97170  Biso   1.000  C
  C353     1.0000 0.78340  0.83750  0.85940  Biso   1.000  C
  C354     1.0000 0.47380  0.72920  0.94280  Biso   1.000  C
  C355     1.0000 0.50680  0.72970  0.97780  Biso   1.000  C
  C356     1.0000 0.52590  0.72730  0.05730  Biso   1.000  C
  C357     1.0000 0.91070  0.72940  0.18120  Biso   1.000  C
  C358     1.0000 0.67490  0.85810  0.23190  Biso   1.000  C
  C359     1.0000 0.85350  0.67840  0.23530  Biso   1.000  C
  C360     1.0000 0.77310  0.83210  0.90390  Biso   1.000  C
  C361     1.0000 0.82790  0.77010  0.90170  Biso   1.000  C
  C362     1.0000 0.97280  0.74190  0.23910  Biso   1.000  C
  C363     1.0000 0.90050  0.68790  0.24840  Biso   1.000  C
  C364     1.0000 0.41300  0.72500  0.99130  Biso   1.000  C
  C365     1.0000 0.68910  0.90080  0.24880  Biso   1.000  C
  C366     1.0000 0.45500  0.74200  0.03190  Biso   1.000  C
  C367     1.0000 0.58910  0.72700  0.00850  Biso   1.000  C
  C368     1.0000 0.55040  0.73000  0.96890  Biso   1.000  C
  C369     1.0000 0.73820  0.96910  0.24320  Biso   1.000  C
  C370     1.0000 0.78440  0.02100  0.29170  Biso   1.000  C
  C371     1.0000 0.73380  0.01060  0.22520  Biso   1.000  C
  C372     1.0000 0.01140  0.73090  0.22110  Biso   1.000  C
  C373     1.0000 0.74300  0.05070  0.24700  Biso   1.000  C
  C374     1.0000 0.00400  0.77300  0.28800  Biso   1.000  C
  C375     1.0000 0.05340  0.75030  0.24080  Biso   1.000  C
  C376     1.0000 0.76900  0.97080  0.28530  Biso   1.000  C
