data_image0
_cell_length_a       10.2492
_cell_length_b       11.0716
_cell_length_c       12.8991
_cell_angle_alpha    92.518
_cell_angle_beta     95.255
_cell_angle_gamma    107.331

_symmetry_space_group_name_H-M    "P 1"
_symmetry_int_tables_number       1

loop_
  _symmetry_equiv_pos_as_xyz
  'x, y, z'

loop_
  _atom_site_label
  _atom_site_occupancy
  _atom_site_fract_x
  _atom_site_fract_y
  _atom_site_fract_z
  _atom_site_thermal_displace_type
  _atom_site_B_iso_or_equiv
  _atom_site_type_symbol
  Zn1      1.0000 0.61550  0.84909  0.66980  Biso   1.000  Zn
  Zn2      1.0000 0.97877  0.71857  0.98951  Biso   1.000  Zn
  Zn3      1.0000 0.38259  0.64828  0.32538  Biso   1.000  Zn
  Zn4      1.0000 0.92425  0.55982  0.41275  Biso   1.000  Zn
  Zn5      1.0000 0.08008  0.94119  0.58357  Biso   1.000  Zn
  P1       1.0000 0.84357  0.91635  0.87777  Biso   1.000  P
  P2       1.0000 0.15804  0.56979  0.11577  Biso   1.000  P
  P3       1.0000 0.77677  0.77120  0.47915  Biso   1.000  P
  P4       1.0000 0.22315  0.72693  0.51800  Biso   1.000  P
  O1       1.0000 0.72220  0.84380  0.80256  Biso   1.000  O
  O2       1.0000 0.83060  0.04710  0.91790  Biso   1.000  O
  H1       1.0000 0.75120  0.04780  0.90410  Biso   1.000  H
  O3       1.0000 0.86980  0.84440  0.97023  Biso   1.000  O
  O4       1.0000 0.98560  0.01960  0.71886  Biso   1.000  O
  H2       1.0000 0.00340  0.09600  0.73350  Biso   1.000  H
  O5       1.0000 0.06400  0.77170  0.85310  Biso   1.000  O
  O6       1.0000 0.03490  0.80690  0.68765  Biso   1.000  O
  O7       1.0000 0.13300  0.64540  0.02454  Biso   1.000  O
  O8       1.0000 0.28400  0.64430  0.18836  Biso   1.000  O
  O9       1.0000 0.16720  0.43950  0.07985  Biso   1.000  O
  O10      1.0000 0.02110  0.48280  0.28328  Biso   1.000  O
  H3       1.0000 0.00350  0.40600  0.27090  Biso   1.000  H
  O11      1.0000 0.97050  0.69580  0.30860  Biso   1.000  O
  O12      1.0000 0.94450  0.72750  0.14248  Biso   1.000  O
  O13      1.0000 0.82210  0.65420  0.49520  Biso   1.000  O
  O14      1.0000 0.89810  0.89350  0.48664  Biso   1.000  O
  O15      1.0000 0.66730  0.77850  0.54735  Biso   1.000  O
  O16      1.0000 0.58490  0.63870  0.32660  Biso   1.000  O
  H4       1.0000 0.58880  0.60280  0.27050  Biso   1.000  H
  O17      1.0000 0.71780  0.97330  0.32551  Biso   1.000  O
  O18      1.0000 0.50730  0.83650  0.30527  Biso   1.000  O
  O19      1.0000 0.10180  0.60580  0.51359  Biso   1.000  O
  O20      1.0000 0.17910  0.84440  0.50080  Biso   1.000  O
  O21      1.0000 0.33090  0.71650  0.44960  Biso   1.000  O
  O22      1.0000 0.41630  0.85990  0.67140  Biso   1.000  O
  H5       1.0000 0.38600  0.92050  0.67390  Biso   1.000  H
  O23      1.0000 0.27690  0.52760  0.68005  Biso   1.000  O
  O24      1.0000 0.48870  0.66140  0.69856  Biso   1.000  O
  C1       1.0000 0.00000  0.95740  0.81190  Biso   1.000  C
  H6       1.0000 0.07570  0.01350  0.85980  Biso   1.000  H
  C2       1.0000 0.03580  0.83710  0.78250  Biso   1.000  C
  C3       1.0000 0.00520  0.54090  0.18770  Biso   1.000  C
  H7       1.0000 0.92660  0.48360  0.14320  Biso   1.000  H
  C4       1.0000 0.97130  0.66300  0.21430  Biso   1.000  C
  C5       1.0000 0.69500  0.75470  0.34380  Biso   1.000  C
  H8       1.0000 0.76320  0.75470  0.29530  Biso   1.000  H
  C6       1.0000 0.63550  0.86280  0.32340  Biso   1.000  C
  C7       1.0000 0.30460  0.74480  0.65320  Biso   1.000  C
  H9       1.0000 0.23600  0.74750  0.70060  Biso   1.000  H
  C8       1.0000 0.36050  0.63670  0.67850  Biso   1.000  C
  Zn6      1.0000 0.38450  0.15091  0.33020  Biso   1.000  Zn
  Zn7      1.0000 0.02123  0.28143  0.01049  Biso   1.000  Zn
  Zn8      1.0000 0.61741  0.35172  0.67462  Biso   1.000  Zn
  Zn9      1.0000 0.07575  0.44018  0.58725  Biso   1.000  Zn
  Zn10     1.0000 0.91992  0.05881  0.41643  Biso   1.000  Zn
  P5       1.0000 0.15643  0.08365  0.12223  Biso   1.000  P
  P6       1.0000 0.84196  0.43021  0.88423  Biso   1.000  P
  P7       1.0000 0.22323  0.22880  0.52085  Biso   1.000  P
  P8       1.0000 0.77685  0.27307  0.48200  Biso   1.000  P
  O25      1.0000 0.27780  0.15620  0.19744  Biso   1.000  O
  O26      1.0000 0.16940  0.95290  0.08210  Biso   1.000  O
  H10      1.0000 0.24880  0.95220  0.09590  Biso   1.000  H
  O27      1.0000 0.13020  0.15560  0.02977  Biso   1.000  O
  O28      1.0000 0.01440  0.98040  0.28114  Biso   1.000  O
  H11      1.0000 0.99660  0.90400  0.26650  Biso   1.000  H
  O29      1.0000 0.93600  0.22830  0.14690  Biso   1.000  O
  O30      1.0000 0.96510  0.19310  0.31235  Biso   1.000  O
  O31      1.0000 0.86700  0.35460  0.97546  Biso   1.000  O
  O32      1.0000 0.71600  0.35570  0.81164  Biso   1.000  O
  O33      1.0000 0.83280  0.56050  0.92015  Biso   1.000  O
  O34      1.0000 0.97890  0.51720  0.71672  Biso   1.000  O
  H12      1.0000 0.99650  0.59400  0.72910  Biso   1.000  H
  O35      1.0000 0.02950  0.30420  0.69140  Biso   1.000  O
  O36      1.0000 0.05550  0.27250  0.85752  Biso   1.000  O
  O37      1.0000 0.17790  0.34580  0.50480  Biso   1.000  O
  O38      1.0000 0.10190  0.10650  0.51336  Biso   1.000  O
  O39      1.0000 0.33270  0.22150  0.45265  Biso   1.000  O
  O40      1.0000 0.41510  0.36130  0.67340  Biso   1.000  O
  H13      1.0000 0.41120  0.39720  0.72950  Biso   1.000  H
  O41      1.0000 0.28220  0.02670  0.67449  Biso   1.000  O
  O42      1.0000 0.49270  0.16350  0.69473  Biso   1.000  O
  O43      1.0000 0.89820  0.39420  0.48641  Biso   1.000  O
  O44      1.0000 0.82090  0.15560  0.49920  Biso   1.000  O
  O45      1.0000 0.66910  0.28350  0.55040  Biso   1.000  O
  O46      1.0000 0.58370  0.14010  0.32860  Biso   1.000  O
  H14      1.0000 0.61400  0.07950  0.32610  Biso   1.000  H
  O47      1.0000 0.72310  0.47240  0.31995  Biso   1.000  O
  O48      1.0000 0.51130  0.33860  0.30144  Biso   1.000  O
  C9       1.0000 0.00000  0.04260  0.18810  Biso   1.000  C
  H15      1.0000 0.92430  0.98650  0.14020  Biso   1.000  H
  C10      1.0000 0.96420  0.16290  0.21750  Biso   1.000  C
  C11      1.0000 0.99480  0.45910  0.81230  Biso   1.000  C
  H16      1.0000 0.07340  0.51640  0.85680  Biso   1.000  H
  C12      1.0000 0.02870  0.33700  0.78570  Biso   1.000  C
  C13      1.0000 0.30500  0.24530  0.65620  Biso   1.000  C
  H17      1.0000 0.23680  0.24530  0.70470  Biso   1.000  H
  C14      1.0000 0.36450  0.13720  0.67660  Biso   1.000  C
  C15      1.0000 0.69540  0.25520  0.34680  Biso   1.000  C
  H18      1.0000 0.76400  0.25250  0.29940  Biso   1.000  H
  C16      1.0000 0.63950  0.36330  0.32150  Biso   1.000  C
