data_image0
_cell_length_a       20.7929
_cell_length_b       12.4871
_cell_length_c       19.5025
_cell_angle_alpha    90
_cell_angle_beta     97.329
_cell_angle_gamma    90

_symmetry_space_group_name_H-M    "P 1"
_symmetry_int_tables_number       1

loop_
  _symmetry_equiv_pos_as_xyz
  'x, y, z'

loop_
  _atom_site_label
  _atom_site_occupancy
  _atom_site_fract_x
  _atom_site_fract_y
  _atom_site_fract_z
  _atom_site_thermal_displace_type
  _atom_site_B_iso_or_equiv
  _atom_site_type_symbol
  Cu1      1.0000 0.30278  0.23703  0.18793  Biso   1.000  Cu
  Cu2      1.0000 0.39069  0.37236  0.14997  Biso   1.000  Cu
  Cu3      1.0000 0.51996  0.83561  0.43707  Biso   1.000  Cu
  O1       1.0000 0.46110  0.71770  0.40950  Biso   1.000  O
  O2       1.0000 0.05670  0.43320  0.57920  Biso   1.000  O
  O3       1.0000 0.45310  0.26880  0.19550  Biso   1.000  O
  O4       1.0000 0.37700  0.43620  0.24080  Biso   1.000  O
  O5       1.0000 0.30900  0.31500  0.27480  Biso   1.000  O
  O6       1.0000 0.07790  0.45170  0.46950  Biso   1.000  O
  N1       1.0000 0.55610  0.82780  0.34100  Biso   1.000  N
  O7       1.0000 0.41918  0.73150  0.51020  Biso   1.000  O
  O8       1.0000 0.61821  0.27810  0.93230  Biso   1.000  O
  O9       1.0000 0.81770  0.95880  0.10800  Biso   1.000  O
  O10      1.0000 0.37960  0.14940  0.22160  Biso   1.000  O
  O11      1.0000 0.74380  0.85070  0.14880  Biso   1.000  O
  N2       1.0000 0.19270  0.55940  0.51240  Biso   1.000  N
  O12      1.0000 0.69870  0.17340  0.90300  Biso   1.000  O
  O13      1.0000 0.21940  0.38380  0.50640  Biso   1.000  O
  N3       1.0000 0.54560  0.10720  0.20400  Biso   1.000  N
  C1       1.0000 0.43680  0.17940  0.21600  Biso   1.000  C
  C2       1.0000 0.65660  0.13500  0.00770  Biso   1.000  C
  N4       1.0000 0.46850  0.46350  0.11610  Biso   1.000  N
  C3       1.0000 0.42090  0.69120  0.45060  Biso   1.000  C
  C4       1.0000 0.28600  0.44340  0.38740  Biso   1.000  C
  H1       1.0000 0.25830  0.38570  0.37630  Biso   1.000  H
  C5       1.0000 0.60060  0.08070  0.10300  Biso   1.000  C
  C6       1.0000 0.08910  0.46830  0.53450  Biso   1.000  C
  C7       1.0000 0.60250  0.14170  0.04290  Biso   1.000  C
  H2       1.0000 0.56800  0.18610  0.02670  Biso   1.000  H
  C8       1.0000 0.54100  0.08130  0.13840  Biso   1.000  C
  C9       1.0000 0.65640  0.20110  0.94330  Biso   1.000  C
  O14      1.0000 0.48710  0.05450  0.10570  Biso   1.000  O
  C10      1.0000 0.49010  0.10140  0.24340  Biso   1.000  C
  H3       1.0000 0.47290  0.02830  0.24210  Biso   1.000  H
  C11      1.0000 0.27820  0.50620  0.44490  Biso   1.000  C
  C12      1.0000 0.32210  0.58560  0.46360  Biso   1.000  C
  H4       1.0000 0.31760  0.62720  0.50230  Biso   1.000  H
  C13      1.0000 0.37880  0.54820  0.36670  Biso   1.000  C
  H5       1.0000 0.41150  0.56390  0.33990  Biso   1.000  H
  C14      1.0000 0.34230  0.39870  0.28260  Biso   1.000  C
  C15      1.0000 0.70600  0.00750  0.09060  Biso   1.000  C
  C16      1.0000 0.33490  0.46560  0.34610  Biso   1.000  C
  C17      1.0000 0.65060  0.01370  0.12410  Biso   1.000  C
  H6       1.0000 0.64800  0.97020  0.16240  Biso   1.000  H
  C18      1.0000 0.22680  0.47720  0.49040  Biso   1.000  C
  C19      1.0000 0.76010  0.93320  0.11800  Biso   1.000  C
  C20      1.0000 0.70790  0.07130  0.03140  Biso   1.000  C
  H7       1.0000 0.74430  0.07000  0.00830  Biso   1.000  H
  C21      1.0000 0.14750  0.53780  0.56210  Biso   1.000  C
  H8       1.0000 0.17070  0.50440  0.60350  Biso   1.000  H
  C22      1.0000 0.37420  0.60620  0.42550  Biso   1.000  C
  C23      1.0000 0.61890  0.81980  0.33830  Biso   1.000  C
  H9       1.0000 0.64730  0.82490  0.37910  Biso   1.000  H
  C24      1.0000 0.60290  0.15560  0.24730  Biso   1.000  C
  H10      1.0000 0.64290  0.12130  0.23850  Biso   1.000  H
  H11      1.0000 0.60580  0.23180  0.23870  Biso   1.000  H
  C25      1.0000 0.19080  0.67130  0.48980  Biso   1.000  C
  H12      1.0000 0.19040  0.67640  0.44010  Biso   1.000  H
  H13      1.0000 0.22760  0.71100  0.51250  Biso   1.000  H
  C26      1.0000 0.60180  0.79730  0.21600  Biso   1.000  C
  H14      1.0000 0.61740  0.78580  0.17400  Biso   1.000  H
  C27      1.0000 0.51570  0.82010  0.28240  Biso   1.000  C
  H15      1.0000 0.47130  0.82340  0.28460  Biso   1.000  H
  C28      1.0000 0.51960  0.13000  0.31770  Biso   1.000  C
  H16      1.0000 0.50320  0.19850  0.33130  Biso   1.000  H
  H17      1.0000 0.50860  0.07580  0.34990  Biso   1.000  H
  C29      1.0000 0.12620  0.64840  0.57950  Biso   1.000  C
  H18      1.0000 0.15540  0.67920  0.61710  Biso   1.000  H
  H19      1.0000 0.08260  0.64750  0.59230  Biso   1.000  H
  C30      1.0000 0.64420  0.80410  0.27590  Biso   1.000  C
  H20      1.0000 0.68870  0.79830  0.27510  Biso   1.000  H
  C31      1.0000 0.51760  0.40680  0.09620  Biso   1.000  C
  H21      1.0000 0.51600  0.33260  0.09960  Biso   1.000  H
  C32      1.0000 0.12860  0.71150  0.51130  Biso   1.000  C
  H22      1.0000 0.09190  0.69440  0.47720  Biso   1.000  H
  H23      1.0000 0.13000  0.78820  0.51930  Biso   1.000  H
  C33      1.0000 0.57140  0.45270  0.07060  Biso   1.000  C
  H24      1.0000 0.60430  0.41020  0.05710  Biso   1.000  H
  C34      1.0000 0.53680  0.80750  0.21850  Biso   1.000  C
  H25      1.0000 0.50750  0.80610  0.17820  Biso   1.000  H
  C35      1.0000 0.47050  0.56910  0.10970  Biso   1.000  C
  H26      1.0000 0.43790  0.61050  0.12480  Biso   1.000  H
  C36      1.0000 0.52210  0.62120  0.07960  Biso   1.000  C
  H27      1.0000 0.51970  0.69400  0.06970  Biso   1.000  H
  C37      1.0000 0.58960  0.13500  0.31800  Biso   1.000  C
  H28      1.0000 0.60920  0.06780  0.33450  Biso   1.000  H
  H29      1.0000 0.60770  0.19180  0.34840  Biso   1.000  H
  C38      1.0000 0.57380  0.56400  0.06600  Biso   1.000  C
  H30      1.0000 0.61040  0.59810  0.05380  Biso   1.000  H
  Cu4      1.0000 0.80278  0.73703  0.18793  Biso   1.000  Cu
  Cu5      1.0000 0.89069  0.87236  0.14997  Biso   1.000  Cu
  Cu6      1.0000 0.01996  0.33561  0.43707  Biso   1.000  Cu
  O15      1.0000 0.96110  0.21770  0.40950  Biso   1.000  O
  O16      1.0000 0.55670  0.93320  0.57920  Biso   1.000  O
  O17      1.0000 0.95310  0.76880  0.19550  Biso   1.000  O
  O18      1.0000 0.87700  0.93620  0.24080  Biso   1.000  O
  O19      1.0000 0.80900  0.81500  0.27480  Biso   1.000  O
  O20      1.0000 0.57790  0.95170  0.46950  Biso   1.000  O
  N5       1.0000 0.05610  0.32780  0.34100  Biso   1.000  N
  O21      1.0000 0.91918  0.23150  0.51020  Biso   1.000  O
  O22      1.0000 0.11821  0.77810  0.93230  Biso   1.000  O
  O23      1.0000 0.31770  0.45880  0.10800  Biso   1.000  O
  O24      1.0000 0.87960  0.64940  0.22160  Biso   1.000  O
  O25      1.0000 0.24380  0.35070  0.14880  Biso   1.000  O
  N6       1.0000 0.69270  0.05940  0.51240  Biso   1.000  N
  O26      1.0000 0.19870  0.67340  0.90300  Biso   1.000  O
  O27      1.0000 0.71940  0.88380  0.50640  Biso   1.000  O
  N7       1.0000 0.04560  0.60720  0.20400  Biso   1.000  N
  C39      1.0000 0.93680  0.67940  0.21600  Biso   1.000  C
  C40      1.0000 0.15660  0.63500  0.00770  Biso   1.000  C
  N8       1.0000 0.96850  0.96350  0.11610  Biso   1.000  N
  C41      1.0000 0.92090  0.19120  0.45060  Biso   1.000  C
  C42      1.0000 0.78600  0.94340  0.38740  Biso   1.000  C
  H31      1.0000 0.75830  0.88570  0.37630  Biso   1.000  H
  C43      1.0000 0.10060  0.58070  0.10300  Biso   1.000  C
  C44      1.0000 0.58910  0.96830  0.53450  Biso   1.000  C
  C45      1.0000 0.10250  0.64170  0.04290  Biso   1.000  C
  H32      1.0000 0.06800  0.68610  0.02670  Biso   1.000  H
  C46      1.0000 0.04100  0.58130  0.13840  Biso   1.000  C
  C47      1.0000 0.15640  0.70110  0.94330  Biso   1.000  C
  O28      1.0000 0.98710  0.55450  0.10570  Biso   1.000  O
  C48      1.0000 0.99010  0.60140  0.24340  Biso   1.000  C
  H33      1.0000 0.97290  0.52830  0.24210  Biso   1.000  H
  C49      1.0000 0.77820  0.00620  0.44490  Biso   1.000  C
  C50      1.0000 0.82210  0.08560  0.46360  Biso   1.000  C
  H34      1.0000 0.81760  0.12720  0.50230  Biso   1.000  H
  C51      1.0000 0.87880  0.04820  0.36670  Biso   1.000  C
  H35      1.0000 0.91150  0.06390  0.33990  Biso   1.000  H
  C52      1.0000 0.84230  0.89870  0.28260  Biso   1.000  C
  C53      1.0000 0.20600  0.50750  0.09060  Biso   1.000  C
  C54      1.0000 0.83490  0.96560  0.34610  Biso   1.000  C
  C55      1.0000 0.15060  0.51370  0.12410  Biso   1.000  C
  H36      1.0000 0.14800  0.47020  0.16240  Biso   1.000  H
  C56      1.0000 0.72680  0.97720  0.49040  Biso   1.000  C
  C57      1.0000 0.26010  0.43320  0.11800  Biso   1.000  C
  C58      1.0000 0.20790  0.57130  0.03140  Biso   1.000  C
  H37      1.0000 0.24430  0.57000  0.00830  Biso   1.000  H
  C59      1.0000 0.64750  0.03780  0.56210  Biso   1.000  C
  H38      1.0000 0.67070  0.00440  0.60350  Biso   1.000  H
  C60      1.0000 0.87420  0.10620  0.42550  Biso   1.000  C
  C61      1.0000 0.11890  0.31980  0.33830  Biso   1.000  C
  H39      1.0000 0.14730  0.32490  0.37910  Biso   1.000  H
  C62      1.0000 0.10290  0.65560  0.24730  Biso   1.000  C
  H40      1.0000 0.14290  0.62130  0.23850  Biso   1.000  H
  H41      1.0000 0.10580  0.73180  0.23870  Biso   1.000  H
  C63      1.0000 0.69080  0.17130  0.48980  Biso   1.000  C
  H42      1.0000 0.69040  0.17640  0.44010  Biso   1.000  H
  H43      1.0000 0.72760  0.21100  0.51250  Biso   1.000  H
  C64      1.0000 0.10180  0.29730  0.21600  Biso   1.000  C
  H44      1.0000 0.11740  0.28580  0.17400  Biso   1.000  H
  C65      1.0000 0.01570  0.32010  0.28240  Biso   1.000  C
  H45      1.0000 0.97130  0.32340  0.28460  Biso   1.000  H
  C66      1.0000 0.01960  0.63000  0.31770  Biso   1.000  C
  H46      1.0000 0.00320  0.69850  0.33130  Biso   1.000  H
  H47      1.0000 0.00860  0.57580  0.34990  Biso   1.000  H
  C67      1.0000 0.62620  0.14840  0.57950  Biso   1.000  C
  H48      1.0000 0.65540  0.17920  0.61710  Biso   1.000  H
  H49      1.0000 0.58260  0.14750  0.59230  Biso   1.000  H
  C68      1.0000 0.14420  0.30410  0.27590  Biso   1.000  C
  H50      1.0000 0.18870  0.29830  0.27510  Biso   1.000  H
  C69      1.0000 0.01760  0.90680  0.09620  Biso   1.000  C
  H51      1.0000 0.01600  0.83260  0.09960  Biso   1.000  H
  C70      1.0000 0.62860  0.21150  0.51130  Biso   1.000  C
  H52      1.0000 0.59190  0.19440  0.47720  Biso   1.000  H
  H53      1.0000 0.63000  0.28820  0.51930  Biso   1.000  H
  C71      1.0000 0.07140  0.95270  0.07060  Biso   1.000  C
  H54      1.0000 0.10430  0.91020  0.05710  Biso   1.000  H
  C72      1.0000 0.03680  0.30750  0.21850  Biso   1.000  C
  H55      1.0000 0.00750  0.30610  0.17820  Biso   1.000  H
  C73      1.0000 0.97050  0.06910  0.10970  Biso   1.000  C
  H56      1.0000 0.93790  0.11050  0.12480  Biso   1.000  H
  C74      1.0000 0.02210  0.12120  0.07960  Biso   1.000  C
  H57      1.0000 0.01970  0.19400  0.06970  Biso   1.000  H
  C75      1.0000 0.08960  0.63500  0.31800  Biso   1.000  C
  H58      1.0000 0.10920  0.56780  0.33450  Biso   1.000  H
  H59      1.0000 0.10770  0.69180  0.34840  Biso   1.000  H
  C76      1.0000 0.07380  0.06400  0.06600  Biso   1.000  C
  H60      1.0000 0.11040  0.09810  0.05380  Biso   1.000  H
  Cu7      1.0000 0.69722  0.23703  0.81207  Biso   1.000  Cu
  Cu8      1.0000 0.60931  0.37236  0.85003  Biso   1.000  Cu
  Cu9      1.0000 0.48004  0.83561  0.56293  Biso   1.000  Cu
  O29      1.0000 0.53890  0.71770  0.59050  Biso   1.000  O
  O30      1.0000 0.94330  0.43320  0.42080  Biso   1.000  O
  O31      1.0000 0.54690  0.26880  0.80450  Biso   1.000  O
  O32      1.0000 0.62300  0.43620  0.75920  Biso   1.000  O
  O33      1.0000 0.69100  0.31500  0.72520  Biso   1.000  O
  O34      1.0000 0.92210  0.45170  0.53050  Biso   1.000  O
  N9       1.0000 0.44390  0.82780  0.65900  Biso   1.000  N
  O35      1.0000 0.58082  0.73150  0.48980  Biso   1.000  O
  O36      1.0000 0.38179  0.27810  0.06770  Biso   1.000  O
  O37      1.0000 0.18230  0.95880  0.89200  Biso   1.000  O
  O38      1.0000 0.62040  0.14940  0.77840  Biso   1.000  O
  O39      1.0000 0.25620  0.85070  0.85120  Biso   1.000  O
  N10      1.0000 0.80730  0.55940  0.48760  Biso   1.000  N
  O40      1.0000 0.30130  0.17340  0.09700  Biso   1.000  O
  O41      1.0000 0.78060  0.38380  0.49360  Biso   1.000  O
  N11      1.0000 0.45440  0.10720  0.79600  Biso   1.000  N
  C77      1.0000 0.56320  0.17940  0.78400  Biso   1.000  C
  C78      1.0000 0.34340  0.13500  0.99230  Biso   1.000  C
  N12      1.0000 0.53150  0.46350  0.88390  Biso   1.000  N
  C79      1.0000 0.57910  0.69120  0.54940  Biso   1.000  C
  C80      1.0000 0.71400  0.44340  0.61260  Biso   1.000  C
  H61      1.0000 0.74170  0.38570  0.62370  Biso   1.000  H
  C81      1.0000 0.39940  0.08070  0.89700  Biso   1.000  C
  C82      1.0000 0.91090  0.46830  0.46550  Biso   1.000  C
  C83      1.0000 0.39750  0.14170  0.95710  Biso   1.000  C
  H62      1.0000 0.43200  0.18610  0.97330  Biso   1.000  H
  C84      1.0000 0.45900  0.08130  0.86160  Biso   1.000  C
  C85      1.0000 0.34360  0.20110  0.05670  Biso   1.000  C
  O42      1.0000 0.51290  0.05450  0.89430  Biso   1.000  O
  C86      1.0000 0.50990  0.10140  0.75660  Biso   1.000  C
  H63      1.0000 0.52710  0.02830  0.75790  Biso   1.000  H
  C87      1.0000 0.72180  0.50620  0.55510  Biso   1.000  C
  C88      1.0000 0.67790  0.58560  0.53640  Biso   1.000  C
  H64      1.0000 0.68240  0.62720  0.49770  Biso   1.000  H
  C89      1.0000 0.62120  0.54820  0.63330  Biso   1.000  C
  H65      1.0000 0.58850  0.56390  0.66010  Biso   1.000  H
  C90      1.0000 0.65770  0.39870  0.71740  Biso   1.000  C
  C91      1.0000 0.29400  0.00750  0.90940  Biso   1.000  C
  C92      1.0000 0.66510  0.46560  0.65390  Biso   1.000  C
  C93      1.0000 0.34940  0.01370  0.87590  Biso   1.000  C
  H66      1.0000 0.35200  0.97020  0.83760  Biso   1.000  H
  C94      1.0000 0.77320  0.47720  0.50960  Biso   1.000  C
  C95      1.0000 0.23990  0.93320  0.88200  Biso   1.000  C
  C96      1.0000 0.29210  0.07130  0.96860  Biso   1.000  C
  H67      1.0000 0.25570  0.07000  0.99170  Biso   1.000  H
  C97      1.0000 0.85250  0.53780  0.43790  Biso   1.000  C
  H68      1.0000 0.82930  0.50440  0.39650  Biso   1.000  H
  C98      1.0000 0.62580  0.60620  0.57450  Biso   1.000  C
  C99      1.0000 0.38110  0.81980  0.66170  Biso   1.000  C
  H69      1.0000 0.35270  0.82490  0.62090  Biso   1.000  H
  C100     1.0000 0.39710  0.15560  0.75270  Biso   1.000  C
  H70      1.0000 0.35710  0.12130  0.76150  Biso   1.000  H
  H71      1.0000 0.39420  0.23180  0.76130  Biso   1.000  H
  C101     1.0000 0.80920  0.67130  0.51020  Biso   1.000  C
  H72      1.0000 0.80960  0.67640  0.55990  Biso   1.000  H
  H73      1.0000 0.77240  0.71100  0.48750  Biso   1.000  H
  C102     1.0000 0.39820  0.79730  0.78400  Biso   1.000  C
  H74      1.0000 0.38260  0.78580  0.82600  Biso   1.000  H
  C103     1.0000 0.48430  0.82010  0.71760  Biso   1.000  C
  H75      1.0000 0.52870  0.82340  0.71540  Biso   1.000  H
  C104     1.0000 0.48040  0.13000  0.68230  Biso   1.000  C
  H76      1.0000 0.49680  0.19850  0.66870  Biso   1.000  H
  H77      1.0000 0.49140  0.07580  0.65010  Biso   1.000  H
  C105     1.0000 0.87380  0.64840  0.42050  Biso   1.000  C
  H78      1.0000 0.84460  0.67920  0.38290  Biso   1.000  H
  H79      1.0000 0.91740  0.64750  0.40770  Biso   1.000  H
  C106     1.0000 0.35580  0.80410  0.72410  Biso   1.000  C
  H80      1.0000 0.31130  0.79830  0.72490  Biso   1.000  H
  C107     1.0000 0.48240  0.40680  0.90380  Biso   1.000  C
  H81      1.0000 0.48400  0.33260  0.90040  Biso   1.000  H
  C108     1.0000 0.87140  0.71150  0.48870  Biso   1.000  C
  H82      1.0000 0.90810  0.69440  0.52280  Biso   1.000  H
  H83      1.0000 0.87000  0.78820  0.48070  Biso   1.000  H
  C109     1.0000 0.42860  0.45270  0.92940  Biso   1.000  C
  H84      1.0000 0.39570  0.41020  0.94290  Biso   1.000  H
  C110     1.0000 0.46320  0.80750  0.78150  Biso   1.000  C
  H85      1.0000 0.49250  0.80610  0.82180  Biso   1.000  H
  C111     1.0000 0.52950  0.56910  0.89030  Biso   1.000  C
  H86      1.0000 0.56210  0.61050  0.87520  Biso   1.000  H
  C112     1.0000 0.47790  0.62120  0.92040  Biso   1.000  C
  H87      1.0000 0.48030  0.69400  0.93030  Biso   1.000  H
  C113     1.0000 0.41040  0.13500  0.68200  Biso   1.000  C
  H88      1.0000 0.39080  0.06780  0.66550  Biso   1.000  H
  H89      1.0000 0.39230  0.19180  0.65160  Biso   1.000  H
  C114     1.0000 0.42620  0.56400  0.93400  Biso   1.000  C
  H90      1.0000 0.38960  0.59810  0.94620  Biso   1.000  H
  Cu10     1.0000 0.19722  0.73703  0.81207  Biso   1.000  Cu
  Cu11     1.0000 0.10931  0.87236  0.85003  Biso   1.000  Cu
  Cu12     1.0000 0.98004  0.33561  0.56293  Biso   1.000  Cu
  O43      1.0000 0.03890  0.21770  0.59050  Biso   1.000  O
  O44      1.0000 0.44330  0.93320  0.42080  Biso   1.000  O
  O45      1.0000 0.04690  0.76880  0.80450  Biso   1.000  O
  O46      1.0000 0.12300  0.93620  0.75920  Biso   1.000  O
  O47      1.0000 0.19100  0.81500  0.72520  Biso   1.000  O
  O48      1.0000 0.42210  0.95170  0.53050  Biso   1.000  O
  N13      1.0000 0.94390  0.32780  0.65900  Biso   1.000  N
  O49      1.0000 0.08082  0.23150  0.48980  Biso   1.000  O
  O50      1.0000 0.88179  0.77810  0.06770  Biso   1.000  O
  O51      1.0000 0.68230  0.45880  0.89200  Biso   1.000  O
  O52      1.0000 0.12040  0.64940  0.77840  Biso   1.000  O
  O53      1.0000 0.75620  0.35070  0.85120  Biso   1.000  O
  N14      1.0000 0.30730  0.05940  0.48760  Biso   1.000  N
  O54      1.0000 0.80130  0.67340  0.09700  Biso   1.000  O
  O55      1.0000 0.28060  0.88380  0.49360  Biso   1.000  O
  N15      1.0000 0.95440  0.60720  0.79600  Biso   1.000  N
  C115     1.0000 0.06320  0.67940  0.78400  Biso   1.000  C
  C116     1.0000 0.84340  0.63500  0.99230  Biso   1.000  C
  N16      1.0000 0.03150  0.96350  0.88390  Biso   1.000  N
  C117     1.0000 0.07910  0.19120  0.54940  Biso   1.000  C
  C118     1.0000 0.21400  0.94340  0.61260  Biso   1.000  C
  H91      1.0000 0.24170  0.88570  0.62370  Biso   1.000  H
  C119     1.0000 0.89940  0.58070  0.89700  Biso   1.000  C
  C120     1.0000 0.41090  0.96830  0.46550  Biso   1.000  C
  C121     1.0000 0.89750  0.64170  0.95710  Biso   1.000  C
  H92      1.0000 0.93200  0.68610  0.97330  Biso   1.000  H
  C122     1.0000 0.95900  0.58130  0.86160  Biso   1.000  C
  C123     1.0000 0.84360  0.70110  0.05670  Biso   1.000  C
  O56      1.0000 0.01290  0.55450  0.89430  Biso   1.000  O
  C124     1.0000 0.00990  0.60140  0.75660  Biso   1.000  C
  H93      1.0000 0.02710  0.52830  0.75790  Biso   1.000  H
  C125     1.0000 0.22180  0.00620  0.55510  Biso   1.000  C
  C126     1.0000 0.17790  0.08560  0.53640  Biso   1.000  C
  H94      1.0000 0.18240  0.12720  0.49770  Biso   1.000  H
  C127     1.0000 0.12120  0.04820  0.63330  Biso   1.000  C
  H95      1.0000 0.08850  0.06390  0.66010  Biso   1.000  H
  C128     1.0000 0.15770  0.89870  0.71740  Biso   1.000  C
  C129     1.0000 0.79400  0.50750  0.90940  Biso   1.000  C
  C130     1.0000 0.16510  0.96560  0.65390  Biso   1.000  C
  C131     1.0000 0.84940  0.51370  0.87590  Biso   1.000  C
  H96      1.0000 0.85200  0.47020  0.83760  Biso   1.000  H
  C132     1.0000 0.27320  0.97720  0.50960  Biso   1.000  C
  C133     1.0000 0.73990  0.43320  0.88200  Biso   1.000  C
  C134     1.0000 0.79210  0.57130  0.96860  Biso   1.000  C
  H97      1.0000 0.75570  0.57000  0.99170  Biso   1.000  H
  C135     1.0000 0.35250  0.03780  0.43790  Biso   1.000  C
  H98      1.0000 0.32930  0.00440  0.39650  Biso   1.000  H
  C136     1.0000 0.12580  0.10620  0.57450  Biso   1.000  C
  C137     1.0000 0.88110  0.31980  0.66170  Biso   1.000  C
  H99      1.0000 0.85270  0.32490  0.62090  Biso   1.000  H
  C138     1.0000 0.89710  0.65560  0.75270  Biso   1.000  C
  H100     1.0000 0.85710  0.62130  0.76150  Biso   1.000  H
  H101     1.0000 0.89420  0.73180  0.76130  Biso   1.000  H
  C139     1.0000 0.30920  0.17130  0.51020  Biso   1.000  C
  H102     1.0000 0.30960  0.17640  0.55990  Biso   1.000  H
  H103     1.0000 0.27240  0.21100  0.48750  Biso   1.000  H
  C140     1.0000 0.89820  0.29730  0.78400  Biso   1.000  C
  H104     1.0000 0.88260  0.28580  0.82600  Biso   1.000  H
  C141     1.0000 0.98430  0.32010  0.71760  Biso   1.000  C
  H105     1.0000 0.02870  0.32340  0.71540  Biso   1.000  H
  C142     1.0000 0.98040  0.63000  0.68230  Biso   1.000  C
  H106     1.0000 0.99680  0.69850  0.66870  Biso   1.000  H
  H107     1.0000 0.99140  0.57580  0.65010  Biso   1.000  H
  C143     1.0000 0.37380  0.14840  0.42050  Biso   1.000  C
  H108     1.0000 0.34460  0.17920  0.38290  Biso   1.000  H
  H109     1.0000 0.41740  0.14750  0.40770  Biso   1.000  H
  C144     1.0000 0.85580  0.30410  0.72410  Biso   1.000  C
  H110     1.0000 0.81130  0.29830  0.72490  Biso   1.000  H
  C145     1.0000 0.98240  0.90680  0.90380  Biso   1.000  C
  H111     1.0000 0.98400  0.83260  0.90040  Biso   1.000  H
  C146     1.0000 0.37140  0.21150  0.48870  Biso   1.000  C
  H112     1.0000 0.40810  0.19440  0.52280  Biso   1.000  H
  H113     1.0000 0.37000  0.28820  0.48070  Biso   1.000  H
  C147     1.0000 0.92860  0.95270  0.92940  Biso   1.000  C
  H114     1.0000 0.89570  0.91020  0.94290  Biso   1.000  H
  C148     1.0000 0.96320  0.30750  0.78150  Biso   1.000  C
  H115     1.0000 0.99250  0.30610  0.82180  Biso   1.000  H
  C149     1.0000 0.02950  0.06910  0.89030  Biso   1.000  C
  H116     1.0000 0.06210  0.11050  0.87520  Biso   1.000  H
  C150     1.0000 0.97790  0.12120  0.92040  Biso   1.000  C
  H117     1.0000 0.98030  0.19400  0.93030  Biso   1.000  H
  C151     1.0000 0.91040  0.63500  0.68200  Biso   1.000  C
  H118     1.0000 0.89080  0.56780  0.66550  Biso   1.000  H
  H119     1.0000 0.89230  0.69180  0.65160  Biso   1.000  H
  C152     1.0000 0.92620  0.06400  0.93400  Biso   1.000  C
  H120     1.0000 0.88960  0.09810  0.94620  Biso   1.000  H
