data_image0
_cell_length_a       21.403
_cell_length_b       34.255
_cell_length_c       8.023
_cell_angle_alpha    90
_cell_angle_beta     90
_cell_angle_gamma    90

_symmetry_space_group_name_H-M    "P 1"
_symmetry_int_tables_number       1

loop_
  _symmetry_equiv_pos_as_xyz
  'x, y, z'

loop_
  _atom_site_label
  _atom_site_occupancy
  _atom_site_fract_x
  _atom_site_fract_y
  _atom_site_fract_z
  _atom_site_thermal_displace_type
  _atom_site_B_iso_or_equiv
  _atom_site_type_symbol
  C1       1.0000 0.80750  0.91620  0.46200  Biso   1.000  C
  H1       1.0000 0.84530  0.93050  0.47290  Biso   1.000  H
  C2       1.0000 0.80910  0.87590  0.43300  Biso   1.000  C
  C3       1.0000 0.86130  0.85490  0.45100  Biso   1.000  C
  C4       1.0000 0.90940  0.83620  0.47800  Biso   1.000  C
  C5       1.0000 0.96120  0.81580  0.50500  Biso   1.000  C
  C6       1.0000 0.98900  0.79510  0.37500  Biso   1.000  C
  H2       1.0000 0.97060  0.79550  0.26740  Biso   1.000  H
  C7       1.0000 0.04300  0.77380  0.40400  Biso   1.000  C
  H3       1.0000 0.06190  0.75970  0.31520  Biso   1.000  H
  C8       1.0000 0.06980  0.77330  0.56200  Biso   1.000  C
  C9       1.0000 0.04200  0.79400  0.69100  Biso   1.000  C
  H4       1.0000 0.06040  0.79360  0.79910  Biso   1.000  H
  C10      1.0000 0.98800  0.81530  0.66300  Biso   1.000  C
  H5       1.0000 0.96910  0.82940  0.75140  Biso   1.000  H
  O1       1.0000 0.15030  0.75220  0.77300  Biso   1.000  O
  O2       1.0000 0.18800  0.76540  0.52800  Biso   1.000  O
  C11      1.0000 0.13000  0.76180  0.64400  Biso   1.000  C
  C12      1.0000 0.30750  0.41620  0.96200  Biso   1.000  C
  H6       1.0000 0.34530  0.43050  0.97290  Biso   1.000  H
  C13      1.0000 0.30910  0.37590  0.93300  Biso   1.000  C
  C14      1.0000 0.36130  0.35490  0.95100  Biso   1.000  C
  C15      1.0000 0.40940  0.33620  0.97800  Biso   1.000  C
  C16      1.0000 0.46120  0.31580  0.00500  Biso   1.000  C
  C17      1.0000 0.48900  0.29510  0.87500  Biso   1.000  C
  H7       1.0000 0.47060  0.29550  0.76740  Biso   1.000  H
  C18      1.0000 0.54300  0.27380  0.90400  Biso   1.000  C
  H8       1.0000 0.56190  0.25970  0.81520  Biso   1.000  H
  C19      1.0000 0.56980  0.27330  0.06200  Biso   1.000  C
  C20      1.0000 0.54200  0.29400  0.19100  Biso   1.000  C
  H9       1.0000 0.56040  0.29360  0.29910  Biso   1.000  H
  C21      1.0000 0.48800  0.31530  0.16300  Biso   1.000  C
  H10      1.0000 0.46910  0.32940  0.25140  Biso   1.000  H
  O3       1.0000 0.65030  0.25220  0.27300  Biso   1.000  O
  O4       1.0000 0.68800  0.26540  0.02800  Biso   1.000  O
  C22      1.0000 0.63000  0.26180  0.14400  Biso   1.000  C
  C23      1.0000 0.19250  0.08380  0.46200  Biso   1.000  C
  H11      1.0000 0.15470  0.06950  0.47290  Biso   1.000  H
  C24      1.0000 0.19090  0.12410  0.43300  Biso   1.000  C
  C25      1.0000 0.13870  0.14510  0.45100  Biso   1.000  C
  C26      1.0000 0.09060  0.16380  0.47800  Biso   1.000  C
  C27      1.0000 0.03880  0.18420  0.50500  Biso   1.000  C
  C28      1.0000 0.01100  0.20490  0.37500  Biso   1.000  C
  H12      1.0000 0.02940  0.20450  0.26740  Biso   1.000  H
  C29      1.0000 0.95700  0.22620  0.40400  Biso   1.000  C
  H13      1.0000 0.93810  0.24030  0.31520  Biso   1.000  H
  C30      1.0000 0.93020  0.22670  0.56200  Biso   1.000  C
  C31      1.0000 0.95800  0.20600  0.69100  Biso   1.000  C
  H14      1.0000 0.93960  0.20640  0.79910  Biso   1.000  H
  C32      1.0000 0.01200  0.18470  0.66300  Biso   1.000  C
  H15      1.0000 0.03090  0.17060  0.75140  Biso   1.000  H
  O5       1.0000 0.84970  0.24780  0.77300  Biso   1.000  O
  O6       1.0000 0.81200  0.23460  0.52800  Biso   1.000  O
  C33      1.0000 0.87000  0.23820  0.64400  Biso   1.000  C
  C34      1.0000 0.69250  0.58380  0.96200  Biso   1.000  C
  H16      1.0000 0.65470  0.56950  0.97290  Biso   1.000  H
  C35      1.0000 0.69090  0.62410  0.93300  Biso   1.000  C
  C36      1.0000 0.63870  0.64510  0.95100  Biso   1.000  C
  C37      1.0000 0.59060  0.66380  0.97800  Biso   1.000  C
  C38      1.0000 0.53880  0.68420  0.00500  Biso   1.000  C
  C39      1.0000 0.51100  0.70490  0.87500  Biso   1.000  C
  H17      1.0000 0.52940  0.70450  0.76740  Biso   1.000  H
  C40      1.0000 0.45700  0.72620  0.90400  Biso   1.000  C
  H18      1.0000 0.43810  0.74030  0.81520  Biso   1.000  H
  C41      1.0000 0.43020  0.72670  0.06200  Biso   1.000  C
  C42      1.0000 0.45800  0.70600  0.19100  Biso   1.000  C
  H19      1.0000 0.43960  0.70640  0.29910  Biso   1.000  H
  C43      1.0000 0.51200  0.68470  0.16300  Biso   1.000  C
  H20      1.0000 0.53090  0.67060  0.25140  Biso   1.000  H
  O7       1.0000 0.34970  0.74780  0.27300  Biso   1.000  O
  O8       1.0000 0.31200  0.73460  0.02800  Biso   1.000  O
  C44      1.0000 0.37000  0.73820  0.14400  Biso   1.000  C
  C45      1.0000 0.30750  0.08380  0.46200  Biso   1.000  C
  H21      1.0000 0.34530  0.06950  0.47290  Biso   1.000  H
  C46      1.0000 0.30910  0.12410  0.43300  Biso   1.000  C
  C47      1.0000 0.36130  0.14510  0.45100  Biso   1.000  C
  C48      1.0000 0.40940  0.16380  0.47800  Biso   1.000  C
  C49      1.0000 0.46120  0.18420  0.50500  Biso   1.000  C
  C50      1.0000 0.48900  0.20490  0.37500  Biso   1.000  C
  H22      1.0000 0.47060  0.20450  0.26740  Biso   1.000  H
  C51      1.0000 0.54300  0.22620  0.40400  Biso   1.000  C
  H23      1.0000 0.56190  0.24030  0.31520  Biso   1.000  H
  C52      1.0000 0.56980  0.22670  0.56200  Biso   1.000  C
  C53      1.0000 0.54200  0.20600  0.69100  Biso   1.000  C
  H24      1.0000 0.56040  0.20640  0.79910  Biso   1.000  H
  C54      1.0000 0.48800  0.18470  0.66300  Biso   1.000  C
  H25      1.0000 0.46910  0.17060  0.75140  Biso   1.000  H
  O9       1.0000 0.65030  0.24780  0.77300  Biso   1.000  O
  O10      1.0000 0.68800  0.23460  0.52800  Biso   1.000  O
  C55      1.0000 0.63000  0.23820  0.64400  Biso   1.000  C
  C56      1.0000 0.80750  0.58380  0.96200  Biso   1.000  C
  H26      1.0000 0.84530  0.56950  0.97290  Biso   1.000  H
  C57      1.0000 0.80910  0.62410  0.93300  Biso   1.000  C
  C58      1.0000 0.86130  0.64510  0.95100  Biso   1.000  C
  C59      1.0000 0.90940  0.66380  0.97800  Biso   1.000  C
  C60      1.0000 0.96120  0.68420  0.00500  Biso   1.000  C
  C61      1.0000 0.98900  0.70490  0.87500  Biso   1.000  C
  H27      1.0000 0.97060  0.70450  0.76740  Biso   1.000  H
  C62      1.0000 0.04300  0.72620  0.90400  Biso   1.000  C
  H28      1.0000 0.06190  0.74030  0.81520  Biso   1.000  H
  C63      1.0000 0.06980  0.72670  0.06200  Biso   1.000  C
  C64      1.0000 0.04200  0.70600  0.19100  Biso   1.000  C
  H29      1.0000 0.06040  0.70640  0.29910  Biso   1.000  H
  C65      1.0000 0.98800  0.68470  0.16300  Biso   1.000  C
  H30      1.0000 0.96910  0.67060  0.25140  Biso   1.000  H
  O11      1.0000 0.15030  0.74780  0.27300  Biso   1.000  O
  O12      1.0000 0.18800  0.73460  0.02800  Biso   1.000  O
  C66      1.0000 0.13000  0.73820  0.14400  Biso   1.000  C
  C67      1.0000 0.69250  0.91620  0.46200  Biso   1.000  C
  H31      1.0000 0.65470  0.93050  0.47290  Biso   1.000  H
  C68      1.0000 0.69090  0.87590  0.43300  Biso   1.000  C
  C69      1.0000 0.63870  0.85490  0.45100  Biso   1.000  C
  C70      1.0000 0.59060  0.83620  0.47800  Biso   1.000  C
  C71      1.0000 0.53880  0.81580  0.50500  Biso   1.000  C
  C72      1.0000 0.51100  0.79510  0.37500  Biso   1.000  C
  H32      1.0000 0.52940  0.79550  0.26740  Biso   1.000  H
  C73      1.0000 0.45700  0.77380  0.40400  Biso   1.000  C
  H33      1.0000 0.43810  0.75970  0.31520  Biso   1.000  H
  C74      1.0000 0.43020  0.77330  0.56200  Biso   1.000  C
  C75      1.0000 0.45800  0.79400  0.69100  Biso   1.000  C
  H34      1.0000 0.43960  0.79360  0.79910  Biso   1.000  H
  C76      1.0000 0.51200  0.81530  0.66300  Biso   1.000  C
  H35      1.0000 0.53090  0.82940  0.75140  Biso   1.000  H
  O13      1.0000 0.34970  0.75220  0.77300  Biso   1.000  O
  O14      1.0000 0.31200  0.76540  0.52800  Biso   1.000  O
  C77      1.0000 0.37000  0.76180  0.64400  Biso   1.000  C
  C78      1.0000 0.19250  0.41620  0.96200  Biso   1.000  C
  H36      1.0000 0.15470  0.43050  0.97290  Biso   1.000  H
  C79      1.0000 0.19090  0.37590  0.93300  Biso   1.000  C
  C80      1.0000 0.13870  0.35490  0.95100  Biso   1.000  C
  C81      1.0000 0.09060  0.33620  0.97800  Biso   1.000  C
  C82      1.0000 0.03880  0.31580  0.00500  Biso   1.000  C
  C83      1.0000 0.01100  0.29510  0.87500  Biso   1.000  C
  H37      1.0000 0.02940  0.29550  0.76740  Biso   1.000  H
  C84      1.0000 0.95700  0.27380  0.90400  Biso   1.000  C
  H38      1.0000 0.93810  0.25970  0.81520  Biso   1.000  H
  C85      1.0000 0.93020  0.27330  0.06200  Biso   1.000  C
  C86      1.0000 0.95800  0.29400  0.19100  Biso   1.000  C
  H39      1.0000 0.93960  0.29360  0.29910  Biso   1.000  H
  C87      1.0000 0.01200  0.31530  0.16300  Biso   1.000  C
  H40      1.0000 0.03090  0.32940  0.25140  Biso   1.000  H
  O15      1.0000 0.84970  0.25220  0.27300  Biso   1.000  O
  O16      1.0000 0.81200  0.26540  0.02800  Biso   1.000  O
  C88      1.0000 0.87000  0.26180  0.14400  Biso   1.000  C
  C89      1.0000 0.75000  0.17860  0.51900  Biso   1.000  C
  C90      1.0000 0.75000  0.13680  0.50500  Biso   1.000  C
  C91      1.0000 0.75000  0.11590  0.65400  Biso   1.000  C
  H41      1.0000 0.75000  0.12930  0.75740  Biso   1.000  H
  C92      1.0000 0.75000  0.07530  0.65100  Biso   1.000  C
  H42      1.0000 0.75000  0.06100  0.75230  Biso   1.000  H
  C93      1.0000 0.75000  0.05560  0.49900  Biso   1.000  C
  C94      1.0000 0.75000  0.07650  0.35100  Biso   1.000  C
  H43      1.0000 0.75000  0.06310  0.24720  Biso   1.000  H
  C95      1.0000 0.75000  0.11710  0.35400  Biso   1.000  C
  H44      1.0000 0.75000  0.13140  0.25230  Biso   1.000  H
  C96      1.0000 0.75000  0.01300  0.49243  Biso   1.000  C
  C97      1.0000 0.75000  0.97670  0.48700  Biso   1.000  C
  C98      1.0000 0.75000  0.93520  0.47500  Biso   1.000  C
  C99      1.0000 0.75000  0.85800  0.43200  Biso   1.000  C
  H45      1.0000 0.75000  0.83030  0.43040  Biso   1.000  H
  O17      1.0000 0.75000  0.19630  0.66600  Biso   1.000  O
  O18      1.0000 0.75000  0.19710  0.38200  Biso   1.000  O
  Ho1      1.0000 0.75000  0.23370  0.88300  Biso   1.000  Ho
  C100     1.0000 0.25000  0.67860  0.01900  Biso   1.000  C
  C101     1.0000 0.25000  0.63680  0.00500  Biso   1.000  C
  C102     1.0000 0.25000  0.61590  0.15400  Biso   1.000  C
  H46      1.0000 0.25000  0.62930  0.25740  Biso   1.000  H
  C103     1.0000 0.25000  0.57530  0.15100  Biso   1.000  C
  H47      1.0000 0.25000  0.56100  0.25230  Biso   1.000  H
  C104     1.0000 0.25000  0.55560  0.99900  Biso   1.000  C
  C105     1.0000 0.25000  0.57650  0.85100  Biso   1.000  C
  H48      1.0000 0.25000  0.56310  0.74720  Biso   1.000  H
  C106     1.0000 0.25000  0.61710  0.85400  Biso   1.000  C
  H49      1.0000 0.25000  0.63140  0.75230  Biso   1.000  H
  C107     1.0000 0.25000  0.51300  0.99243  Biso   1.000  C
  C108     1.0000 0.25000  0.47670  0.98700  Biso   1.000  C
  C109     1.0000 0.25000  0.43520  0.97500  Biso   1.000  C
  C110     1.0000 0.25000  0.35800  0.93200  Biso   1.000  C
  H50      1.0000 0.25000  0.33030  0.93040  Biso   1.000  H
  O19      1.0000 0.25000  0.69630  0.16600  Biso   1.000  O
  O20      1.0000 0.25000  0.69710  0.88200  Biso   1.000  O
  Ho2      1.0000 0.25000  0.73370  0.38300  Biso   1.000  Ho
  C111     1.0000 0.25000  0.82140  0.51900  Biso   1.000  C
  C112     1.0000 0.25000  0.86320  0.50500  Biso   1.000  C
  C113     1.0000 0.25000  0.88410  0.65400  Biso   1.000  C
  H51      1.0000 0.25000  0.87070  0.75740  Biso   1.000  H
  C114     1.0000 0.25000  0.92470  0.65100  Biso   1.000  C
  H52      1.0000 0.25000  0.93900  0.75230  Biso   1.000  H
  C115     1.0000 0.25000  0.94440  0.49900  Biso   1.000  C
  C116     1.0000 0.25000  0.92350  0.35100  Biso   1.000  C
  H53      1.0000 0.25000  0.93690  0.24720  Biso   1.000  H
  C117     1.0000 0.25000  0.88290  0.35400  Biso   1.000  C
  H54      1.0000 0.25000  0.86860  0.25230  Biso   1.000  H
  C118     1.0000 0.25000  0.98700  0.49243  Biso   1.000  C
  C119     1.0000 0.25000  0.02330  0.48700  Biso   1.000  C
  C120     1.0000 0.25000  0.06480  0.47500  Biso   1.000  C
  C121     1.0000 0.25000  0.14200  0.43200  Biso   1.000  C
  H55      1.0000 0.25000  0.16970  0.43040  Biso   1.000  H
  O21      1.0000 0.25000  0.80370  0.66600  Biso   1.000  O
  O22      1.0000 0.25000  0.80290  0.38200  Biso   1.000  O
  Ho3      1.0000 0.25000  0.76630  0.88300  Biso   1.000  Ho
  C122     1.0000 0.75000  0.32140  0.01900  Biso   1.000  C
  C123     1.0000 0.75000  0.36320  0.00500  Biso   1.000  C
  C124     1.0000 0.75000  0.38410  0.15400  Biso   1.000  C
  H56      1.0000 0.75000  0.37070  0.25740  Biso   1.000  H
  C125     1.0000 0.75000  0.42470  0.15100  Biso   1.000  C
  H57      1.0000 0.75000  0.43900  0.25230  Biso   1.000  H
  C126     1.0000 0.75000  0.44440  0.99900  Biso   1.000  C
  C127     1.0000 0.75000  0.42350  0.85100  Biso   1.000  C
  H58      1.0000 0.75000  0.43690  0.74720  Biso   1.000  H
  C128     1.0000 0.75000  0.38290  0.85400  Biso   1.000  C
  H59      1.0000 0.75000  0.36860  0.75230  Biso   1.000  H
  C129     1.0000 0.75000  0.48700  0.99243  Biso   1.000  C
  C130     1.0000 0.75000  0.52330  0.98700  Biso   1.000  C
  C131     1.0000 0.75000  0.56480  0.97500  Biso   1.000  C
  C132     1.0000 0.75000  0.64200  0.93200  Biso   1.000  C
  H60      1.0000 0.75000  0.66970  0.93040  Biso   1.000  H
  O23      1.0000 0.75000  0.30370  0.16600  Biso   1.000  O
  O24      1.0000 0.75000  0.30290  0.88200  Biso   1.000  O
  Ho4      1.0000 0.75000  0.26630  0.38300  Biso   1.000  Ho
