data_image0
_cell_length_a       10.553
_cell_length_b       12.789
_cell_length_c       14.443
_cell_angle_alpha    112.206
_cell_angle_beta     90.401
_cell_angle_gamma    94.839

_symmetry_space_group_name_H-M    "P 1"
_symmetry_int_tables_number       1

loop_
  _symmetry_equiv_pos_as_xyz
  'x, y, z'

loop_
  _atom_site_label
  _atom_site_occupancy
  _atom_site_fract_x
  _atom_site_fract_y
  _atom_site_fract_z
  _atom_site_thermal_displace_type
  _atom_site_B_iso_or_equiv
  _atom_site_type_symbol
  Co1      1.0000 0.26373  0.42354  0.22962  Biso   1.000  Co
  Co2      1.0000 0.81787  0.27114  0.67833  Biso   1.000  Co
  O1       1.0000 0.29890  0.39870  0.35820  Biso   1.000  O
  O2       1.0000 0.36070  0.56760  0.47621  Biso   1.000  O
  O3       1.0000 0.23270  0.05940  0.43930  Biso   1.000  O
  O4       1.0000 0.26860  0.07790  0.59440  Biso   1.000  O
  O5       1.0000 0.54410  0.59440  0.81290  Biso   1.000  O
  O6       1.0000 0.49400  0.41910  0.80790  Biso   1.000  O
  O7       1.0000 0.24510  0.70120  0.17203  Biso   1.000  O
  O8       1.0000 0.12480  0.81020  0.12620  Biso   1.000  O
  O9       1.0000 0.96660  0.38960  0.75333  Biso   1.000  O
  O10      1.0000 0.93090  0.55770  0.74731  Biso   1.000  O
  O11      1.0000 0.31290  0.60630  0.31175  Biso   1.000  O
  H1       1.0000 0.33700  0.60200  0.36600  Biso   1.000  H
  H2       1.0000 0.37600  0.61200  0.27800  Biso   1.000  H
  N1       1.0000 0.22200  0.24760  0.15560  Biso   1.000  N
  N2       1.0000 0.17930  0.08420  0.02810  Biso   1.000  N
  N3       1.0000 0.10100  0.79080  0.62450  Biso   1.000  N
  N4       1.0000 0.12140  0.73150  0.46110  Biso   1.000  N
  C1       1.0000 0.32040  0.46460  0.44780  Biso   1.000  C
  C2       1.0000 0.29440  0.41250  0.52410  Biso   1.000  C
  C3       1.0000 0.28050  0.29580  0.49450  Biso   1.000  C
  H3       1.0000 0.28900  0.25030  0.42760  Biso   1.000  H
  C4       1.0000 0.25440  0.24570  0.56280  Biso   1.000  C
  C5       1.0000 0.23690  0.31440  0.66240  Biso   1.000  C
  H4       1.0000 0.21770  0.28140  0.70860  Biso   1.000  H
  C6       1.0000 0.24810  0.43180  0.69290  Biso   1.000  C
  C7       1.0000 0.27820  0.48060  0.62370  Biso   1.000  C
  H5       1.0000 0.28760  0.55920  0.64410  Biso   1.000  H
  C8       1.0000 0.24870  0.11740  0.53010  Biso   1.000  C
  C9       1.0000 0.23360  0.50860  0.80010  Biso   1.000  C
  C10      1.0000 0.34170  0.55310  0.86550  Biso   1.000  C
  C11      1.0000 0.32970  0.62480  0.96470  Biso   1.000  C
  H6       1.0000 0.40110  0.65000  0.00820  Biso   1.000  H
  C12      1.0000 0.21210  0.65840  0.99870  Biso   1.000  C
  C13      1.0000 0.10550  0.62100  0.93360  Biso   1.000  C
  H7       1.0000 0.02740  0.64780  0.95510  Biso   1.000  H
  C14      1.0000 0.11570  0.54320  0.83570  Biso   1.000  C
  C15      1.0000 0.47020  0.51930  0.82620  Biso   1.000  C
  C16      1.0000 0.19390  0.73070  0.10780  Biso   1.000  C
  C17      1.0000 0.99430  0.49320  0.77300  Biso   1.000  C
  C18      1.0000 0.20400  0.19780  0.05770  Biso   1.000  C
  H8       1.0000 0.20790  0.23620  0.01430  Biso   1.000  H
  C19      1.0000 0.20700  0.16220  0.19080  Biso   1.000  C
  H9       1.0000 0.21370  0.17180  0.25780  Biso   1.000  H
  C20      1.0000 0.18080  0.06080  0.11290  Biso   1.000  C
  H10      1.0000 0.16680  0.98980  0.11680  Biso   1.000  H
  C21      1.0000 0.15750  0.00750  0.92620  Biso   1.000  C
  C22      1.0000 0.15510  0.05010  0.85200  Biso   1.000  C
  H11      1.0000 0.16830  0.12800  0.86890  Biso   1.000  H
  C23      1.0000 0.13320  0.97900  0.75270  Biso   1.000  C
  H12      1.0000 0.12880  0.00880  0.70330  Biso   1.000  H
  C24      1.0000 0.11810  0.86320  0.72780  Biso   1.000  C
  C25      1.0000 0.11890  0.82000  0.80160  Biso   1.000  C
  H13      1.0000 0.10590  0.74200  0.78460  Biso   1.000  H
  C26      1.0000 0.13900  0.89190  0.90150  Biso   1.000  C
  H14      1.0000 0.14010  0.86230  0.95120  Biso   1.000  H
  C27      1.0000 0.14530  0.81700  0.54720  Biso   1.000  C
  H15      1.0000 0.18710  0.88670  0.55420  Biso   1.000  H
  C28      1.0000 0.04490  0.68090  0.58390  Biso   1.000  C
  H16      1.0000 0.00590  0.63920  0.61820  Biso   1.000  H
  C29      1.0000 0.05800  0.64640  0.48430  Biso   1.000  C
  H17      1.0000 0.02850  0.57520  0.43780  Biso   1.000  H
  Co3      1.0000 0.73627  0.57646  0.77038  Biso   1.000  Co
  Co4      1.0000 0.18213  0.72886  0.32167  Biso   1.000  Co
  O12      1.0000 0.70110  0.60130  0.64180  Biso   1.000  O
  O13      1.0000 0.63930  0.43240  0.52379  Biso   1.000  O
  O14      1.0000 0.76730  0.94060  0.56070  Biso   1.000  O
  O15      1.0000 0.73140  0.92210  0.40560  Biso   1.000  O
  O16      1.0000 0.45590  0.40560  0.18710  Biso   1.000  O
  O17      1.0000 0.50600  0.58090  0.19210  Biso   1.000  O
  O18      1.0000 0.75490  0.29880  0.82797  Biso   1.000  O
  O19      1.0000 0.87520  0.18980  0.87380  Biso   1.000  O
  O20      1.0000 0.03340  0.61040  0.24667  Biso   1.000  O
  O21      1.0000 0.06910  0.44230  0.25269  Biso   1.000  O
  O22      1.0000 0.68710  0.39370  0.68825  Biso   1.000  O
  H18      1.0000 0.66300  0.39800  0.63400  Biso   1.000  H
  H19      1.0000 0.62400  0.38800  0.72200  Biso   1.000  H
  N5       1.0000 0.77800  0.75240  0.84440  Biso   1.000  N
  N6       1.0000 0.82070  0.91580  0.97190  Biso   1.000  N
  N7       1.0000 0.89900  0.20920  0.37550  Biso   1.000  N
  N8       1.0000 0.87860  0.26850  0.53890  Biso   1.000  N
  C30      1.0000 0.67960  0.53540  0.55220  Biso   1.000  C
  C31      1.0000 0.70560  0.58750  0.47590  Biso   1.000  C
  C32      1.0000 0.71950  0.70420  0.50550  Biso   1.000  C
  H20      1.0000 0.71100  0.74970  0.57240  Biso   1.000  H
  C33      1.0000 0.74560  0.75430  0.43720  Biso   1.000  C
  C34      1.0000 0.76310  0.68560  0.33760  Biso   1.000  C
  H21      1.0000 0.78230  0.71860  0.29140  Biso   1.000  H
  C35      1.0000 0.75190  0.56820  0.30710  Biso   1.000  C
  C36      1.0000 0.72180  0.51940  0.37630  Biso   1.000  C
  H22      1.0000 0.71240  0.44080  0.35590  Biso   1.000  H
  C37      1.0000 0.75130  0.88260  0.46990  Biso   1.000  C
  C38      1.0000 0.76640  0.49140  0.19990  Biso   1.000  C
  C39      1.0000 0.65830  0.44690  0.13450  Biso   1.000  C
  C40      1.0000 0.67030  0.37520  0.03530  Biso   1.000  C
  H23      1.0000 0.59890  0.35000  0.99180  Biso   1.000  H
  C41      1.0000 0.78790  0.34160  0.00130  Biso   1.000  C
  C42      1.0000 0.89450  0.37900  0.06640  Biso   1.000  C
  H24      1.0000 0.97260  0.35220  0.04490  Biso   1.000  H
  C43      1.0000 0.88430  0.45680  0.16430  Biso   1.000  C
  C44      1.0000 0.52980  0.48070  0.17380  Biso   1.000  C
  C45      1.0000 0.80610  0.26930  0.89220  Biso   1.000  C
  C46      1.0000 0.00570  0.50680  0.22700  Biso   1.000  C
  C47      1.0000 0.79600  0.80220  0.94230  Biso   1.000  C
  H25      1.0000 0.79210  0.76380  0.98570  Biso   1.000  H
  C48      1.0000 0.79300  0.83780  0.80920  Biso   1.000  C
  H26      1.0000 0.78630  0.82820  0.74220  Biso   1.000  H
  C49      1.0000 0.81920  0.93920  0.88710  Biso   1.000  C
  H27      1.0000 0.83320  0.01020  0.88320  Biso   1.000  H
  C50      1.0000 0.84250  0.99250  0.07380  Biso   1.000  C
  C51      1.0000 0.84490  0.94990  0.14800  Biso   1.000  C
  H28      1.0000 0.83170  0.87200  0.13110  Biso   1.000  H
  C52      1.0000 0.86680  0.02100  0.24730  Biso   1.000  C
  H29      1.0000 0.87120  0.99120  0.29670  Biso   1.000  H
  C53      1.0000 0.88190  0.13680  0.27220  Biso   1.000  C
  C54      1.0000 0.88110  0.18000  0.19840  Biso   1.000  C
  H30      1.0000 0.89410  0.25800  0.21540  Biso   1.000  H
  C55      1.0000 0.86100  0.10810  0.09850  Biso   1.000  C
  H31      1.0000 0.85990  0.13770  0.04880  Biso   1.000  H
  C56      1.0000 0.85470  0.18300  0.45280  Biso   1.000  C
  H32      1.0000 0.81290  0.11330  0.44580  Biso   1.000  H
  C57      1.0000 0.95510  0.31910  0.41610  Biso   1.000  C
  H33      1.0000 0.99410  0.36080  0.38180  Biso   1.000  H
  C58      1.0000 0.94200  0.35360  0.51570  Biso   1.000  C
  H34      1.0000 0.97150  0.42480  0.56220  Biso   1.000  H
