data_image0
_cell_length_a       9.247
_cell_length_b       8.824
_cell_length_c       9.693
_cell_angle_alpha    90
_cell_angle_beta     120.72
_cell_angle_gamma    90

_symmetry_space_group_name_H-M    "P 1"
_symmetry_int_tables_number       1

loop_
  _symmetry_equiv_pos_as_xyz
  'x, y, z'

loop_
  _atom_site_label
  _atom_site_occupancy
  _atom_site_fract_x
  _atom_site_fract_y
  _atom_site_fract_z
  _atom_site_thermal_displace_type
  _atom_site_B_iso_or_equiv
  _atom_site_type_symbol
  P1       1.0000 0.26320  0.89750  0.93150  Biso   1.000  P
  P2       1.0000 0.16470  0.66760  0.52690  Biso   1.000  P
  O1       1.0000 0.14300  0.59600  0.65800  Biso   1.000  O
  O2       1.0000 0.33200  0.73500  0.58600  Biso   1.000  O
  O3       1.0000 0.14900  0.55600  0.39500  Biso   1.000  O
  O4       1.0000 0.34700  0.94100  0.10700  Biso   1.000  O
  O5       1.0000 0.13800  0.77000  0.90100  Biso   1.000  O
  O6       1.0000 0.37400  0.88200  0.86800  Biso   1.000  O
  P3       1.0000 0.73680  0.89750  0.56850  Biso   1.000  P
  P4       1.0000 0.83530  0.66760  0.97310  Biso   1.000  P
  O7       1.0000 0.85700  0.59600  0.84200  Biso   1.000  O
  O8       1.0000 0.66800  0.73500  0.91400  Biso   1.000  O
  O9       1.0000 0.85100  0.55600  0.10500  Biso   1.000  O
  O10      1.0000 0.65300  0.94100  0.39300  Biso   1.000  O
  O11      1.0000 0.86200  0.77000  0.59900  Biso   1.000  O
  O12      1.0000 0.62600  0.88200  0.63200  Biso   1.000  O
  P5       1.0000 0.73680  0.10250  0.06850  Biso   1.000  P
  P6       1.0000 0.83530  0.33240  0.47310  Biso   1.000  P
  O13      1.0000 0.85700  0.40400  0.34200  Biso   1.000  O
  O14      1.0000 0.66800  0.26500  0.41400  Biso   1.000  O
  O15      1.0000 0.85100  0.44400  0.60500  Biso   1.000  O
  O16      1.0000 0.65300  0.05900  0.89300  Biso   1.000  O
  O17      1.0000 0.86200  0.23000  0.09900  Biso   1.000  O
  O18      1.0000 0.62600  0.11800  0.13200  Biso   1.000  O
  P7       1.0000 0.26320  0.10250  0.43150  Biso   1.000  P
  P8       1.0000 0.16470  0.33240  0.02690  Biso   1.000  P
  O19      1.0000 0.14300  0.40400  0.15800  Biso   1.000  O
  O20      1.0000 0.33200  0.26500  0.08600  Biso   1.000  O
  O21      1.0000 0.14900  0.44400  0.89500  Biso   1.000  O
  O22      1.0000 0.34700  0.05900  0.60700  Biso   1.000  O
  O23      1.0000 0.13800  0.23000  0.40100  Biso   1.000  O
  O24      1.0000 0.37400  0.11800  0.36800  Biso   1.000  O
  Fe1      1.0000 0.00000  0.60960  0.75000  Biso   1.000  Fe
  Fe2      1.0000 0.00000  0.39040  0.25000  Biso   1.000  Fe
  Fe3      1.0000 0.50000  0.88770  0.75000  Biso   1.000  Fe
  Fe4      1.0000 0.50000  0.11230  0.25000  Biso   1.000  Fe
