data_AHOKIR01_clean
_audit_creation_date              2014-07-02
_audit_creation_method            'Materials Studio'
_symmetry_space_group_name_H-M    'P1'
_symmetry_Int_Tables_number       1
_symmetry_cell_setting            triclinic
loop_
_symmetry_equiv_pos_as_xyz
  x,y,z
_cell_length_a                    4.3999
_cell_length_b                    6.6708
_cell_length_c                    10.5587
_cell_angle_alpha                 108.4150
_cell_angle_beta                  91.1869
_cell_angle_gamma                 90.0000
loop_
_atom_site_label
_atom_site_type_symbol
_atom_site_fract_x
_atom_site_fract_y
_atom_site_fract_z
_atom_site_U_iso_or_equiv
_atom_site_adp_type
_atom_site_occupancy
Cu1    Cu    0.50000   0.00000   0.50000   0.01267  Uiso   1.00
Cu2    Cu    0.50000   0.50000   0.50000   0.01267  Uiso   1.00
P1     P     0.98060   0.17422   0.34844   0.01267  Uiso   1.00
P2     P     0.01940   0.82578   0.65156   0.01267  Uiso   1.00
H1     H     0.23000   0.99700   0.18400   0.01267  Uiso   1.00
H2     H     0.80300   0.96100   0.06400   0.01267  Uiso   1.00
H3     H     0.77000   0.81300   0.81600   0.01267  Uiso   1.00
H4     H     0.19700   0.89700   0.93600   0.01267  Uiso   1.00
H5     H     0.77000   0.00300   0.81600   0.01267  Uiso   1.00
H6     H     0.19700   0.03900   0.93600   0.01267  Uiso   1.00
H7     H     0.23000   0.18700   0.18400   0.01267  Uiso   1.00
H8     H     0.80300   0.10300   0.06400   0.01267  Uiso   1.00
C1     C     0.13600   0.09130   0.18260   0.01267  Uiso   1.00
C2     C     0.92400   0.03330   0.06660   0.01267  Uiso   1.00
C3     C     0.86400   0.90870   0.81740   0.01267  Uiso   1.00
C4     C     0.07600   0.96670   0.93340   0.01267  Uiso   1.00
O1     O     0.79210   0.99110   0.36300   0.01267  Uiso   1.00
O2     O     0.20790   0.62810   0.63700   0.01267  Uiso   1.00
O3     O     0.20790   0.00890   0.63700   0.01267  Uiso   1.00
O4     O     0.79210   0.37190   0.36300   0.01267  Uiso   1.00
O5     O     0.25500   0.22450   0.44900   0.01267  Uiso   1.00
O6     O     0.74500   0.77550   0.55100   0.01267  Uiso   1.00
