data_image0
_cell_length_a       20.0305
_cell_length_b       6.6713
_cell_length_c       4.3996
_cell_angle_alpha    90
_cell_angle_beta     91.379
_cell_angle_gamma    90

_symmetry_space_group_name_H-M    "P 1"
_symmetry_int_tables_number       1

loop_
  _symmetry_equiv_pos_as_xyz
  'x, y, z'

loop_
  _atom_site_label
  _atom_site_occupancy
  _atom_site_fract_x
  _atom_site_fract_y
  _atom_site_fract_z
  _atom_site_thermal_displace_type
  _atom_site_B_iso_or_equiv
  _atom_site_type_symbol
  O1       1.0000 0.18150  0.30400  0.30080  Biso   1.000  O
  O2       1.0000 0.68150  0.80400  0.30080  Biso   1.000  O
  O3       1.0000 0.81850  0.30400  0.69920  Biso   1.000  O
  O4       1.0000 0.31850  0.80400  0.69920  Biso   1.000  O
  O5       1.0000 0.81850  0.69600  0.69920  Biso   1.000  O
  O6       1.0000 0.31850  0.19600  0.69920  Biso   1.000  O
  O7       1.0000 0.18150  0.69600  0.30080  Biso   1.000  O
  O8       1.0000 0.68150  0.19600  0.30080  Biso   1.000  O
  Cu1      1.0000 0.25000  0.25000  0.00000  Biso   1.000  Cu
  Cu2      1.0000 0.75000  0.25000  0.00000  Biso   1.000  Cu
  Cu3      1.0000 0.75000  0.75000  0.00000  Biso   1.000  Cu
  Cu4      1.0000 0.25000  0.75000  0.00000  Biso   1.000  Cu
  P1       1.0000 0.17500  0.50000  0.47880  Biso   1.000  P
  C1       1.0000 0.09610  0.50000  0.66700  Biso   1.000  C
  C2       1.0000 0.03690  0.50000  0.43800  Biso   1.000  C
  P2       1.0000 0.67500  0.00000  0.47880  Biso   1.000  P
  C3       1.0000 0.59610  0.00000  0.66700  Biso   1.000  C
  C4       1.0000 0.53690  0.00000  0.43800  Biso   1.000  C
  P3       1.0000 0.82500  0.50000  0.52120  Biso   1.000  P
  C5       1.0000 0.90390  0.50000  0.33300  Biso   1.000  C
  C6       1.0000 0.96310  0.50000  0.56200  Biso   1.000  C
  P4       1.0000 0.32500  0.00000  0.52120  Biso   1.000  P
  C7       1.0000 0.40390  0.00000  0.33300  Biso   1.000  C
  C8       1.0000 0.46310  0.00000  0.56200  Biso   1.000  C
  O9       1.0000 0.27230  0.00000  0.25300  Biso   1.000  O
  O10      1.0000 0.77230  0.50000  0.25300  Biso   1.000  O
  O11      1.0000 0.72770  0.00000  0.74700  Biso   1.000  O
  O12      1.0000 0.22770  0.50000  0.74700  Biso   1.000  O
