data_AHUTIH_clean
_audit_creation_date              2014-07-02
_audit_creation_method            'Materials Studio'
_symmetry_space_group_name_H-M    'P1'
_symmetry_Int_Tables_number       1
_symmetry_cell_setting            triclinic
loop_
_symmetry_equiv_pos_as_xyz
  x,y,z
_cell_length_a                    6.1071
_cell_length_b                    7.6962
_cell_length_c                    22.7020
_cell_angle_alpha                 90.0000
_cell_angle_beta                  91.6450
_cell_angle_gamma                 90.0000
loop_
_atom_site_label
_atom_site_type_symbol
_atom_site_fract_x
_atom_site_fract_y
_atom_site_fract_z
_atom_site_U_iso_or_equiv
_atom_site_adp_type
_atom_site_occupancy
La1    La    0.54514   0.99824   0.14605   0.01267  Uiso   1.00
La2    La    0.45486   0.49824   0.35395   0.01267  Uiso   1.00
La3    La    0.45486   0.00176   0.85395   0.01267  Uiso   1.00
La4    La    0.54514   0.50176   0.64605   0.01267  Uiso   1.00
H1     H     0.95960   0.02070   0.28270   0.01267  Uiso   1.00
H2     H     0.88620   0.93270   0.37440   0.01267  Uiso   1.00
H3     H     0.04040   0.52070   0.21730   0.01267  Uiso   1.00
H4     H     0.11380   0.43270   0.12560   0.01267  Uiso   1.00
H5     H     0.04040   0.97930   0.71730   0.01267  Uiso   1.00
H6     H     0.11380   0.06730   0.62560   0.01267  Uiso   1.00
H7     H     0.95960   0.47930   0.78270   0.01267  Uiso   1.00
H8     H     0.88620   0.56730   0.87440   0.01267  Uiso   1.00
C1     C     0.63990   0.10310   0.28860   0.01267  Uiso   1.00
C2     C     0.81750   0.96300   0.28630   0.01267  Uiso   1.00
C3     C     0.82190   0.85990   0.34300   0.01267  Uiso   1.00
C4     C     0.95330   0.69420   0.33970   0.01267  Uiso   1.00
C5     C     0.58380   0.07510   0.99920   0.01267  Uiso   1.00
C6     C     0.36010   0.60310   0.21140   0.01267  Uiso   1.00
C7     C     0.18250   0.46300   0.21370   0.01267  Uiso   1.00
C8     C     0.17810   0.35990   0.15700   0.01267  Uiso   1.00
C9     C     0.04670   0.19420   0.16030   0.01267  Uiso   1.00
C10    C     0.41620   0.57510   0.50080   0.01267  Uiso   1.00
C11    C     0.36010   0.89690   0.71140   0.01267  Uiso   1.00
C12    C     0.18250   0.03700   0.71370   0.01267  Uiso   1.00
C13    C     0.17810   0.14010   0.65700   0.01267  Uiso   1.00
C14    C     0.04670   0.30580   0.66030   0.01267  Uiso   1.00
C15    C     0.41620   0.92490   0.00080   0.01267  Uiso   1.00
C16    C     0.63990   0.39690   0.78860   0.01267  Uiso   1.00
C17    C     0.81750   0.53700   0.78630   0.01267  Uiso   1.00
C18    C     0.82190   0.64010   0.84300   0.01267  Uiso   1.00
C19    C     0.95330   0.80580   0.83970   0.01267  Uiso   1.00
C20    C     0.58380   0.42490   0.49920   0.01267  Uiso   1.00
O1     O     0.48940   0.10320   0.24920   0.01267  Uiso   1.00
O2     O     0.65000   0.21280   0.32990   0.01267  Uiso   1.00
O3     O     0.77980   0.85650   0.23470   0.01267  Uiso   1.00
O4     O     0.60020   0.81460   0.35860   0.01267  Uiso   1.00
O5     O     0.85640   0.55240   0.34540   0.01267  Uiso   1.00
O6     O     0.15340   0.70950   0.33340   0.01267  Uiso   1.00
O7     O     0.62360   0.13230   0.94800   0.01267  Uiso   1.00
O8     O     0.65940   0.13060   0.04640   0.01267  Uiso   1.00
O9     O     0.51060   0.60320   0.25080   0.01267  Uiso   1.00
O10    O     0.35000   0.71280   0.17010   0.01267  Uiso   1.00
O11    O     0.22020   0.35650   0.26530   0.01267  Uiso   1.00
O12    O     0.39980   0.31460   0.14140   0.01267  Uiso   1.00
O13    O     0.14360   0.05240   0.15460   0.01267  Uiso   1.00
O14    O     0.84660   0.20950   0.16660   0.01267  Uiso   1.00
O15    O     0.37640   0.63230   0.55200   0.01267  Uiso   1.00
O16    O     0.34060   0.63060   0.45360   0.01267  Uiso   1.00
O17    O     0.51060   0.89680   0.75080   0.01267  Uiso   1.00
O18    O     0.35000   0.78720   0.67010   0.01267  Uiso   1.00
O19    O     0.22020   0.14350   0.76530   0.01267  Uiso   1.00
O20    O     0.39980   0.18540   0.64140   0.01267  Uiso   1.00
O21    O     0.14360   0.44760   0.65460   0.01267  Uiso   1.00
O22    O     0.84660   0.29050   0.66660   0.01267  Uiso   1.00
O23    O     0.37640   0.86770   0.05200   0.01267  Uiso   1.00
O24    O     0.34060   0.86940   0.95360   0.01267  Uiso   1.00
O25    O     0.48940   0.39680   0.74920   0.01267  Uiso   1.00
O26    O     0.65000   0.28720   0.82990   0.01267  Uiso   1.00
O27    O     0.77980   0.64350   0.73470   0.01267  Uiso   1.00
O28    O     0.60020   0.68540   0.85860   0.01267  Uiso   1.00
O29    O     0.85640   0.94760   0.84540   0.01267  Uiso   1.00
O30    O     0.15340   0.79050   0.83340   0.01267  Uiso   1.00
O31    O     0.62360   0.36770   0.44800   0.01267  Uiso   1.00
O32    O     0.65940   0.36940   0.54640   0.01267  Uiso   1.00
