data_image0
_cell_length_a       14.4144
_cell_length_b       23.3964
_cell_length_c       15.5641
_cell_angle_alpha    90
_cell_angle_beta     107.632
_cell_angle_gamma    90

_symmetry_space_group_name_H-M    "P 1"
_symmetry_int_tables_number       1

loop_
  _symmetry_equiv_pos_as_xyz
  'x, y, z'

loop_
  _atom_site_label
  _atom_site_occupancy
  _atom_site_fract_x
  _atom_site_fract_y
  _atom_site_fract_z
  _atom_site_thermal_displace_type
  _atom_site_B_iso_or_equiv
  _atom_site_type_symbol
  Cd1      1.0000 0.24684  0.44474  0.58252  Biso   1.000  Cd
  Cd2      1.0000 0.27371  0.30844  0.69252  Biso   1.000  Cd
  O1       1.0000 0.41290  0.43560  0.60010  Biso   1.000  O
  O2       1.0000 0.33750  0.35230  0.59120  Biso   1.000  O
  C1       1.0000 0.41610  0.38220  0.60470  Biso   1.000  C
  C2       1.0000 0.51030  0.35240  0.62520  Biso   1.000  C
  C3       1.0000 0.68920  0.29700  0.67260  Biso   1.000  C
  C4       1.0000 0.60400  0.26630  0.63610  Biso   1.000  C
  H1       1.0000 0.60660  0.22730  0.62560  Biso   1.000  H
  C5       1.0000 0.51510  0.29390  0.61520  Biso   1.000  C
  H2       1.0000 0.45790  0.27290  0.59410  Biso   1.000  H
  C6       1.0000 0.59710  0.38340  0.65710  Biso   1.000  C
  H3       1.0000 0.59520  0.42300  0.66200  Biso   1.000  H
  C7       1.0000 0.68550  0.35540  0.68140  Biso   1.000  C
  H4       1.0000 0.74280  0.37610  0.70380  Biso   1.000  H
  O3       1.0000 0.16000  0.38100  0.63230  Biso   1.000  O
  N1       1.0000 0.78230  0.26880  0.69840  Biso   1.000  N
  C8       1.0000 0.73450  0.20160  0.79670  Biso   1.000  C
  H5       1.0000 0.69320  0.22900  0.80850  Biso   1.000  H
  C9       1.0000 0.79400  0.21550  0.74150  Biso   1.000  C
  O4       1.0000 0.04510  0.40720  0.50930  Biso   1.000  O
  O5       1.0000 0.18680  0.22300  0.70990  Biso   1.000  O
  O6       1.0000 0.16660  0.25850  0.57610  Biso   1.000  O
  C10      1.0000 0.99940  0.34790  0.61260  Biso   1.000  C
  C11      1.0000 0.07020  0.38060  0.58060  Biso   1.000  C
  C12      1.0000 0.06300  0.18100  0.58910  Biso   1.000  C
  C13      1.0000 0.02070  0.32780  0.70060  Biso   1.000  C
  H6       1.0000 0.08310  0.33230  0.74040  Biso   1.000  H
  C14      1.0000 0.73830  0.14810  0.83220  Biso   1.000  C
  H7       1.0000 0.69520  0.13820  0.86380  Biso   1.000  H
  C15      1.0000 0.14410  0.22290  0.62870  Biso   1.000  C
  N2       1.0000 0.85360  0.05580  0.46480  Biso   1.000  N
  C16      1.0000 0.81720  0.01750  0.51930  Biso   1.000  C
  C17      1.0000 0.84030  0.00660  0.20010  Biso   1.000  C
  C18      1.0000 0.76790  0.01080  0.32150  Biso   1.000  C
  H8       1.0000 0.71600  0.00290  0.34340  Biso   1.000  H
  C19      1.0000 0.94960  0.30090  0.72930  Biso   1.000  C
  H9       1.0000 0.96400  0.28770  0.78820  Biso   1.000  H
  C20      1.0000 0.91870  0.03710  0.25370  Biso   1.000  C
  H10      1.0000 0.96880  0.04730  0.23070  Biso   1.000  H
  C21      1.0000 0.05690  0.13090  0.63290  Biso   1.000  C
  H11      1.0000 0.10030  0.12410  0.68980  Biso   1.000  H
  C22      1.0000 0.98630  0.08980  0.59330  Biso   1.000  C
  H12      1.0000 0.98350  0.05590  0.62350  Biso   1.000  H
  C23      1.0000 0.77380  0.03980  0.57990  Biso   1.000  C
  H13      1.0000 0.76730  0.07910  0.58460  Biso   1.000  H
  C24      1.0000 0.86200  0.17630  0.73170  Biso   1.000  C
  H14      1.0000 0.90240  0.18520  0.69700  Biso   1.000  H
  C25      1.0000 0.82700  0.95900  0.51110  Biso   1.000  C
  H15      1.0000 0.85630  0.94430  0.47020  Biso   1.000  H
  C26      1.0000 0.84950  0.04030  0.37490  Biso   1.000  C
  C27      1.0000 0.92100  0.09960  0.50970  Biso   1.000  C
  C28      1.0000 0.92420  0.05280  0.34020  Biso   1.000  C
  H16      1.0000 0.97900  0.07210  0.37560  Biso   1.000  H
  C29      1.0000 0.86960  0.12340  0.77440  Biso   1.000  C
  H17      1.0000 0.91800  0.09800  0.77110  Biso   1.000  H
  C30      1.0000 0.83670  0.31270  0.57990  Biso   1.000  C
  H18      1.0000 0.77540  0.30670  0.53890  Biso   1.000  H
  C31      1.0000 0.74790  0.94490  0.62810  Biso   1.000  C
  C32      1.0000 0.99500  0.19140  0.50560  Biso   1.000  C
  H19      1.0000 0.99810  0.22530  0.47550  Biso   1.000  H
  C33      1.0000 0.85720  0.29380  0.66970  Biso   1.000  C
  C34      1.0000 0.76520  0.99360  0.23590  Biso   1.000  C
  H20      1.0000 0.71200  0.97280  0.20130  Biso   1.000  H
  C35      1.0000 0.73970  0.00250  0.63430  Biso   1.000  C
  H21      1.0000 0.71080  0.01760  0.67530  Biso   1.000  H
  C36      1.0000 0.79230  0.92260  0.56550  Biso   1.000  C
  H22      1.0000 0.79840  0.88320  0.56060  Biso   1.000  H
  C37      1.0000 0.90650  0.33950  0.55400  Biso   1.000  C
  H23      1.0000 0.89190  0.35260  0.49500  Biso   1.000  H
  C38      1.0000 0.92160  0.15140  0.46630  Biso   1.000  C
  H24      1.0000 0.87420  0.15950  0.41210  Biso   1.000  H
  C39      1.0000 0.80530  0.10800  0.82210  Biso   1.000  C
  C40      1.0000 0.83560  0.99030  0.10780  Biso   1.000  C
  O7       1.0000 0.67530  0.92610  0.74280  Biso   1.000  O
  C41      1.0000 0.71690  0.90600  0.68930  Biso   1.000  C
  O8       1.0000 0.77550  0.95200  0.06660  Biso   1.000  O
  O9       1.0000 0.89400  0.01650  0.07310  Biso   1.000  O
  C42      1.0000 0.80680  0.04960  0.86050  Biso   1.000  C
  O10      1.0000 0.73130  0.85250  0.68190  Biso   1.000  O
  O11      1.0000 0.87780  0.01670  0.86860  Biso   1.000  O
  O12      1.0000 0.73140  0.03510  0.87850  Biso   1.000  O
  Cd3      1.0000 0.75316  0.94474  0.91748  Biso   1.000  Cd
  Cd4      1.0000 0.72629  0.80844  0.80748  Biso   1.000  Cd
  O13      1.0000 0.58710  0.93560  0.89990  Biso   1.000  O
  O14      1.0000 0.66250  0.85230  0.90880  Biso   1.000  O
  C43      1.0000 0.58390  0.88220  0.89530  Biso   1.000  C
  C44      1.0000 0.48970  0.85240  0.87480  Biso   1.000  C
  C45      1.0000 0.31080  0.79700  0.82740  Biso   1.000  C
  C46      1.0000 0.39600  0.76630  0.86390  Biso   1.000  C
  H25      1.0000 0.39340  0.72730  0.87440  Biso   1.000  H
  C47      1.0000 0.48490  0.79390  0.88480  Biso   1.000  C
  H26      1.0000 0.54210  0.77290  0.90590  Biso   1.000  H
  C48      1.0000 0.40290  0.88340  0.84290  Biso   1.000  C
  H27      1.0000 0.40480  0.92300  0.83800  Biso   1.000  H
  C49      1.0000 0.31450  0.85540  0.81860  Biso   1.000  C
  H28      1.0000 0.25720  0.87610  0.79620  Biso   1.000  H
  O15      1.0000 0.84000  0.88100  0.86770  Biso   1.000  O
  N3       1.0000 0.21770  0.76880  0.80160  Biso   1.000  N
  C50      1.0000 0.26550  0.70160  0.70330  Biso   1.000  C
  H29      1.0000 0.30680  0.72900  0.69150  Biso   1.000  H
  C51      1.0000 0.20600  0.71550  0.75850  Biso   1.000  C
  O16      1.0000 0.95490  0.90720  0.99070  Biso   1.000  O
  O17      1.0000 0.81320  0.72300  0.79010  Biso   1.000  O
  O18      1.0000 0.83340  0.75850  0.92390  Biso   1.000  O
  C52      1.0000 0.00060  0.84790  0.88740  Biso   1.000  C
  C53      1.0000 0.92980  0.88060  0.91940  Biso   1.000  C
  C54      1.0000 0.93700  0.68100  0.91090  Biso   1.000  C
  C55      1.0000 0.97930  0.82780  0.79940  Biso   1.000  C
  H30      1.0000 0.91690  0.83230  0.75960  Biso   1.000  H
  C56      1.0000 0.26170  0.64810  0.66780  Biso   1.000  C
  H31      1.0000 0.30480  0.63820  0.63620  Biso   1.000  H
  C57      1.0000 0.85590  0.72290  0.87130  Biso   1.000  C
  N4       1.0000 0.14640  0.55580  0.03520  Biso   1.000  N
  C58      1.0000 0.18280  0.51750  0.98070  Biso   1.000  C
  C59      1.0000 0.15970  0.50660  0.29990  Biso   1.000  C
  C60      1.0000 0.23210  0.51080  0.17850  Biso   1.000  C
  H32      1.0000 0.28400  0.50290  0.15660  Biso   1.000  H
  C61      1.0000 0.05040  0.80090  0.77070  Biso   1.000  C
  H33      1.0000 0.03600  0.78770  0.71180  Biso   1.000  H
  C62      1.0000 0.08130  0.53710  0.24630  Biso   1.000  C
  H34      1.0000 0.03120  0.54730  0.26930  Biso   1.000  H
  C63      1.0000 0.94310  0.63090  0.86710  Biso   1.000  C
  H35      1.0000 0.89970  0.62410  0.81020  Biso   1.000  H
  C64      1.0000 0.01370  0.58980  0.90670  Biso   1.000  C
  H36      1.0000 0.01650  0.55590  0.87650  Biso   1.000  H
  C65      1.0000 0.22620  0.53980  0.92010  Biso   1.000  C
  H37      1.0000 0.23270  0.57910  0.91540  Biso   1.000  H
  C66      1.0000 0.13800  0.67630  0.76830  Biso   1.000  C
  H38      1.0000 0.09760  0.68520  0.80300  Biso   1.000  H
  C67      1.0000 0.17300  0.45900  0.98890  Biso   1.000  C
  H39      1.0000 0.14370  0.44430  0.02980  Biso   1.000  H
  C68      1.0000 0.15050  0.54030  0.12510  Biso   1.000  C
  C69      1.0000 0.07900  0.59960  0.99030  Biso   1.000  C
  C70      1.0000 0.07580  0.55280  0.15980  Biso   1.000  C
  H40      1.0000 0.02100  0.57210  0.12440  Biso   1.000  H
  C71      1.0000 0.13040  0.62340  0.72560  Biso   1.000  C
  H41      1.0000 0.08200  0.59800  0.72890  Biso   1.000  H
  C72      1.0000 0.16330  0.81270  0.92010  Biso   1.000  C
  H42      1.0000 0.22460  0.80670  0.96110  Biso   1.000  H
  C73      1.0000 0.25210  0.44490  0.87190  Biso   1.000  C
  C74      1.0000 0.00500  0.69140  0.99440  Biso   1.000  C
  H43      1.0000 0.00190  0.72530  0.02450  Biso   1.000  H
  C75      1.0000 0.14280  0.79380  0.83030  Biso   1.000  C
  C76      1.0000 0.23480  0.49360  0.26410  Biso   1.000  C
  H44      1.0000 0.28800  0.47280  0.29870  Biso   1.000  H
  C77      1.0000 0.26030  0.50250  0.86570  Biso   1.000  C
  H45      1.0000 0.28920  0.51760  0.82470  Biso   1.000  H
  C78      1.0000 0.20770  0.42260  0.93450  Biso   1.000  C
  H46      1.0000 0.20160  0.38320  0.93940  Biso   1.000  H
  C79      1.0000 0.09350  0.83950  0.94600  Biso   1.000  C
  H47      1.0000 0.10810  0.85260  0.00500  Biso   1.000  H
  C80      1.0000 0.07840  0.65140  0.03370  Biso   1.000  C
  H48      1.0000 0.12580  0.65950  0.08790  Biso   1.000  H
  C81      1.0000 0.19470  0.60800  0.67790  Biso   1.000  C
  C82      1.0000 0.16440  0.49030  0.39220  Biso   1.000  C
  O19      1.0000 0.32470  0.42610  0.75720  Biso   1.000  O
  C83      1.0000 0.28310  0.40600  0.81070  Biso   1.000  C
  O20      1.0000 0.22450  0.45200  0.43340  Biso   1.000  O
  O21      1.0000 0.10600  0.51650  0.42690  Biso   1.000  O
  C84      1.0000 0.19320  0.54960  0.63950  Biso   1.000  C
  O22      1.0000 0.26870  0.35250  0.81810  Biso   1.000  O
  O23      1.0000 0.12220  0.51670  0.63140  Biso   1.000  O
  O24      1.0000 0.26860  0.53510  0.62150  Biso   1.000  O
  Cd5      1.0000 0.75316  0.55526  0.41748  Biso   1.000  Cd
  Cd6      1.0000 0.72629  0.69156  0.30748  Biso   1.000  Cd
  O25      1.0000 0.58710  0.56440  0.39990  Biso   1.000  O
  O26      1.0000 0.66250  0.64770  0.40880  Biso   1.000  O
  C85      1.0000 0.58390  0.61780  0.39530  Biso   1.000  C
  C86      1.0000 0.48970  0.64760  0.37480  Biso   1.000  C
  C87      1.0000 0.31080  0.70300  0.32740  Biso   1.000  C
  C88      1.0000 0.39600  0.73370  0.36390  Biso   1.000  C
  H49      1.0000 0.39340  0.77270  0.37440  Biso   1.000  H
  C89      1.0000 0.48490  0.70610  0.38480  Biso   1.000  C
  H50      1.0000 0.54210  0.72710  0.40590  Biso   1.000  H
  C90      1.0000 0.40290  0.61660  0.34290  Biso   1.000  C
  H51      1.0000 0.40480  0.57700  0.33800  Biso   1.000  H
  C91      1.0000 0.31450  0.64460  0.31860  Biso   1.000  C
  H52      1.0000 0.25720  0.62390  0.29620  Biso   1.000  H
  O27      1.0000 0.84000  0.61900  0.36770  Biso   1.000  O
  N5       1.0000 0.21770  0.73120  0.30160  Biso   1.000  N
  C92      1.0000 0.26550  0.79840  0.20330  Biso   1.000  C
  H53      1.0000 0.30680  0.77100  0.19150  Biso   1.000  H
  C93      1.0000 0.20600  0.78450  0.25850  Biso   1.000  C
  O28      1.0000 0.95490  0.59280  0.49070  Biso   1.000  O
  O29      1.0000 0.81320  0.77700  0.29010  Biso   1.000  O
  O30      1.0000 0.83340  0.74150  0.42390  Biso   1.000  O
  C94      1.0000 0.00060  0.65210  0.38740  Biso   1.000  C
  C95      1.0000 0.92980  0.61940  0.41940  Biso   1.000  C
  C96      1.0000 0.93700  0.81900  0.41090  Biso   1.000  C
  C97      1.0000 0.97930  0.67220  0.29940  Biso   1.000  C
  H54      1.0000 0.91690  0.66770  0.25960  Biso   1.000  H
  C98      1.0000 0.26170  0.85190  0.16780  Biso   1.000  C
  H55      1.0000 0.30480  0.86180  0.13620  Biso   1.000  H
  C99      1.0000 0.85590  0.77710  0.37130  Biso   1.000  C
  N6       1.0000 0.14640  0.94420  0.53520  Biso   1.000  N
  C100     1.0000 0.18280  0.98250  0.48070  Biso   1.000  C
  C101     1.0000 0.15970  0.99340  0.79990  Biso   1.000  C
  C102     1.0000 0.23210  0.98920  0.67850  Biso   1.000  C
  H56      1.0000 0.28400  0.99710  0.65660  Biso   1.000  H
  C103     1.0000 0.05040  0.69910  0.27070  Biso   1.000  C
  H57      1.0000 0.03600  0.71230  0.21180  Biso   1.000  H
  C104     1.0000 0.08130  0.96290  0.74630  Biso   1.000  C
  H58      1.0000 0.03120  0.95270  0.76930  Biso   1.000  H
  C105     1.0000 0.94310  0.86910  0.36710  Biso   1.000  C
  H59      1.0000 0.89970  0.87590  0.31020  Biso   1.000  H
  C106     1.0000 0.01370  0.91020  0.40670  Biso   1.000  C
  H60      1.0000 0.01650  0.94410  0.37650  Biso   1.000  H
  C107     1.0000 0.22620  0.96020  0.42010  Biso   1.000  C
  H61      1.0000 0.23270  0.92090  0.41540  Biso   1.000  H
  C108     1.0000 0.13800  0.82370  0.26830  Biso   1.000  C
  H62      1.0000 0.09760  0.81480  0.30300  Biso   1.000  H
  C109     1.0000 0.17300  0.04100  0.48890  Biso   1.000  C
  H63      1.0000 0.14370  0.05570  0.52980  Biso   1.000  H
  C110     1.0000 0.15050  0.95970  0.62510  Biso   1.000  C
  C111     1.0000 0.07900  0.90040  0.49030  Biso   1.000  C
  C112     1.0000 0.07580  0.94720  0.65980  Biso   1.000  C
  H64      1.0000 0.02100  0.92790  0.62440  Biso   1.000  H
  C113     1.0000 0.13040  0.87660  0.22560  Biso   1.000  C
  H65      1.0000 0.08200  0.90200  0.22890  Biso   1.000  H
  C114     1.0000 0.16330  0.68730  0.42010  Biso   1.000  C
  H66      1.0000 0.22460  0.69330  0.46110  Biso   1.000  H
  C115     1.0000 0.25210  0.05510  0.37190  Biso   1.000  C
  C116     1.0000 0.00500  0.80860  0.49440  Biso   1.000  C
  H67      1.0000 0.00190  0.77470  0.52450  Biso   1.000  H
  C117     1.0000 0.14280  0.70620  0.33030  Biso   1.000  C
  C118     1.0000 0.23480  0.00640  0.76410  Biso   1.000  C
  H68      1.0000 0.28800  0.02720  0.79870  Biso   1.000  H
  C119     1.0000 0.26030  0.99750  0.36570  Biso   1.000  C
  H69      1.0000 0.28920  0.98240  0.32470  Biso   1.000  H
  C120     1.0000 0.20770  0.07740  0.43450  Biso   1.000  C
  H70      1.0000 0.20160  0.11680  0.43940  Biso   1.000  H
  C121     1.0000 0.09350  0.66050  0.44600  Biso   1.000  C
  H71      1.0000 0.10810  0.64740  0.50500  Biso   1.000  H
  C122     1.0000 0.07840  0.84860  0.53370  Biso   1.000  C
  H72      1.0000 0.12580  0.84050  0.58790  Biso   1.000  H
  C123     1.0000 0.19470  0.89200  0.17790  Biso   1.000  C
  C124     1.0000 0.16440  0.00970  0.89220  Biso   1.000  C
  O31      1.0000 0.32470  0.07390  0.25720  Biso   1.000  O
  C125     1.0000 0.28310  0.09400  0.31070  Biso   1.000  C
  O32      1.0000 0.22450  0.04800  0.93340  Biso   1.000  O
  O33      1.0000 0.10600  0.98350  0.92690  Biso   1.000  O
  C126     1.0000 0.19320  0.95040  0.13950  Biso   1.000  C
  O34      1.0000 0.26870  0.14750  0.31810  Biso   1.000  O
  O35      1.0000 0.12220  0.98330  0.13140  Biso   1.000  O
  O36      1.0000 0.26860  0.96490  0.12150  Biso   1.000  O
  Cd7      1.0000 0.24684  0.05526  0.08252  Biso   1.000  Cd
  Cd8      1.0000 0.27371  0.19156  0.19252  Biso   1.000  Cd
  O37      1.0000 0.41290  0.06440  0.10010  Biso   1.000  O
  O38      1.0000 0.33750  0.14770  0.09120  Biso   1.000  O
  C127     1.0000 0.41610  0.11780  0.10470  Biso   1.000  C
  C128     1.0000 0.51030  0.14760  0.12520  Biso   1.000  C
  C129     1.0000 0.68920  0.20300  0.17260  Biso   1.000  C
  C130     1.0000 0.60400  0.23370  0.13610  Biso   1.000  C
  H73      1.0000 0.60660  0.27270  0.12560  Biso   1.000  H
  C131     1.0000 0.51510  0.20610  0.11520  Biso   1.000  C
  H74      1.0000 0.45790  0.22710  0.09410  Biso   1.000  H
  C132     1.0000 0.59710  0.11660  0.15710  Biso   1.000  C
  H75      1.0000 0.59520  0.07700  0.16200  Biso   1.000  H
  C133     1.0000 0.68550  0.14460  0.18140  Biso   1.000  C
  H76      1.0000 0.74280  0.12390  0.20380  Biso   1.000  H
  O39      1.0000 0.16000  0.11900  0.13230  Biso   1.000  O
  N7       1.0000 0.78230  0.23120  0.19840  Biso   1.000  N
  C134     1.0000 0.73450  0.29840  0.29670  Biso   1.000  C
  H77      1.0000 0.69320  0.27100  0.30850  Biso   1.000  H
  C135     1.0000 0.79400  0.28450  0.24150  Biso   1.000  C
  O40      1.0000 0.04510  0.09280  0.00930  Biso   1.000  O
  O41      1.0000 0.18680  0.27700  0.20990  Biso   1.000  O
  O42      1.0000 0.16660  0.24150  0.07610  Biso   1.000  O
  C136     1.0000 0.99940  0.15210  0.11260  Biso   1.000  C
  C137     1.0000 0.07020  0.11940  0.08060  Biso   1.000  C
  C138     1.0000 0.06300  0.31900  0.08910  Biso   1.000  C
  C139     1.0000 0.02070  0.17220  0.20060  Biso   1.000  C
  H78      1.0000 0.08310  0.16770  0.24040  Biso   1.000  H
  C140     1.0000 0.73830  0.35190  0.33220  Biso   1.000  C
  H79      1.0000 0.69520  0.36180  0.36380  Biso   1.000  H
  C141     1.0000 0.14410  0.27710  0.12870  Biso   1.000  C
  N8       1.0000 0.85360  0.44420  0.96480  Biso   1.000  N
  C142     1.0000 0.81720  0.48250  0.01930  Biso   1.000  C
  C143     1.0000 0.84030  0.49340  0.70010  Biso   1.000  C
  C144     1.0000 0.76790  0.48920  0.82150  Biso   1.000  C
  H80      1.0000 0.71600  0.49710  0.84340  Biso   1.000  H
  C145     1.0000 0.94960  0.19910  0.22930  Biso   1.000  C
  H81      1.0000 0.96400  0.21230  0.28820  Biso   1.000  H
  C146     1.0000 0.91870  0.46290  0.75370  Biso   1.000  C
  H82      1.0000 0.96880  0.45270  0.73070  Biso   1.000  H
  C147     1.0000 0.05690  0.36910  0.13290  Biso   1.000  C
  H83      1.0000 0.10030  0.37590  0.18980  Biso   1.000  H
  C148     1.0000 0.98630  0.41020  0.09330  Biso   1.000  C
  H84      1.0000 0.98350  0.44410  0.12350  Biso   1.000  H
  C149     1.0000 0.77380  0.46020  0.07990  Biso   1.000  C
  H85      1.0000 0.76730  0.42090  0.08460  Biso   1.000  H
  C150     1.0000 0.86200  0.32370  0.23170  Biso   1.000  C
  H86      1.0000 0.90240  0.31480  0.19700  Biso   1.000  H
  C151     1.0000 0.82700  0.54100  0.01110  Biso   1.000  C
  H87      1.0000 0.85630  0.55570  0.97020  Biso   1.000  H
  C152     1.0000 0.84950  0.45970  0.87490  Biso   1.000  C
  C153     1.0000 0.92100  0.40040  0.00970  Biso   1.000  C
  C154     1.0000 0.92420  0.44720  0.84020  Biso   1.000  C
  H88      1.0000 0.97900  0.42790  0.87560  Biso   1.000  H
  C155     1.0000 0.86960  0.37660  0.27440  Biso   1.000  C
  H89      1.0000 0.91800  0.40200  0.27110  Biso   1.000  H
  C156     1.0000 0.83670  0.18730  0.07990  Biso   1.000  C
  H90      1.0000 0.77540  0.19330  0.03890  Biso   1.000  H
  C157     1.0000 0.74790  0.55510  0.12810  Biso   1.000  C
  C158     1.0000 0.99500  0.30860  0.00560  Biso   1.000  C
  H91      1.0000 0.99810  0.27470  0.97550  Biso   1.000  H
  C159     1.0000 0.85720  0.20620  0.16970  Biso   1.000  C
  C160     1.0000 0.76520  0.50640  0.73590  Biso   1.000  C
  H92      1.0000 0.71200  0.52720  0.70130  Biso   1.000  H
  C161     1.0000 0.73970  0.49750  0.13430  Biso   1.000  C
  H93      1.0000 0.71080  0.48240  0.17530  Biso   1.000  H
  C162     1.0000 0.79230  0.57740  0.06550  Biso   1.000  C
  H94      1.0000 0.79840  0.61680  0.06060  Biso   1.000  H
  C163     1.0000 0.90650  0.16050  0.05400  Biso   1.000  C
  H95      1.0000 0.89190  0.14740  0.99500  Biso   1.000  H
  C164     1.0000 0.92160  0.34860  0.96630  Biso   1.000  C
  H96      1.0000 0.87420  0.34050  0.91210  Biso   1.000  H
  C165     1.0000 0.80530  0.39200  0.32210  Biso   1.000  C
  C166     1.0000 0.83560  0.50970  0.60780  Biso   1.000  C
  O43      1.0000 0.67530  0.57390  0.24280  Biso   1.000  O
  C167     1.0000 0.71690  0.59400  0.18930  Biso   1.000  C
  O44      1.0000 0.77550  0.54800  0.56660  Biso   1.000  O
  O45      1.0000 0.89400  0.48350  0.57310  Biso   1.000  O
  C168     1.0000 0.80680  0.45040  0.36050  Biso   1.000  C
  O46      1.0000 0.73130  0.64750  0.18190  Biso   1.000  O
  O47      1.0000 0.87780  0.48330  0.36860  Biso   1.000  O
  O48      1.0000 0.73140  0.46490  0.37850  Biso   1.000  O
  Cd9      1.0000 0.00000  0.50000  0.50000  Biso   1.000  Cd
  Cd10     1.0000 0.00000  0.00000  0.00000  Biso   1.000  Cd
