data_image0
_cell_length_a       10.895
_cell_length_b       17.52
_cell_length_c       20.545
_cell_angle_alpha    90
_cell_angle_beta     99.16
_cell_angle_gamma    90

_symmetry_space_group_name_H-M    "P 1"
_symmetry_int_tables_number       1

loop_
  _symmetry_equiv_pos_as_xyz
  'x, y, z'

loop_
  _atom_site_label
  _atom_site_occupancy
  _atom_site_fract_x
  _atom_site_fract_y
  _atom_site_fract_z
  _atom_site_thermal_displace_type
  _atom_site_B_iso_or_equiv
  _atom_site_type_symbol
  O1       1.0000 0.35580  0.94386  0.50388  Biso   1.000  O
  N1       1.0000 0.49030  0.98080  0.86938  Biso   1.000  N
  C1       1.0000 0.37970  0.00740  0.84060  Biso   1.000  C
  H1       1.0000 0.36000  0.05790  0.84830  Biso   1.000  H
  C2       1.0000 0.51430  0.90820  0.85620  Biso   1.000  C
  H2       1.0000 0.59130  0.88850  0.87450  Biso   1.000  H
  Co1      1.0000 0.61894  0.96007  0.44289  Biso   1.000  Co
  N2       1.0000 0.75760  0.91070  0.51651  Biso   1.000  N
  C3       1.0000 0.31780  0.88840  0.78840  Biso   1.000  C
  C4       1.0000 0.39460  0.88540  0.47970  Biso   1.000  C
  C5       1.0000 0.74920  0.84120  0.54290  Biso   1.000  C
  H3       1.0000 0.67860  0.81230  0.52830  Biso   1.000  H
  C6       1.0000 0.94680  0.85200  0.61270  Biso   1.000  C
  C7       1.0000 0.22650  0.83870  0.74703  Biso   1.000  C
  C8       1.0000 0.13120  0.86900  0.70116  Biso   1.000  C
  H4       1.0000 0.12380  0.92170  0.69610  Biso   1.000  H
  C9       1.0000 0.83860  0.81030  0.59020  Biso   1.000  C
  H5       1.0000 0.82740  0.76200  0.60720  Biso   1.000  H
  C10      1.0000 0.04690  0.82130  0.66287  Biso   1.000  C
  C11      1.0000 0.95570  0.92370  0.58500  Biso   1.000  C
  H6       1.0000 0.02550  0.95380  0.59820  Biso   1.000  H
  C12      1.0000 0.43370  0.86090  0.81760  Biso   1.000  C
  H7       1.0000 0.45600  0.81070  0.81090  Biso   1.000  H
  C13      1.0000 0.86120  0.95000  0.53790  Biso   1.000  C
  H8       1.0000 0.86990  0.99800  0.51990  Biso   1.000  H
  N3       1.0000 0.15280  0.71220  0.71570  Biso   1.000  N
  C14      1.0000 0.23200  0.75930  0.75220  Biso   1.000  C
  H9       1.0000 0.29450  0.73790  0.78290  Biso   1.000  H
  C15      1.0000 0.06310  0.74310  0.67270  Biso   1.000  C
  H10      1.0000 0.00720  0.71050  0.64750  Biso   1.000  H
  O2       1.0000 0.49630  0.88056  0.45847  Biso   1.000  O
  C16      1.0000 0.29390  0.96430  0.80060  Biso   1.000  C
  H11      1.0000 0.21910  0.98620  0.78140  Biso   1.000  H
  C17      1.0000 0.31460  0.81450  0.47420  Biso   1.000  C
  H12      1.0000 0.29870  0.80020  0.42750  Biso   1.000  H
  C18      1.0000 0.38620  0.74840  0.51150  Biso   1.000  C
  H13      1.0000 0.40640  0.76150  0.55790  Biso   1.000  H
  H14      1.0000 0.46350  0.74050  0.49470  Biso   1.000  H
  C19      1.0000 0.18980  0.82560  0.49580  Biso   1.000  C
  H15      1.0000 0.14420  0.86530  0.46930  Biso   1.000  H
  H16      1.0000 0.20190  0.84190  0.54150  Biso   1.000  H
  O3       1.0000 0.85580  0.44386  0.50388  Biso   1.000  O
  N4       1.0000 0.99030  0.48080  0.86938  Biso   1.000  N
  C20      1.0000 0.87970  0.50740  0.84060  Biso   1.000  C
  H17      1.0000 0.86000  0.55790  0.84830  Biso   1.000  H
  C21      1.0000 0.01430  0.40820  0.85620  Biso   1.000  C
  H18      1.0000 0.09130  0.38850  0.87450  Biso   1.000  H
  Co2      1.0000 0.11894  0.46007  0.44289  Biso   1.000  Co
  N5       1.0000 0.25760  0.41070  0.51651  Biso   1.000  N
  C22      1.0000 0.81780  0.38840  0.78840  Biso   1.000  C
  C23      1.0000 0.89460  0.38540  0.47970  Biso   1.000  C
  C24      1.0000 0.24920  0.34120  0.54290  Biso   1.000  C
  H19      1.0000 0.17860  0.31230  0.52830  Biso   1.000  H
  C25      1.0000 0.44680  0.35200  0.61270  Biso   1.000  C
  C26      1.0000 0.72650  0.33870  0.74703  Biso   1.000  C
  C27      1.0000 0.63120  0.36900  0.70116  Biso   1.000  C
  H20      1.0000 0.62380  0.42170  0.69610  Biso   1.000  H
  C28      1.0000 0.33860  0.31030  0.59020  Biso   1.000  C
  H21      1.0000 0.32740  0.26200  0.60720  Biso   1.000  H
  C29      1.0000 0.54690  0.32130  0.66287  Biso   1.000  C
  C30      1.0000 0.45570  0.42370  0.58500  Biso   1.000  C
  H22      1.0000 0.52550  0.45380  0.59820  Biso   1.000  H
  C31      1.0000 0.93370  0.36090  0.81760  Biso   1.000  C
  H23      1.0000 0.95600  0.31070  0.81090  Biso   1.000  H
  C32      1.0000 0.36120  0.45000  0.53790  Biso   1.000  C
  H24      1.0000 0.36990  0.49800  0.51990  Biso   1.000  H
  N6       1.0000 0.65280  0.21220  0.71570  Biso   1.000  N
  C33      1.0000 0.73200  0.25930  0.75220  Biso   1.000  C
  H25      1.0000 0.79450  0.23790  0.78290  Biso   1.000  H
  C34      1.0000 0.56310  0.24310  0.67270  Biso   1.000  C
  H26      1.0000 0.50720  0.21050  0.64750  Biso   1.000  H
  O4       1.0000 0.99630  0.38056  0.45847  Biso   1.000  O
  C35      1.0000 0.79390  0.46430  0.80060  Biso   1.000  C
  H27      1.0000 0.71910  0.48620  0.78140  Biso   1.000  H
  C36      1.0000 0.81460  0.31450  0.47420  Biso   1.000  C
  H28      1.0000 0.79870  0.30020  0.42750  Biso   1.000  H
  C37      1.0000 0.88620  0.24840  0.51150  Biso   1.000  C
  H29      1.0000 0.90640  0.26150  0.55790  Biso   1.000  H
  H30      1.0000 0.96350  0.24050  0.49470  Biso   1.000  H
  C38      1.0000 0.68980  0.32560  0.49580  Biso   1.000  C
  H31      1.0000 0.64420  0.36530  0.46930  Biso   1.000  H
  H32      1.0000 0.70190  0.34190  0.54150  Biso   1.000  H
  O5       1.0000 0.64420  0.94386  0.99612  Biso   1.000  O
  N7       1.0000 0.50970  0.98080  0.63062  Biso   1.000  N
  C39      1.0000 0.62030  0.00740  0.65940  Biso   1.000  C
  H33      1.0000 0.64000  0.05790  0.65170  Biso   1.000  H
  C40      1.0000 0.48570  0.90820  0.64380  Biso   1.000  C
  H34      1.0000 0.40870  0.88850  0.62550  Biso   1.000  H
  Co3      1.0000 0.38106  0.96007  0.05711  Biso   1.000  Co
  N8       1.0000 0.24240  0.91070  0.98349  Biso   1.000  N
  C41      1.0000 0.68220  0.88840  0.71160  Biso   1.000  C
  C42      1.0000 0.60540  0.88540  0.02030  Biso   1.000  C
  C43      1.0000 0.25080  0.84120  0.95710  Biso   1.000  C
  H35      1.0000 0.32140  0.81230  0.97170  Biso   1.000  H
  C44      1.0000 0.05320  0.85200  0.88730  Biso   1.000  C
  C45      1.0000 0.77350  0.83870  0.75297  Biso   1.000  C
  C46      1.0000 0.86880  0.86900  0.79884  Biso   1.000  C
  H36      1.0000 0.87620  0.92170  0.80390  Biso   1.000  H
  C47      1.0000 0.16140  0.81030  0.90980  Biso   1.000  C
  H37      1.0000 0.17260  0.76200  0.89280  Biso   1.000  H
  C48      1.0000 0.95310  0.82130  0.83713  Biso   1.000  C
  C49      1.0000 0.04430  0.92370  0.91500  Biso   1.000  C
  H38      1.0000 0.97450  0.95380  0.90180  Biso   1.000  H
  C50      1.0000 0.56630  0.86090  0.68240  Biso   1.000  C
  H39      1.0000 0.54400  0.81070  0.68910  Biso   1.000  H
  C51      1.0000 0.13880  0.95000  0.96210  Biso   1.000  C
  H40      1.0000 0.13010  0.99800  0.98010  Biso   1.000  H
  N9       1.0000 0.84720  0.71220  0.78430  Biso   1.000  N
  C52      1.0000 0.76800  0.75930  0.74780  Biso   1.000  C
  H41      1.0000 0.70550  0.73790  0.71710  Biso   1.000  H
  C53      1.0000 0.93690  0.74310  0.82730  Biso   1.000  C
  H42      1.0000 0.99280  0.71050  0.85250  Biso   1.000  H
  O6       1.0000 0.50370  0.88056  0.04153  Biso   1.000  O
  C54      1.0000 0.70610  0.96430  0.69940  Biso   1.000  C
  H43      1.0000 0.78090  0.98620  0.71860  Biso   1.000  H
  C55      1.0000 0.68540  0.81450  0.02580  Biso   1.000  C
  H44      1.0000 0.70130  0.80020  0.07250  Biso   1.000  H
  C56      1.0000 0.61380  0.74840  0.98850  Biso   1.000  C
  H45      1.0000 0.59360  0.76150  0.94210  Biso   1.000  H
  H46      1.0000 0.53650  0.74050  0.00530  Biso   1.000  H
  C57      1.0000 0.81020  0.82560  0.00420  Biso   1.000  C
  H47      1.0000 0.85580  0.86530  0.03070  Biso   1.000  H
  H48      1.0000 0.79810  0.84190  0.95850  Biso   1.000  H
  O7       1.0000 0.14420  0.44386  0.99612  Biso   1.000  O
  N10      1.0000 0.00970  0.48080  0.63062  Biso   1.000  N
  C58      1.0000 0.12030  0.50740  0.65940  Biso   1.000  C
  H49      1.0000 0.14000  0.55790  0.65170  Biso   1.000  H
  C59      1.0000 0.98570  0.40820  0.64380  Biso   1.000  C
  H50      1.0000 0.90870  0.38850  0.62550  Biso   1.000  H
  Co4      1.0000 0.88106  0.46007  0.05711  Biso   1.000  Co
  N11      1.0000 0.74240  0.41070  0.98349  Biso   1.000  N
  C60      1.0000 0.18220  0.38840  0.71160  Biso   1.000  C
  C61      1.0000 0.10540  0.38540  0.02030  Biso   1.000  C
  C62      1.0000 0.75080  0.34120  0.95710  Biso   1.000  C
  H51      1.0000 0.82140  0.31230  0.97170  Biso   1.000  H
  C63      1.0000 0.55320  0.35200  0.88730  Biso   1.000  C
  C64      1.0000 0.27350  0.33870  0.75297  Biso   1.000  C
  C65      1.0000 0.36880  0.36900  0.79884  Biso   1.000  C
  H52      1.0000 0.37620  0.42170  0.80390  Biso   1.000  H
  C66      1.0000 0.66140  0.31030  0.90980  Biso   1.000  C
  H53      1.0000 0.67260  0.26200  0.89280  Biso   1.000  H
  C67      1.0000 0.45310  0.32130  0.83713  Biso   1.000  C
  C68      1.0000 0.54430  0.42370  0.91500  Biso   1.000  C
  H54      1.0000 0.47450  0.45380  0.90180  Biso   1.000  H
  C69      1.0000 0.06630  0.36090  0.68240  Biso   1.000  C
  H55      1.0000 0.04400  0.31070  0.68910  Biso   1.000  H
  C70      1.0000 0.63880  0.45000  0.96210  Biso   1.000  C
  H56      1.0000 0.63010  0.49800  0.98010  Biso   1.000  H
  N12      1.0000 0.34720  0.21220  0.78430  Biso   1.000  N
  C71      1.0000 0.26800  0.25930  0.74780  Biso   1.000  C
  H57      1.0000 0.20550  0.23790  0.71710  Biso   1.000  H
  C72      1.0000 0.43690  0.24310  0.82730  Biso   1.000  C
  H58      1.0000 0.49280  0.21050  0.85250  Biso   1.000  H
  O8       1.0000 0.00370  0.38056  0.04153  Biso   1.000  O
  C73      1.0000 0.20610  0.46430  0.69940  Biso   1.000  C
  H59      1.0000 0.28090  0.48620  0.71860  Biso   1.000  H
  C74      1.0000 0.18540  0.31450  0.02580  Biso   1.000  C
  H60      1.0000 0.20130  0.30020  0.07250  Biso   1.000  H
  C75      1.0000 0.11380  0.24840  0.98850  Biso   1.000  C
  H61      1.0000 0.09360  0.26150  0.94210  Biso   1.000  H
  H62      1.0000 0.03650  0.24050  0.00530  Biso   1.000  H
  C76      1.0000 0.31020  0.32560  0.00420  Biso   1.000  C
  H63      1.0000 0.35580  0.36530  0.03070  Biso   1.000  H
  H64      1.0000 0.29810  0.34190  0.95850  Biso   1.000  H
  O9       1.0000 0.64420  0.05614  0.49612  Biso   1.000  O
  N13      1.0000 0.50970  0.01920  0.13062  Biso   1.000  N
  C77      1.0000 0.62030  0.99260  0.15940  Biso   1.000  C
  H65      1.0000 0.64000  0.94210  0.15170  Biso   1.000  H
  C78      1.0000 0.48570  0.09180  0.14380  Biso   1.000  C
  H66      1.0000 0.40870  0.11150  0.12550  Biso   1.000  H
  Co5      1.0000 0.38106  0.03993  0.55711  Biso   1.000  Co
  N14      1.0000 0.24240  0.08930  0.48349  Biso   1.000  N
  C79      1.0000 0.68220  0.11160  0.21160  Biso   1.000  C
  C80      1.0000 0.60540  0.11460  0.52030  Biso   1.000  C
  C81      1.0000 0.25080  0.15880  0.45710  Biso   1.000  C
  H67      1.0000 0.32140  0.18770  0.47170  Biso   1.000  H
  C82      1.0000 0.05320  0.14800  0.38730  Biso   1.000  C
  C83      1.0000 0.77350  0.16130  0.25297  Biso   1.000  C
  C84      1.0000 0.86880  0.13100  0.29884  Biso   1.000  C
  H68      1.0000 0.87620  0.07830  0.30390  Biso   1.000  H
  C85      1.0000 0.16140  0.18970  0.40980  Biso   1.000  C
  H69      1.0000 0.17260  0.23800  0.39280  Biso   1.000  H
  C86      1.0000 0.95310  0.17870  0.33713  Biso   1.000  C
  C87      1.0000 0.04430  0.07630  0.41500  Biso   1.000  C
  H70      1.0000 0.97450  0.04620  0.40180  Biso   1.000  H
  C88      1.0000 0.56630  0.13910  0.18240  Biso   1.000  C
  H71      1.0000 0.54400  0.18930  0.18910  Biso   1.000  H
  C89      1.0000 0.13880  0.05000  0.46210  Biso   1.000  C
  H72      1.0000 0.13010  0.00200  0.48010  Biso   1.000  H
  N15      1.0000 0.84720  0.28780  0.28430  Biso   1.000  N
  C90      1.0000 0.76800  0.24070  0.24780  Biso   1.000  C
  H73      1.0000 0.70550  0.26210  0.21710  Biso   1.000  H
  C91      1.0000 0.93690  0.25690  0.32730  Biso   1.000  C
  H74      1.0000 0.99280  0.28950  0.35250  Biso   1.000  H
  O10      1.0000 0.50370  0.11944  0.54153  Biso   1.000  O
  C92      1.0000 0.70610  0.03570  0.19940  Biso   1.000  C
  H75      1.0000 0.78090  0.01380  0.21860  Biso   1.000  H
  C93      1.0000 0.68540  0.18550  0.52580  Biso   1.000  C
  H76      1.0000 0.70130  0.19980  0.57250  Biso   1.000  H
  C94      1.0000 0.61380  0.25160  0.48850  Biso   1.000  C
  H77      1.0000 0.59360  0.23850  0.44210  Biso   1.000  H
  H78      1.0000 0.53650  0.25950  0.50530  Biso   1.000  H
  C95      1.0000 0.81020  0.17440  0.50420  Biso   1.000  C
  H79      1.0000 0.85580  0.13470  0.53070  Biso   1.000  H
  H80      1.0000 0.79810  0.15810  0.45850  Biso   1.000  H
  O11      1.0000 0.14420  0.55614  0.49612  Biso   1.000  O
  N16      1.0000 0.00970  0.51920  0.13062  Biso   1.000  N
  C96      1.0000 0.12030  0.49260  0.15940  Biso   1.000  C
  H81      1.0000 0.14000  0.44210  0.15170  Biso   1.000  H
  C97      1.0000 0.98570  0.59180  0.14380  Biso   1.000  C
  H82      1.0000 0.90870  0.61150  0.12550  Biso   1.000  H
  Co6      1.0000 0.88106  0.53993  0.55711  Biso   1.000  Co
  N17      1.0000 0.74240  0.58930  0.48349  Biso   1.000  N
  C98      1.0000 0.18220  0.61160  0.21160  Biso   1.000  C
  C99      1.0000 0.10540  0.61460  0.52030  Biso   1.000  C
  C100     1.0000 0.75080  0.65880  0.45710  Biso   1.000  C
  H83      1.0000 0.82140  0.68770  0.47170  Biso   1.000  H
  C101     1.0000 0.55320  0.64800  0.38730  Biso   1.000  C
  C102     1.0000 0.27350  0.66130  0.25297  Biso   1.000  C
  C103     1.0000 0.36880  0.63100  0.29884  Biso   1.000  C
  H84      1.0000 0.37620  0.57830  0.30390  Biso   1.000  H
  C104     1.0000 0.66140  0.68970  0.40980  Biso   1.000  C
  H85      1.0000 0.67260  0.73800  0.39280  Biso   1.000  H
  C105     1.0000 0.45310  0.67870  0.33713  Biso   1.000  C
  C106     1.0000 0.54430  0.57630  0.41500  Biso   1.000  C
  H86      1.0000 0.47450  0.54620  0.40180  Biso   1.000  H
  C107     1.0000 0.06630  0.63910  0.18240  Biso   1.000  C
  H87      1.0000 0.04400  0.68930  0.18910  Biso   1.000  H
  C108     1.0000 0.63880  0.55000  0.46210  Biso   1.000  C
  H88      1.0000 0.63010  0.50200  0.48010  Biso   1.000  H
  N18      1.0000 0.34720  0.78780  0.28430  Biso   1.000  N
  C109     1.0000 0.26800  0.74070  0.24780  Biso   1.000  C
  H89      1.0000 0.20550  0.76210  0.21710  Biso   1.000  H
  C110     1.0000 0.43690  0.75690  0.32730  Biso   1.000  C
  H90      1.0000 0.49280  0.78950  0.35250  Biso   1.000  H
  O12      1.0000 0.00370  0.61944  0.54153  Biso   1.000  O
  C111     1.0000 0.20610  0.53570  0.19940  Biso   1.000  C
  H91      1.0000 0.28090  0.51380  0.21860  Biso   1.000  H
  C112     1.0000 0.18540  0.68550  0.52580  Biso   1.000  C
  H92      1.0000 0.20130  0.69980  0.57250  Biso   1.000  H
  C113     1.0000 0.11380  0.75160  0.48850  Biso   1.000  C
  H93      1.0000 0.09360  0.73850  0.44210  Biso   1.000  H
  H94      1.0000 0.03650  0.75950  0.50530  Biso   1.000  H
  C114     1.0000 0.31020  0.67440  0.50420  Biso   1.000  C
  H95      1.0000 0.35580  0.63470  0.53070  Biso   1.000  H
  H96      1.0000 0.29810  0.65810  0.45850  Biso   1.000  H
  O13      1.0000 0.35580  0.05614  0.00388  Biso   1.000  O
  N19      1.0000 0.49030  0.01920  0.36938  Biso   1.000  N
  C115     1.0000 0.37970  0.99260  0.34060  Biso   1.000  C
  H97      1.0000 0.36000  0.94210  0.34830  Biso   1.000  H
  C116     1.0000 0.51430  0.09180  0.35620  Biso   1.000  C
  H98      1.0000 0.59130  0.11150  0.37450  Biso   1.000  H
  Co7      1.0000 0.61894  0.03993  0.94289  Biso   1.000  Co
  N20      1.0000 0.75760  0.08930  0.01651  Biso   1.000  N
  C117     1.0000 0.31780  0.11160  0.28840  Biso   1.000  C
  C118     1.0000 0.39460  0.11460  0.97970  Biso   1.000  C
  C119     1.0000 0.74920  0.15880  0.04290  Biso   1.000  C
  H99      1.0000 0.67860  0.18770  0.02830  Biso   1.000  H
  C120     1.0000 0.94680  0.14800  0.11270  Biso   1.000  C
  C121     1.0000 0.22650  0.16130  0.24703  Biso   1.000  C
  C122     1.0000 0.13120  0.13100  0.20116  Biso   1.000  C
  H100     1.0000 0.12380  0.07830  0.19610  Biso   1.000  H
  C123     1.0000 0.83860  0.18970  0.09020  Biso   1.000  C
  H101     1.0000 0.82740  0.23800  0.10720  Biso   1.000  H
  C124     1.0000 0.04690  0.17870  0.16287  Biso   1.000  C
  C125     1.0000 0.95570  0.07630  0.08500  Biso   1.000  C
  H102     1.0000 0.02550  0.04620  0.09820  Biso   1.000  H
  C126     1.0000 0.43370  0.13910  0.31760  Biso   1.000  C
  H103     1.0000 0.45600  0.18930  0.31090  Biso   1.000  H
  C127     1.0000 0.86120  0.05000  0.03790  Biso   1.000  C
  H104     1.0000 0.86990  0.00200  0.01990  Biso   1.000  H
  N21      1.0000 0.15280  0.28780  0.21570  Biso   1.000  N
  C128     1.0000 0.23200  0.24070  0.25220  Biso   1.000  C
  H105     1.0000 0.29450  0.26210  0.28290  Biso   1.000  H
  C129     1.0000 0.06310  0.25690  0.17270  Biso   1.000  C
  H106     1.0000 0.00720  0.28950  0.14750  Biso   1.000  H
  O14      1.0000 0.49630  0.11944  0.95847  Biso   1.000  O
  C130     1.0000 0.29390  0.03570  0.30060  Biso   1.000  C
  H107     1.0000 0.21910  0.01380  0.28140  Biso   1.000  H
  C131     1.0000 0.31460  0.18550  0.97420  Biso   1.000  C
  H108     1.0000 0.29870  0.19980  0.92750  Biso   1.000  H
  C132     1.0000 0.38620  0.25160  0.01150  Biso   1.000  C
  H109     1.0000 0.40640  0.23850  0.05790  Biso   1.000  H
  H110     1.0000 0.46350  0.25950  0.99470  Biso   1.000  H
  C133     1.0000 0.18980  0.17440  0.99580  Biso   1.000  C
  H111     1.0000 0.14420  0.13470  0.96930  Biso   1.000  H
  H112     1.0000 0.20190  0.15810  0.04150  Biso   1.000  H
  O15      1.0000 0.85580  0.55614  0.00388  Biso   1.000  O
  N22      1.0000 0.99030  0.51920  0.36938  Biso   1.000  N
  C134     1.0000 0.87970  0.49260  0.34060  Biso   1.000  C
  H113     1.0000 0.86000  0.44210  0.34830  Biso   1.000  H
  C135     1.0000 0.01430  0.59180  0.35620  Biso   1.000  C
  H114     1.0000 0.09130  0.61150  0.37450  Biso   1.000  H
  Co8      1.0000 0.11894  0.53993  0.94289  Biso   1.000  Co
  N23      1.0000 0.25760  0.58930  0.01651  Biso   1.000  N
  C136     1.0000 0.81780  0.61160  0.28840  Biso   1.000  C
  C137     1.0000 0.89460  0.61460  0.97970  Biso   1.000  C
  C138     1.0000 0.24920  0.65880  0.04290  Biso   1.000  C
  H115     1.0000 0.17860  0.68770  0.02830  Biso   1.000  H
  C139     1.0000 0.44680  0.64800  0.11270  Biso   1.000  C
  C140     1.0000 0.72650  0.66130  0.24703  Biso   1.000  C
  C141     1.0000 0.63120  0.63100  0.20116  Biso   1.000  C
  H116     1.0000 0.62380  0.57830  0.19610  Biso   1.000  H
  C142     1.0000 0.33860  0.68970  0.09020  Biso   1.000  C
  H117     1.0000 0.32740  0.73800  0.10720  Biso   1.000  H
  C143     1.0000 0.54690  0.67870  0.16287  Biso   1.000  C
  C144     1.0000 0.45570  0.57630  0.08500  Biso   1.000  C
  H118     1.0000 0.52550  0.54620  0.09820  Biso   1.000  H
  C145     1.0000 0.93370  0.63910  0.31760  Biso   1.000  C
  H119     1.0000 0.95600  0.68930  0.31090  Biso   1.000  H
  C146     1.0000 0.36120  0.55000  0.03790  Biso   1.000  C
  H120     1.0000 0.36990  0.50200  0.01990  Biso   1.000  H
  N24      1.0000 0.65280  0.78780  0.21570  Biso   1.000  N
  C147     1.0000 0.73200  0.74070  0.25220  Biso   1.000  C
  H121     1.0000 0.79450  0.76210  0.28290  Biso   1.000  H
  C148     1.0000 0.56310  0.75690  0.17270  Biso   1.000  C
  H122     1.0000 0.50720  0.78950  0.14750  Biso   1.000  H
  O16      1.0000 0.99630  0.61944  0.95847  Biso   1.000  O
  C149     1.0000 0.79390  0.53570  0.30060  Biso   1.000  C
  H123     1.0000 0.71910  0.51380  0.28140  Biso   1.000  H
  C150     1.0000 0.81460  0.68550  0.97420  Biso   1.000  C
  H124     1.0000 0.79870  0.69980  0.92750  Biso   1.000  H
  C151     1.0000 0.88620  0.75160  0.01150  Biso   1.000  C
  H125     1.0000 0.90640  0.73850  0.05790  Biso   1.000  H
  H126     1.0000 0.96350  0.75950  0.99470  Biso   1.000  H
  C152     1.0000 0.68980  0.67440  0.99580  Biso   1.000  C
  H127     1.0000 0.64420  0.63470  0.96930  Biso   1.000  H
  H128     1.0000 0.70190  0.65810  0.04150  Biso   1.000  H
