data_image0
_cell_length_a       19.0766
_cell_length_b       9.1657
_cell_length_c       14.1806
_cell_angle_alpha    90
_cell_angle_beta     90
_cell_angle_gamma    90

_symmetry_space_group_name_H-M    "P 1"
_symmetry_int_tables_number       1

loop_
  _symmetry_equiv_pos_as_xyz
  'x, y, z'

loop_
  _atom_site_label
  _atom_site_occupancy
  _atom_site_fract_x
  _atom_site_fract_y
  _atom_site_fract_z
  _atom_site_thermal_displace_type
  _atom_site_B_iso_or_equiv
  _atom_site_type_symbol
  V1       1.0000 0.13916  0.23073  0.13449  Biso   1.000  V
  V2       1.0000 0.99958  0.71660  0.35135  Biso   1.000  V
  V3       1.0000 0.24556  0.75327  0.33742  Biso   1.000  V
  P1       1.0000 0.11568  0.92576  0.23766  Biso   1.000  P
  P2       1.0000 0.12393  0.06368  0.93163  Biso   1.000  P
  P3       1.0000 0.12241  0.52983  0.26083  Biso   1.000  P
  P4       1.0000 0.13616  0.45803  0.95072  Biso   1.000  P
  O1       1.0000 0.09910  0.08850  0.22610  Biso   1.000  O
  O2       1.0000 0.17190  0.90220  0.31220  Biso   1.000  O
  O3       1.0000 0.04830  0.84420  0.25700  Biso   1.000  O
  O4       1.0000 0.10640  0.10080  0.03220  Biso   1.000  O
  O5       1.0000 0.19810  0.10370  0.90490  Biso   1.000  O
  O6       1.0000 0.07060  0.12290  0.86150  Biso   1.000  O
  O7       1.0000 0.14050  0.37220  0.24180  Biso   1.000  O
  O8       1.0000 0.04800  0.54300  0.29750  Biso   1.000  O
  O9       1.0000 0.17530  0.59450  0.32890  Biso   1.000  O
  O10      1.0000 0.14490  0.39980  0.04970  Biso   1.000  O
  O11      1.0000 0.06360  0.43060  0.91220  Biso   1.000  O
  O12      1.0000 0.19490  0.41470  0.88560  Biso   1.000  O
  V4       1.0000 0.86084  0.76927  0.63449  Biso   1.000  V
  V5       1.0000 0.00042  0.28340  0.85135  Biso   1.000  V
  V6       1.0000 0.75444  0.24673  0.83742  Biso   1.000  V
  P5       1.0000 0.88432  0.07424  0.73766  Biso   1.000  P
  P6       1.0000 0.87607  0.93632  0.43163  Biso   1.000  P
  P7       1.0000 0.87759  0.47017  0.76083  Biso   1.000  P
  P8       1.0000 0.86384  0.54197  0.45072  Biso   1.000  P
  O13      1.0000 0.90090  0.91150  0.72610  Biso   1.000  O
  O14      1.0000 0.82810  0.09780  0.81220  Biso   1.000  O
  O15      1.0000 0.95170  0.15580  0.75700  Biso   1.000  O
  O16      1.0000 0.89360  0.89920  0.53220  Biso   1.000  O
  O17      1.0000 0.80190  0.89630  0.40490  Biso   1.000  O
  O18      1.0000 0.92940  0.87710  0.36150  Biso   1.000  O
  O19      1.0000 0.85950  0.62780  0.74180  Biso   1.000  O
  O20      1.0000 0.95200  0.45700  0.79750  Biso   1.000  O
  O21      1.0000 0.82470  0.40550  0.82890  Biso   1.000  O
  O22      1.0000 0.85510  0.60020  0.54970  Biso   1.000  O
  O23      1.0000 0.93640  0.56940  0.41220  Biso   1.000  O
  O24      1.0000 0.80510  0.58530  0.38560  Biso   1.000  O
  V7       1.0000 0.63916  0.26927  0.13449  Biso   1.000  V
  V8       1.0000 0.49958  0.78340  0.35135  Biso   1.000  V
  V9       1.0000 0.74556  0.74673  0.33742  Biso   1.000  V
  P9       1.0000 0.61568  0.57424  0.23766  Biso   1.000  P
  P10      1.0000 0.62393  0.43632  0.93163  Biso   1.000  P
  P11      1.0000 0.62241  0.97017  0.26083  Biso   1.000  P
  P12      1.0000 0.63616  0.04197  0.95072  Biso   1.000  P
  O25      1.0000 0.59910  0.41150  0.22610  Biso   1.000  O
  O26      1.0000 0.67190  0.59780  0.31220  Biso   1.000  O
  O27      1.0000 0.54830  0.65580  0.25700  Biso   1.000  O
  O28      1.0000 0.60640  0.39920  0.03220  Biso   1.000  O
  O29      1.0000 0.69810  0.39630  0.90490  Biso   1.000  O
  O30      1.0000 0.57060  0.37710  0.86150  Biso   1.000  O
  O31      1.0000 0.64050  0.12780  0.24180  Biso   1.000  O
  O32      1.0000 0.54800  0.95700  0.29750  Biso   1.000  O
  O33      1.0000 0.67530  0.90550  0.32890  Biso   1.000  O
  O34      1.0000 0.64490  0.10020  0.04970  Biso   1.000  O
  O35      1.0000 0.56360  0.06940  0.91220  Biso   1.000  O
  O36      1.0000 0.69490  0.08530  0.88560  Biso   1.000  O
  V10      1.0000 0.36084  0.73073  0.63449  Biso   1.000  V
  V11      1.0000 0.50042  0.21660  0.85135  Biso   1.000  V
  V12      1.0000 0.25444  0.25327  0.83742  Biso   1.000  V
  P13      1.0000 0.38432  0.42576  0.73766  Biso   1.000  P
  P14      1.0000 0.37607  0.56368  0.43163  Biso   1.000  P
  P15      1.0000 0.37759  0.02983  0.76083  Biso   1.000  P
  P16      1.0000 0.36384  0.95803  0.45072  Biso   1.000  P
  O37      1.0000 0.40090  0.58850  0.72610  Biso   1.000  O
  O38      1.0000 0.32810  0.40220  0.81220  Biso   1.000  O
  O39      1.0000 0.45170  0.34420  0.75700  Biso   1.000  O
  O40      1.0000 0.39360  0.60080  0.53220  Biso   1.000  O
  O41      1.0000 0.30190  0.60370  0.40490  Biso   1.000  O
  O42      1.0000 0.42940  0.62290  0.36150  Biso   1.000  O
  O43      1.0000 0.35950  0.87220  0.74180  Biso   1.000  O
  O44      1.0000 0.45200  0.04300  0.79750  Biso   1.000  O
  O45      1.0000 0.32470  0.09450  0.82890  Biso   1.000  O
  O46      1.0000 0.35510  0.89980  0.54970  Biso   1.000  O
  O47      1.0000 0.43640  0.93060  0.41220  Biso   1.000  O
  O48      1.0000 0.30510  0.91470  0.38560  Biso   1.000  O
