data_AJOVEB_clean
_audit_creation_date              2014-07-02
_audit_creation_method            'Materials Studio'
_symmetry_space_group_name_H-M    'P1'
_symmetry_Int_Tables_number       1
_symmetry_cell_setting            triclinic
loop_
_symmetry_equiv_pos_as_xyz
  x,y,z
_cell_length_a                    7.7201
_cell_length_b                    23.2507
_cell_length_c                    23.2507
_cell_angle_alpha                 61.2084
_cell_angle_beta                  83.6455
_cell_angle_gamma                 96.3545
loop_
_atom_site_label
_atom_site_type_symbol
_atom_site_fract_x
_atom_site_fract_y
_atom_site_fract_z
_atom_site_U_iso_or_equiv
_atom_site_adp_type
_atom_site_occupancy
Cd1    Cd    0.74563   0.52422   0.43716   0.01267  Uiso   1.00
Cd2    Cd    0.18297   0.47828   0.40088   0.01267  Uiso   1.00
Cd3    Cd    0.18279   0.43716   0.03862   0.01267  Uiso   1.00
Cd4    Cd    0.58385   0.40088   0.12084   0.01267  Uiso   1.00
Cd5    Cd    0.22141   0.03862   0.52422   0.01267  Uiso   1.00
Cd6    Cd    0.70469   0.12084   0.47828   0.01267  Uiso   1.00
Cd7    Cd    0.25437   0.47578   0.56284   0.01267  Uiso   1.00
Cd8    Cd    0.81703   0.52172   0.59912   0.01267  Uiso   1.00
Cd9    Cd    0.81721   0.56284   0.96138   0.01267  Uiso   1.00
Cd10   Cd    0.41615   0.59912   0.87916   0.01267  Uiso   1.00
Cd11   Cd    0.77859   0.96138   0.47578   0.01267  Uiso   1.00
Cd12   Cd    0.29531   0.87916   0.52172   0.01267  Uiso   1.00
H1     H     0.53670   0.70420   0.29830   0.01267  Uiso   1.00
H2     H     0.39770   0.79210   0.24190   0.01267  Uiso   1.00
H3     H     0.96970   0.70040   0.39020   0.01267  Uiso   1.00
H4     H     0.11500   0.83010   0.37590   0.01267  Uiso   1.00
H5     H     0.52590   0.83220   0.35940   0.01267  Uiso   1.00
H6     H     0.71410   0.81970   0.28420   0.01267  Uiso   1.00
H7     H     0.83500   0.29830   0.99750   0.01267  Uiso   1.00
H8     H     0.63960   0.24190   0.96600   0.01267  Uiso   1.00
H9     H     0.35990   0.39020   0.90940   0.01267  Uiso   1.00
H10    H     0.49090   0.37590   0.79400   0.01267  Uiso   1.00
H11    H     0.88530   0.35940   0.80840   0.01267  Uiso   1.00
H12    H     0.99830   0.28420   0.89610   0.01267  Uiso   1.00
H13    H     0.83250   0.99750   0.70420   0.01267  Uiso   1.00
H14    H     0.60560   0.96600   0.79210   0.01267  Uiso   1.00
H15    H     0.26930   0.90940   0.70040   0.01267  Uiso   1.00
H16    H     0.28490   0.79400   0.83010   0.01267  Uiso   1.00
H17    H     0.69370   0.80840   0.83220   0.01267  Uiso   1.00
H18    H     0.89440   0.89610   0.81970   0.01267  Uiso   1.00
H19    H     0.46330   0.29580   0.70170   0.01267  Uiso   1.00
H20    H     0.60230   0.20790   0.75810   0.01267  Uiso   1.00
H21    H     0.03030   0.29960   0.60980   0.01267  Uiso   1.00
H22    H     0.88500   0.16990   0.62410   0.01267  Uiso   1.00
H23    H     0.47410   0.16780   0.64060   0.01267  Uiso   1.00
H24    H     0.28590   0.18030   0.71580   0.01267  Uiso   1.00
H25    H     0.16500   0.70170   0.00250   0.01267  Uiso   1.00
H26    H     0.36040   0.75810   0.03400   0.01267  Uiso   1.00
H27    H     0.64010   0.60980   0.09060   0.01267  Uiso   1.00
H28    H     0.50910   0.62410   0.20600   0.01267  Uiso   1.00
H29    H     0.11470   0.64060   0.19160   0.01267  Uiso   1.00
H30    H     0.00170   0.71580   0.10390   0.01267  Uiso   1.00
H31    H     0.16750   0.00250   0.29580   0.01267  Uiso   1.00
H32    H     0.39440   0.03400   0.20790   0.01267  Uiso   1.00
H33    H     0.73070   0.09060   0.29960   0.01267  Uiso   1.00
H34    H     0.71510   0.20600   0.16990   0.01267  Uiso   1.00
H35    H     0.30630   0.19160   0.16780   0.01267  Uiso   1.00
H36    H     0.10560   0.10390   0.18030   0.01267  Uiso   1.00
C1     C     0.34443   0.65091   0.37992   0.01267  Uiso   1.00
C2     C     0.42430   0.70402   0.31762   0.01267  Uiso   1.00
C3     C     0.34071   0.75669   0.28356   0.01267  Uiso   1.00
C4     C     0.17218   0.64996   0.40762   0.01267  Uiso   1.00
C5     C     0.08568   0.70220   0.37256   0.01267  Uiso   1.00
C6     C     0.17080   0.75745   0.31105   0.01267  Uiso   1.00
C7     C     0.44481   0.59548   0.41335   0.01267  Uiso   1.00
C8     C     0.08180   0.59659   0.47659   0.01267  Uiso   1.00
C9     C     0.07361   0.81502   0.27349   0.01267  Uiso   1.00
C10    C     0.20592   0.88297   0.23161   0.01267  Uiso   1.00
C11    C     0.98610   0.80032   0.22432   0.01267  Uiso   1.00
C12    C     0.93602   0.82348   0.32152   0.01267  Uiso   1.00
C13    C     0.99712   0.83185   0.37159   0.01267  Uiso   1.00
C14    C     0.88608   0.84284   0.41570   0.01267  Uiso   1.00
C15    C     0.70721   0.84322   0.41179   0.01267  Uiso   1.00
C16    C     0.64542   0.83324   0.36218   0.01267  Uiso   1.00
C17    C     0.75806   0.82471   0.31753   0.01267  Uiso   1.00
C18    C     0.96758   0.85413   0.46629   0.01267  Uiso   1.00
C19    C     0.57206   0.85300   0.45682   0.01267  Uiso   1.00
C20    C     0.72435   0.37992   0.96917   0.01267  Uiso   1.00
C21    C     0.74192   0.31762   0.97836   0.01267  Uiso   1.00
C22    C     0.62427   0.28356   0.95975   0.01267  Uiso   1.00
C23    C     0.57980   0.40762   0.94242   0.01267  Uiso   1.00
C24    C     0.45824   0.37256   0.92524   0.01267  Uiso   1.00
C25    C     0.48185   0.31105   0.93150   0.01267  Uiso   1.00
C26    C     0.85816   0.41335   0.99117   0.01267  Uiso   1.00
C27    C     0.55839   0.47659   0.92682   0.01267  Uiso   1.00
C28    C     0.34710   0.27349   0.91149   0.01267  Uiso   1.00
C29    C     0.43753   0.23161   0.88542   0.01267  Uiso   1.00
C30    C     0.21042   0.22432   0.97536   0.01267  Uiso   1.00
C31    C     0.25754   0.32152   0.85500   0.01267  Uiso   1.00
C32    C     0.36871   0.37159   0.79656   0.01267  Uiso   1.00
C33    C     0.30178   0.41570   0.74146   0.01267  Uiso   1.00
C34    C     0.11900   0.41179   0.74499   0.01267  Uiso   1.00
C35    C     0.00760   0.36218   0.80458   0.01267  Uiso   1.00
C36    C     0.07559   0.31753   0.85776   0.01267  Uiso   1.00
C37    C     0.43387   0.46629   0.67958   0.01267  Uiso   1.00
C38    C     0.02888   0.45682   0.69018   0.01267  Uiso   1.00
C39    C     0.69352   0.96917   0.65091   0.01267  Uiso   1.00
C40    C     0.72028   0.97836   0.70402   0.01267  Uiso   1.00
C41    C     0.58402   0.95975   0.75669   0.01267  Uiso   1.00
C42    C     0.52222   0.94242   0.64996   0.01267  Uiso   1.00
C43    C     0.38348   0.92524   0.70220   0.01267  Uiso   1.00
C44    C     0.41335   0.93150   0.75745   0.01267  Uiso   1.00
C45    C     0.84933   0.99117   0.59548   0.01267  Uiso   1.00
C46    C     0.48521   0.92682   0.59659   0.01267  Uiso   1.00
C47    C     0.25859   0.91149   0.81502   0.01267  Uiso   1.00
C48    C     0.32295   0.88542   0.88297   0.01267  Uiso   1.00
C49    C     0.18578   0.97536   0.80032   0.01267  Uiso   1.00
C50    C     0.11254   0.85500   0.82348   0.01267  Uiso   1.00
C51    C     0.16527   0.79656   0.83185   0.01267  Uiso   1.00
C52    C     0.04324   0.74146   0.84284   0.01267  Uiso   1.00
C53    C     0.86399   0.74499   0.84322   0.01267  Uiso   1.00
C54    C     0.81218   0.80458   0.83324   0.01267  Uiso   1.00
C55    C     0.93335   0.85776   0.82471   0.01267  Uiso   1.00
C56    C     0.11345   0.67958   0.85413   0.01267  Uiso   1.00
C57    C     0.71906   0.69018   0.85300   0.01267  Uiso   1.00
C58    C     0.65557   0.34909   0.62008   0.01267  Uiso   1.00
C59    C     0.57570   0.29598   0.68238   0.01267  Uiso   1.00
C60    C     0.65929   0.24331   0.71644   0.01267  Uiso   1.00
C61    C     0.82782   0.35004   0.59238   0.01267  Uiso   1.00
C62    C     0.91432   0.29780   0.62744   0.01267  Uiso   1.00
C63    C     0.82920   0.24255   0.68895   0.01267  Uiso   1.00
C64    C     0.55519   0.40452   0.58665   0.01267  Uiso   1.00
C65    C     0.91820   0.40341   0.52341   0.01267  Uiso   1.00
C66    C     0.92639   0.18498   0.72651   0.01267  Uiso   1.00
C67    C     0.79408   0.11703   0.76839   0.01267  Uiso   1.00
C68    C     0.01390   0.19968   0.77568   0.01267  Uiso   1.00
C69    C     0.06398   0.17652   0.67848   0.01267  Uiso   1.00
C70    C     0.00288   0.16815   0.62841   0.01267  Uiso   1.00
C71    C     0.11392   0.15716   0.58430   0.01267  Uiso   1.00
C72    C     0.29279   0.15678   0.58821   0.01267  Uiso   1.00
C73    C     0.35458   0.16676   0.63782   0.01267  Uiso   1.00
C74    C     0.24194   0.17529   0.68247   0.01267  Uiso   1.00
C75    C     0.03242   0.14587   0.53371   0.01267  Uiso   1.00
C76    C     0.42794   0.14700   0.54318   0.01267  Uiso   1.00
C77    C     0.27565   0.62008   0.03083   0.01267  Uiso   1.00
C78    C     0.25808   0.68238   0.02164   0.01267  Uiso   1.00
C79    C     0.37573   0.71644   0.04025   0.01267  Uiso   1.00
C80    C     0.42020   0.59238   0.05758   0.01267  Uiso   1.00
C81    C     0.54176   0.62744   0.07476   0.01267  Uiso   1.00
C82    C     0.51815   0.68895   0.06850   0.01267  Uiso   1.00
C83    C     0.14184   0.58665   0.00883   0.01267  Uiso   1.00
C84    C     0.44161   0.52341   0.07318   0.01267  Uiso   1.00
C85    C     0.65290   0.72651   0.08851   0.01267  Uiso   1.00
C86    C     0.56247   0.76839   0.11458   0.01267  Uiso   1.00
C87    C     0.78958   0.77568   0.02464   0.01267  Uiso   1.00
C88    C     0.74246   0.67848   0.14500   0.01267  Uiso   1.00
C89    C     0.63129   0.62841   0.20344   0.01267  Uiso   1.00
C90    C     0.69822   0.58430   0.25854   0.01267  Uiso   1.00
C91    C     0.88100   0.58821   0.25501   0.01267  Uiso   1.00
C92    C     0.99240   0.63782   0.19542   0.01267  Uiso   1.00
C93    C     0.92441   0.68247   0.14224   0.01267  Uiso   1.00
C94    C     0.56613   0.53371   0.32042   0.01267  Uiso   1.00
C95    C     0.97112   0.54318   0.30982   0.01267  Uiso   1.00
C96    C     0.30648   0.03083   0.34909   0.01267  Uiso   1.00
C97    C     0.27972   0.02164   0.29598   0.01267  Uiso   1.00
C98    C     0.41598   0.04025   0.24331   0.01267  Uiso   1.00
C99    C     0.47778   0.05758   0.35004   0.01267  Uiso   1.00
C100   C     0.61652   0.07476   0.29780   0.01267  Uiso   1.00
C101   C     0.58665   0.06850   0.24255   0.01267  Uiso   1.00
C102   C     0.15067   0.00883   0.40452   0.01267  Uiso   1.00
C103   C     0.51479   0.07318   0.40341   0.01267  Uiso   1.00
C104   C     0.74141   0.08851   0.18498   0.01267  Uiso   1.00
C105   C     0.67705   0.11458   0.11703   0.01267  Uiso   1.00
C106   C     0.81422   0.02464   0.19968   0.01267  Uiso   1.00
C107   C     0.88746   0.14500   0.17652   0.01267  Uiso   1.00
C108   C     0.83473   0.20344   0.16815   0.01267  Uiso   1.00
C109   C     0.95676   0.25854   0.15716   0.01267  Uiso   1.00
C110   C     0.13601   0.25501   0.15678   0.01267  Uiso   1.00
C111   C     0.18782   0.19542   0.16676   0.01267  Uiso   1.00
C112   C     0.06665   0.14224   0.17529   0.01267  Uiso   1.00
C113   C     0.88655   0.32042   0.14587   0.01267  Uiso   1.00
C114   C     0.28094   0.30982   0.14700   0.01267  Uiso   1.00
O1     O     0.60883   0.61050   0.40221   0.01267  Uiso   1.00
O2     O     0.35875   0.53507   0.44912   0.01267  Uiso   1.00
O3     O     0.16462   0.58065   0.52359   0.01267  Uiso   1.00
O4     O     0.91994   0.57044   0.48572   0.01267  Uiso   1.00
O5     O     0.87199   0.86344   0.50737   0.01267  Uiso   1.00
O6     O     0.13009   0.85282   0.46405   0.01267  Uiso   1.00
O7     O     0.46410   0.80391   0.50181   0.01267  Uiso   1.00
O8     O     0.56289   0.91251   0.44394   0.01267  Uiso   1.00
O9     O     0.01104   0.40221   0.98729   0.01267  Uiso   1.00
O10    O     0.80787   0.44912   0.01581   0.01267  Uiso   1.00
O11    O     0.68821   0.52359   0.89576   0.01267  Uiso   1.00
O12    O     0.40566   0.48572   0.94384   0.01267  Uiso   1.00
O13    O     0.37936   0.50737   0.62919   0.01267  Uiso   1.00
O14    O     0.59414   0.46405   0.68313   0.01267  Uiso   1.00
O15    O     0.96591   0.50181   0.69428   0.01267  Uiso   1.00
O16    O     0.00683   0.44394   0.64355   0.01267  Uiso   1.00
O17    O     0.99833   0.98729   0.61050   0.01267  Uiso   1.00
O18    O     0.82368   0.01581   0.53507   0.01267  Uiso   1.00
O19    O     0.58397   0.89576   0.58065   0.01267  Uiso   1.00
O20    O     0.34950   0.94384   0.57044   0.01267  Uiso   1.00
O21    O     0.00855   0.62919   0.86344   0.01267  Uiso   1.00
O22    O     0.27727   0.68313   0.85282   0.01267  Uiso   1.00
O23    O     0.66019   0.69428   0.80391   0.01267  Uiso   1.00
O24    O     0.65038   0.64355   0.91251   0.01267  Uiso   1.00
O25    O     0.39117   0.38950   0.59779   0.01267  Uiso   1.00
O26    O     0.64125   0.46493   0.55088   0.01267  Uiso   1.00
O27    O     0.83538   0.41935   0.47641   0.01267  Uiso   1.00
O28    O     0.08006   0.42956   0.51428   0.01267  Uiso   1.00
O29    O     0.12801   0.13656   0.49263   0.01267  Uiso   1.00
O30    O     0.86991   0.14718   0.53595   0.01267  Uiso   1.00
O31    O     0.53590   0.19609   0.49819   0.01267  Uiso   1.00
O32    O     0.43711   0.08749   0.55606   0.01267  Uiso   1.00
O33    O     0.98896   0.59779   0.01271   0.01267  Uiso   1.00
O34    O     0.19213   0.55088   0.98419   0.01267  Uiso   1.00
O35    O     0.31179   0.47641   0.10424   0.01267  Uiso   1.00
O36    O     0.59434   0.51428   0.05616   0.01267  Uiso   1.00
O37    O     0.62064   0.49263   0.37081   0.01267  Uiso   1.00
O38    O     0.40586   0.53595   0.31687   0.01267  Uiso   1.00
O39    O     0.03409   0.49819   0.30572   0.01267  Uiso   1.00
O40    O     0.99317   0.55606   0.35645   0.01267  Uiso   1.00
O41    O     0.00167   0.01271   0.38950   0.01267  Uiso   1.00
O42    O     0.17632   0.98419   0.46493   0.01267  Uiso   1.00
O43    O     0.41603   0.10424   0.41935   0.01267  Uiso   1.00
O44    O     0.65050   0.05616   0.42956   0.01267  Uiso   1.00
O45    O     0.99145   0.37081   0.13656   0.01267  Uiso   1.00
O46    O     0.72273   0.31687   0.14718   0.01267  Uiso   1.00
O47    O     0.33981   0.30572   0.19609   0.01267  Uiso   1.00
O48    O     0.34962   0.35645   0.08749   0.01267  Uiso   1.00
F1     F     0.12281   0.93449   0.21236   0.01267  Uiso   1.00
F2     F     0.30162   0.89035   0.17659   0.01267  Uiso   1.00
F3     F     0.32087   0.89003   0.26822   0.01267  Uiso   1.00
F4     F     0.91136   0.85030   0.18382   0.01267  Uiso   1.00
F5     F     0.10066   0.78871   0.18553   0.01267  Uiso   1.00
F6     F     0.85877   0.74522   0.25781   0.01267  Uiso   1.00
F7     F     0.33517   0.21236   0.85315   0.01267  Uiso   1.00
F8     F     0.47821   0.17659   0.93306   0.01267  Uiso   1.00
F9     F     0.58909   0.26822   0.84175   0.01267  Uiso   1.00
F10    F     0.09518   0.18382   0.96588   0.01267  Uiso   1.00
F11    F     0.28619   0.18553   0.02576   0.01267  Uiso   1.00
F12    F     0.11658   0.25781   0.99697   0.01267  Uiso   1.00
F13    F     0.18832   0.85315   0.93449   0.01267  Uiso   1.00
F14    F     0.41127   0.93306   0.89035   0.01267  Uiso   1.00
F15    F     0.43084   0.84175   0.89003   0.01267  Uiso   1.00
F16    F     0.06106   0.96588   0.85030   0.01267  Uiso   1.00
F17    F     0.31195   0.02576   0.78871   0.01267  Uiso   1.00
F18    F     0.11355   0.99697   0.74522   0.01267  Uiso   1.00
F19    F     0.87719   0.06551   0.78764   0.01267  Uiso   1.00
F20    F     0.69838   0.10965   0.82341   0.01267  Uiso   1.00
F21    F     0.67913   0.10997   0.73178   0.01267  Uiso   1.00
F22    F     0.08864   0.14970   0.81618   0.01267  Uiso   1.00
F23    F     0.89934   0.21129   0.81447   0.01267  Uiso   1.00
F24    F     0.14123   0.25478   0.74219   0.01267  Uiso   1.00
F25    F     0.66483   0.78764   0.14685   0.01267  Uiso   1.00
F26    F     0.52179   0.82341   0.06694   0.01267  Uiso   1.00
F27    F     0.41091   0.73178   0.15825   0.01267  Uiso   1.00
F28    F     0.90482   0.81618   0.03412   0.01267  Uiso   1.00
F29    F     0.71381   0.81447   0.97424   0.01267  Uiso   1.00
F30    F     0.88342   0.74219   0.00303   0.01267  Uiso   1.00
F31    F     0.81168   0.14685   0.06551   0.01267  Uiso   1.00
F32    F     0.58873   0.06694   0.10965   0.01267  Uiso   1.00
F33    F     0.56916   0.15825   0.10997   0.01267  Uiso   1.00
F34    F     0.93894   0.03412   0.14970   0.01267  Uiso   1.00
F35    F     0.68805   0.97424   0.21129   0.01267  Uiso   1.00
F36    F     0.88645   0.00303   0.25478   0.01267  Uiso   1.00
