data_image0
_cell_length_a       16.085
_cell_length_b       16.0849
_cell_length_c       20.246
_cell_angle_alpha    90
_cell_angle_beta     90
_cell_angle_gamma    90

_symmetry_space_group_name_H-M    "P 1"
_symmetry_int_tables_number       1

loop_
  _symmetry_equiv_pos_as_xyz
  'x, y, z'

loop_
  _atom_site_label
  _atom_site_occupancy
  _atom_site_fract_x
  _atom_site_fract_y
  _atom_site_fract_z
  _atom_site_thermal_displace_type
  _atom_site_B_iso_or_equiv
  _atom_site_type_symbol
  C1       1.0000 0.85819  0.43217  0.29320  Biso   1.000  C
  H1       1.0000 0.81340  0.46250  0.27710  Biso   1.000  H
  C2       1.0000 0.85443  0.34658  0.29016  Biso   1.000  C
  H2       1.0000 0.80800  0.32060  0.27230  Biso   1.000  H
  C3       1.0000 0.91986  0.29966  0.31375  Biso   1.000  C
  C4       1.0000 0.98760  0.34279  0.34026  Biso   1.000  C
  H3       1.0000 0.03310  0.31390  0.35700  Biso   1.000  H
  C5       1.0000 0.98635  0.42830  0.34136  Biso   1.000  C
  H4       1.0000 0.03190  0.45600  0.35910  Biso   1.000  H
  C6       1.0000 0.91885  0.20758  0.31166  Biso   1.000  C
  C7       1.0000 0.88352  0.16282  0.25758  Biso   1.000  C
  C8       1.0000 0.88307  0.07368  0.25655  Biso   1.000  C
  C9       1.0000 0.91744  0.02678  0.30989  Biso   1.000  C
  C10      1.0000 0.95120  0.07222  0.36039  Biso   1.000  C
  H5       1.0000 0.97440  0.04400  0.39600  Biso   1.000  H
  C11      1.0000 0.95240  0.16040  0.36083  Biso   1.000  C
  H6       1.0000 0.97730  0.18730  0.39630  Biso   1.000  H
  C12      1.0000 0.98360  0.89116  0.33763  Biso   1.000  C
  H7       1.0000 0.02900  0.91940  0.35530  Biso   1.000  H
  C13      1.0000 0.91687  0.93519  0.31079  Biso   1.000  C
  C14      1.0000 0.85150  0.88875  0.28630  Biso   1.000  C
  H8       1.0000 0.80530  0.91520  0.26840  Biso   1.000  H
  C15      1.0000 0.85490  0.80301  0.28850  Biso   1.000  C
  H9       1.0000 0.81030  0.77300  0.27150  Biso   1.000  H
  C16      1.0000 0.98170  0.80551  0.33775  Biso   1.000  C
  H10      1.0000 0.02680  0.77720  0.35560  Biso   1.000  H
  C17      1.0000 0.13055  0.61707  0.32297  Biso   1.000  C
  C18      1.0000 0.18001  0.61684  0.38638  Biso   1.000  C
  C19      1.0000 0.26580  0.62170  0.38363  Biso   1.000  C
  H11      1.0000 0.29240  0.62440  0.34290  Biso   1.000  H
  C20      1.0000 0.31190  0.62280  0.44123  Biso   1.000  C
  H12      1.0000 0.36950  0.62660  0.43880  Biso   1.000  H
  C21      1.0000 0.27403  0.61817  0.50213  Biso   1.000  C
  C22      1.0000 0.18870  0.61070  0.50485  Biso   1.000  C
  H13      1.0000 0.16240  0.60580  0.54550  Biso   1.000  H
  C23      1.0000 0.14160  0.61060  0.44692  Biso   1.000  C
  H14      1.0000 0.08400  0.60620  0.44930  Biso   1.000  H
  C24      1.0000 0.32560  0.61949  0.56420  Biso   1.000  C
  Cd1      1.0000 0.91292  0.61653  0.32093  Biso   1.000  Cd
  N1       1.0000 0.85073  0.04170  0.20052  Biso   1.000  N
  N2       1.0000 0.85113  0.19663  0.20218  Biso   1.000  N
  N3       1.0000 0.92302  0.47368  0.31816  Biso   1.000  N
  N4       1.0000 0.91891  0.76123  0.31380  Biso   1.000  N
  O1       1.0000 0.05371  0.61850  0.32641  Biso   1.000  O
  O2       1.0000 0.17034  0.61605  0.26977  Biso   1.000  O
  O3       1.0000 0.40220  0.62590  0.56024  Biso   1.000  O
  O4       1.0000 0.29024  0.61410  0.61789  Biso   1.000  O
  S1       1.0000 0.82434  0.12013  0.15550  Biso   1.000  S
  C25      1.0000 0.14181  0.43217  0.20680  Biso   1.000  C
  H15      1.0000 0.18660  0.46250  0.22290  Biso   1.000  H
  C26      1.0000 0.14557  0.34658  0.20984  Biso   1.000  C
  H16      1.0000 0.19200  0.32060  0.22770  Biso   1.000  H
  C27      1.0000 0.08014  0.29966  0.18625  Biso   1.000  C
  C28      1.0000 0.01240  0.34279  0.15974  Biso   1.000  C
  H17      1.0000 0.96690  0.31390  0.14300  Biso   1.000  H
  C29      1.0000 0.01365  0.42830  0.15864  Biso   1.000  C
  H18      1.0000 0.96810  0.45600  0.14090  Biso   1.000  H
  C30      1.0000 0.08115  0.20758  0.18834  Biso   1.000  C
  C31      1.0000 0.11648  0.16282  0.24242  Biso   1.000  C
  C32      1.0000 0.11693  0.07368  0.24345  Biso   1.000  C
  C33      1.0000 0.08256  0.02678  0.19011  Biso   1.000  C
  C34      1.0000 0.04880  0.07222  0.13961  Biso   1.000  C
  H19      1.0000 0.02560  0.04400  0.10400  Biso   1.000  H
  C35      1.0000 0.04760  0.16040  0.13917  Biso   1.000  C
  H20      1.0000 0.02270  0.18730  0.10370  Biso   1.000  H
  C36      1.0000 0.01640  0.89116  0.16237  Biso   1.000  C
  H21      1.0000 0.97100  0.91940  0.14470  Biso   1.000  H
  C37      1.0000 0.08313  0.93519  0.18921  Biso   1.000  C
  C38      1.0000 0.14850  0.88875  0.21370  Biso   1.000  C
  H22      1.0000 0.19470  0.91520  0.23160  Biso   1.000  H
  C39      1.0000 0.14510  0.80301  0.21150  Biso   1.000  C
  H23      1.0000 0.18970  0.77300  0.22850  Biso   1.000  H
  C40      1.0000 0.01830  0.80551  0.16225  Biso   1.000  C
  H24      1.0000 0.97320  0.77720  0.14440  Biso   1.000  H
  C41      1.0000 0.86945  0.61707  0.17703  Biso   1.000  C
  C42      1.0000 0.81999  0.61684  0.11362  Biso   1.000  C
  C43      1.0000 0.73420  0.62170  0.11637  Biso   1.000  C
  H25      1.0000 0.70760  0.62440  0.15710  Biso   1.000  H
  C44      1.0000 0.68810  0.62280  0.05877  Biso   1.000  C
  H26      1.0000 0.63050  0.62660  0.06120  Biso   1.000  H
  C45      1.0000 0.72597  0.61817  0.99787  Biso   1.000  C
  C46      1.0000 0.81130  0.61070  0.99515  Biso   1.000  C
  H27      1.0000 0.83760  0.60580  0.95450  Biso   1.000  H
  C47      1.0000 0.85840  0.61060  0.05308  Biso   1.000  C
  H28      1.0000 0.91600  0.60620  0.05070  Biso   1.000  H
  C48      1.0000 0.67440  0.61949  0.93580  Biso   1.000  C
  Cd2      1.0000 0.08708  0.61653  0.17907  Biso   1.000  Cd
  N5       1.0000 0.14927  0.04170  0.29948  Biso   1.000  N
  N6       1.0000 0.14887  0.19663  0.29782  Biso   1.000  N
  N7       1.0000 0.07698  0.47368  0.18184  Biso   1.000  N
  N8       1.0000 0.08109  0.76123  0.18620  Biso   1.000  N
  O5       1.0000 0.94629  0.61850  0.17359  Biso   1.000  O
  O6       1.0000 0.82966  0.61605  0.23023  Biso   1.000  O
  O7       1.0000 0.59780  0.62590  0.93976  Biso   1.000  O
  O8       1.0000 0.70976  0.61410  0.88211  Biso   1.000  O
  S2       1.0000 0.17566  0.12013  0.34450  Biso   1.000  S
  C49      1.0000 0.35819  0.43217  0.70680  Biso   1.000  C
  H29      1.0000 0.31340  0.46250  0.72290  Biso   1.000  H
  C50      1.0000 0.35443  0.34658  0.70984  Biso   1.000  C
  H30      1.0000 0.30800  0.32060  0.72770  Biso   1.000  H
  C51      1.0000 0.41986  0.29966  0.68625  Biso   1.000  C
  C52      1.0000 0.48760  0.34279  0.65974  Biso   1.000  C
  H31      1.0000 0.53310  0.31390  0.64300  Biso   1.000  H
  C53      1.0000 0.48635  0.42830  0.65864  Biso   1.000  C
  H32      1.0000 0.53190  0.45600  0.64090  Biso   1.000  H
  C54      1.0000 0.41885  0.20758  0.68834  Biso   1.000  C
  C55      1.0000 0.38352  0.16282  0.74242  Biso   1.000  C
  C56      1.0000 0.38307  0.07368  0.74345  Biso   1.000  C
  C57      1.0000 0.41744  0.02678  0.69011  Biso   1.000  C
  C58      1.0000 0.45120  0.07222  0.63961  Biso   1.000  C
  H33      1.0000 0.47440  0.04400  0.60400  Biso   1.000  H
  C59      1.0000 0.45240  0.16040  0.63917  Biso   1.000  C
  H34      1.0000 0.47730  0.18730  0.60370  Biso   1.000  H
  C60      1.0000 0.48360  0.89116  0.66237  Biso   1.000  C
  H35      1.0000 0.52900  0.91940  0.64470  Biso   1.000  H
  C61      1.0000 0.41687  0.93519  0.68921  Biso   1.000  C
  C62      1.0000 0.35150  0.88875  0.71370  Biso   1.000  C
  H36      1.0000 0.30530  0.91520  0.73160  Biso   1.000  H
  C63      1.0000 0.35490  0.80301  0.71150  Biso   1.000  C
  H37      1.0000 0.31030  0.77300  0.72850  Biso   1.000  H
  C64      1.0000 0.48170  0.80551  0.66225  Biso   1.000  C
  H38      1.0000 0.52680  0.77720  0.64440  Biso   1.000  H
  C65      1.0000 0.63055  0.61707  0.67703  Biso   1.000  C
  C66      1.0000 0.68001  0.61684  0.61362  Biso   1.000  C
  C67      1.0000 0.76580  0.62170  0.61637  Biso   1.000  C
  H39      1.0000 0.79240  0.62440  0.65710  Biso   1.000  H
  C68      1.0000 0.81190  0.62280  0.55877  Biso   1.000  C
  H40      1.0000 0.86950  0.62660  0.56120  Biso   1.000  H
  C69      1.0000 0.77403  0.61817  0.49787  Biso   1.000  C
  C70      1.0000 0.68870  0.61070  0.49515  Biso   1.000  C
  H41      1.0000 0.66240  0.60580  0.45450  Biso   1.000  H
  C71      1.0000 0.64160  0.61060  0.55308  Biso   1.000  C
  H42      1.0000 0.58400  0.60620  0.55070  Biso   1.000  H
  C72      1.0000 0.82560  0.61949  0.43580  Biso   1.000  C
  Cd3      1.0000 0.41292  0.61653  0.67907  Biso   1.000  Cd
  N9       1.0000 0.35073  0.04170  0.79948  Biso   1.000  N
  N10      1.0000 0.35113  0.19663  0.79782  Biso   1.000  N
  N11      1.0000 0.42302  0.47368  0.68184  Biso   1.000  N
  N12      1.0000 0.41891  0.76123  0.68620  Biso   1.000  N
  O9       1.0000 0.55371  0.61850  0.67359  Biso   1.000  O
  O10      1.0000 0.67034  0.61605  0.73023  Biso   1.000  O
  O11      1.0000 0.90220  0.62590  0.43976  Biso   1.000  O
  O12      1.0000 0.79024  0.61410  0.38211  Biso   1.000  O
  S3       1.0000 0.32434  0.12013  0.84450  Biso   1.000  S
  C73      1.0000 0.64181  0.43217  0.79320  Biso   1.000  C
  H43      1.0000 0.68660  0.46250  0.77710  Biso   1.000  H
  C74      1.0000 0.64557  0.34658  0.79016  Biso   1.000  C
  H44      1.0000 0.69200  0.32060  0.77230  Biso   1.000  H
  C75      1.0000 0.58014  0.29966  0.81375  Biso   1.000  C
  C76      1.0000 0.51240  0.34279  0.84026  Biso   1.000  C
  H45      1.0000 0.46690  0.31390  0.85700  Biso   1.000  H
  C77      1.0000 0.51365  0.42830  0.84136  Biso   1.000  C
  H46      1.0000 0.46810  0.45600  0.85910  Biso   1.000  H
  C78      1.0000 0.58115  0.20758  0.81166  Biso   1.000  C
  C79      1.0000 0.61648  0.16282  0.75758  Biso   1.000  C
  C80      1.0000 0.61693  0.07368  0.75655  Biso   1.000  C
  C81      1.0000 0.58256  0.02678  0.80989  Biso   1.000  C
  C82      1.0000 0.54880  0.07222  0.86039  Biso   1.000  C
  H47      1.0000 0.52560  0.04400  0.89600  Biso   1.000  H
  C83      1.0000 0.54760  0.16040  0.86083  Biso   1.000  C
  H48      1.0000 0.52270  0.18730  0.89630  Biso   1.000  H
  C84      1.0000 0.51640  0.89116  0.83763  Biso   1.000  C
  H49      1.0000 0.47100  0.91940  0.85530  Biso   1.000  H
  C85      1.0000 0.58313  0.93519  0.81079  Biso   1.000  C
  C86      1.0000 0.64850  0.88875  0.78630  Biso   1.000  C
  H50      1.0000 0.69470  0.91520  0.76840  Biso   1.000  H
  C87      1.0000 0.64510  0.80301  0.78850  Biso   1.000  C
  H51      1.0000 0.68970  0.77300  0.77150  Biso   1.000  H
  C88      1.0000 0.51830  0.80551  0.83775  Biso   1.000  C
  H52      1.0000 0.47320  0.77720  0.85560  Biso   1.000  H
  C89      1.0000 0.36945  0.61707  0.82297  Biso   1.000  C
  C90      1.0000 0.31999  0.61684  0.88638  Biso   1.000  C
  C91      1.0000 0.23420  0.62170  0.88363  Biso   1.000  C
  H53      1.0000 0.20760  0.62440  0.84290  Biso   1.000  H
  C92      1.0000 0.18810  0.62280  0.94123  Biso   1.000  C
  H54      1.0000 0.13050  0.62660  0.93880  Biso   1.000  H
  C93      1.0000 0.22597  0.61817  0.00213  Biso   1.000  C
  C94      1.0000 0.31130  0.61070  0.00485  Biso   1.000  C
  H55      1.0000 0.33760  0.60580  0.04550  Biso   1.000  H
  C95      1.0000 0.35840  0.61060  0.94692  Biso   1.000  C
  H56      1.0000 0.41600  0.60620  0.94930  Biso   1.000  H
  C96      1.0000 0.17440  0.61949  0.06420  Biso   1.000  C
  Cd4      1.0000 0.58708  0.61653  0.82093  Biso   1.000  Cd
  N13      1.0000 0.64927  0.04170  0.70052  Biso   1.000  N
  N14      1.0000 0.64887  0.19663  0.70218  Biso   1.000  N
  N15      1.0000 0.57698  0.47368  0.81816  Biso   1.000  N
  N16      1.0000 0.58109  0.76123  0.81380  Biso   1.000  N
  O13      1.0000 0.44629  0.61850  0.82641  Biso   1.000  O
  O14      1.0000 0.32966  0.61605  0.76977  Biso   1.000  O
  O15      1.0000 0.09780  0.62590  0.06024  Biso   1.000  O
  O16      1.0000 0.20976  0.61410  0.11789  Biso   1.000  O
  S4       1.0000 0.67566  0.12013  0.65550  Biso   1.000  S
  C97      1.0000 0.64181  0.56783  0.29320  Biso   1.000  C
  H57      1.0000 0.68660  0.53750  0.27710  Biso   1.000  H
  C98      1.0000 0.64557  0.65342  0.29016  Biso   1.000  C
  H58      1.0000 0.69200  0.67940  0.27230  Biso   1.000  H
  C99      1.0000 0.58014  0.70034  0.31375  Biso   1.000  C
  C100     1.0000 0.51240  0.65721  0.34026  Biso   1.000  C
  H59      1.0000 0.46690  0.68610  0.35700  Biso   1.000  H
  C101     1.0000 0.51365  0.57170  0.34136  Biso   1.000  C
  H60      1.0000 0.46810  0.54400  0.35910  Biso   1.000  H
  C102     1.0000 0.58115  0.79242  0.31166  Biso   1.000  C
  C103     1.0000 0.61648  0.83718  0.25758  Biso   1.000  C
  C104     1.0000 0.61693  0.92632  0.25655  Biso   1.000  C
  C105     1.0000 0.58256  0.97322  0.30989  Biso   1.000  C
  C106     1.0000 0.54880  0.92778  0.36039  Biso   1.000  C
  H61      1.0000 0.52560  0.95600  0.39600  Biso   1.000  H
  C107     1.0000 0.54760  0.83960  0.36083  Biso   1.000  C
  H62      1.0000 0.52270  0.81270  0.39630  Biso   1.000  H
  C108     1.0000 0.51640  0.10884  0.33763  Biso   1.000  C
  H63      1.0000 0.47100  0.08060  0.35530  Biso   1.000  H
  C109     1.0000 0.58313  0.06481  0.31079  Biso   1.000  C
  C110     1.0000 0.64850  0.11125  0.28630  Biso   1.000  C
  H64      1.0000 0.69470  0.08480  0.26840  Biso   1.000  H
  C111     1.0000 0.64510  0.19699  0.28850  Biso   1.000  C
  H65      1.0000 0.68970  0.22700  0.27150  Biso   1.000  H
  C112     1.0000 0.51830  0.19449  0.33775  Biso   1.000  C
  H66      1.0000 0.47320  0.22280  0.35560  Biso   1.000  H
  C113     1.0000 0.36945  0.38293  0.32297  Biso   1.000  C
  C114     1.0000 0.31999  0.38316  0.38638  Biso   1.000  C
  C115     1.0000 0.23420  0.37830  0.38363  Biso   1.000  C
  H67      1.0000 0.20760  0.37560  0.34290  Biso   1.000  H
  C116     1.0000 0.18810  0.37720  0.44123  Biso   1.000  C
  H68      1.0000 0.13050  0.37340  0.43880  Biso   1.000  H
  C117     1.0000 0.22597  0.38183  0.50213  Biso   1.000  C
  C118     1.0000 0.31130  0.38930  0.50485  Biso   1.000  C
  H69      1.0000 0.33760  0.39420  0.54550  Biso   1.000  H
  C119     1.0000 0.35840  0.38940  0.44692  Biso   1.000  C
  H70      1.0000 0.41600  0.39380  0.44930  Biso   1.000  H
  C120     1.0000 0.17440  0.38051  0.56420  Biso   1.000  C
  Cd5      1.0000 0.58708  0.38347  0.32093  Biso   1.000  Cd
  N17      1.0000 0.64927  0.95830  0.20052  Biso   1.000  N
  N18      1.0000 0.64887  0.80337  0.20218  Biso   1.000  N
  N19      1.0000 0.57698  0.52632  0.31816  Biso   1.000  N
  N20      1.0000 0.58109  0.23877  0.31380  Biso   1.000  N
  O17      1.0000 0.44629  0.38150  0.32641  Biso   1.000  O
  O18      1.0000 0.32966  0.38395  0.26977  Biso   1.000  O
  O19      1.0000 0.09780  0.37410  0.56024  Biso   1.000  O
  O20      1.0000 0.20976  0.38590  0.61789  Biso   1.000  O
  S5       1.0000 0.67566  0.87987  0.15550  Biso   1.000  S
  C121     1.0000 0.35819  0.56783  0.20680  Biso   1.000  C
  H71      1.0000 0.31340  0.53750  0.22290  Biso   1.000  H
  C122     1.0000 0.35443  0.65342  0.20984  Biso   1.000  C
  H72      1.0000 0.30800  0.67940  0.22770  Biso   1.000  H
  C123     1.0000 0.41986  0.70034  0.18625  Biso   1.000  C
  C124     1.0000 0.48760  0.65721  0.15974  Biso   1.000  C
  H73      1.0000 0.53310  0.68610  0.14300  Biso   1.000  H
  C125     1.0000 0.48635  0.57170  0.15864  Biso   1.000  C
  H74      1.0000 0.53190  0.54400  0.14090  Biso   1.000  H
  C126     1.0000 0.41885  0.79242  0.18834  Biso   1.000  C
  C127     1.0000 0.38352  0.83718  0.24242  Biso   1.000  C
  C128     1.0000 0.38307  0.92632  0.24345  Biso   1.000  C
  C129     1.0000 0.41744  0.97322  0.19011  Biso   1.000  C
  C130     1.0000 0.45120  0.92778  0.13961  Biso   1.000  C
  H75      1.0000 0.47440  0.95600  0.10400  Biso   1.000  H
  C131     1.0000 0.45240  0.83960  0.13917  Biso   1.000  C
  H76      1.0000 0.47730  0.81270  0.10370  Biso   1.000  H
  C132     1.0000 0.48360  0.10884  0.16237  Biso   1.000  C
  H77      1.0000 0.52900  0.08060  0.14470  Biso   1.000  H
  C133     1.0000 0.41687  0.06481  0.18921  Biso   1.000  C
  C134     1.0000 0.35150  0.11125  0.21370  Biso   1.000  C
  H78      1.0000 0.30530  0.08480  0.23160  Biso   1.000  H
  C135     1.0000 0.35490  0.19699  0.21150  Biso   1.000  C
  H79      1.0000 0.31030  0.22700  0.22850  Biso   1.000  H
  C136     1.0000 0.48170  0.19449  0.16225  Biso   1.000  C
  H80      1.0000 0.52680  0.22280  0.14440  Biso   1.000  H
  C137     1.0000 0.63055  0.38293  0.17703  Biso   1.000  C
  C138     1.0000 0.68001  0.38316  0.11362  Biso   1.000  C
  C139     1.0000 0.76580  0.37830  0.11637  Biso   1.000  C
  H81      1.0000 0.79240  0.37560  0.15710  Biso   1.000  H
  C140     1.0000 0.81190  0.37720  0.05877  Biso   1.000  C
  H82      1.0000 0.86950  0.37340  0.06120  Biso   1.000  H
  C141     1.0000 0.77403  0.38183  0.99787  Biso   1.000  C
  C142     1.0000 0.68870  0.38930  0.99515  Biso   1.000  C
  H83      1.0000 0.66240  0.39420  0.95450  Biso   1.000  H
  C143     1.0000 0.64160  0.38940  0.05308  Biso   1.000  C
  H84      1.0000 0.58400  0.39380  0.05070  Biso   1.000  H
  C144     1.0000 0.82560  0.38051  0.93580  Biso   1.000  C
  Cd6      1.0000 0.41292  0.38347  0.17907  Biso   1.000  Cd
  N21      1.0000 0.35073  0.95830  0.29948  Biso   1.000  N
  N22      1.0000 0.35113  0.80337  0.29782  Biso   1.000  N
  N23      1.0000 0.42302  0.52632  0.18184  Biso   1.000  N
  N24      1.0000 0.41891  0.23877  0.18620  Biso   1.000  N
  O21      1.0000 0.55371  0.38150  0.17359  Biso   1.000  O
  O22      1.0000 0.67034  0.38395  0.23023  Biso   1.000  O
  O23      1.0000 0.90220  0.37410  0.93976  Biso   1.000  O
  O24      1.0000 0.79024  0.38590  0.88211  Biso   1.000  O
  S6       1.0000 0.32434  0.87987  0.34450  Biso   1.000  S
  C145     1.0000 0.14181  0.56783  0.70680  Biso   1.000  C
  H85      1.0000 0.18660  0.53750  0.72290  Biso   1.000  H
  C146     1.0000 0.14557  0.65342  0.70984  Biso   1.000  C
  H86      1.0000 0.19200  0.67940  0.72770  Biso   1.000  H
  C147     1.0000 0.08014  0.70034  0.68625  Biso   1.000  C
  C148     1.0000 0.01240  0.65721  0.65974  Biso   1.000  C
  H87      1.0000 0.96690  0.68610  0.64300  Biso   1.000  H
  C149     1.0000 0.01365  0.57170  0.65864  Biso   1.000  C
  H88      1.0000 0.96810  0.54400  0.64090  Biso   1.000  H
  C150     1.0000 0.08115  0.79242  0.68834  Biso   1.000  C
  C151     1.0000 0.11648  0.83718  0.74242  Biso   1.000  C
  C152     1.0000 0.11693  0.92632  0.74345  Biso   1.000  C
  C153     1.0000 0.08256  0.97322  0.69011  Biso   1.000  C
  C154     1.0000 0.04880  0.92778  0.63961  Biso   1.000  C
  H89      1.0000 0.02560  0.95600  0.60400  Biso   1.000  H
  C155     1.0000 0.04760  0.83960  0.63917  Biso   1.000  C
  H90      1.0000 0.02270  0.81270  0.60370  Biso   1.000  H
  C156     1.0000 0.01640  0.10884  0.66237  Biso   1.000  C
  H91      1.0000 0.97100  0.08060  0.64470  Biso   1.000  H
  C157     1.0000 0.08313  0.06481  0.68921  Biso   1.000  C
  C158     1.0000 0.14850  0.11125  0.71370  Biso   1.000  C
  H92      1.0000 0.19470  0.08480  0.73160  Biso   1.000  H
  C159     1.0000 0.14510  0.19699  0.71150  Biso   1.000  C
  H93      1.0000 0.18970  0.22700  0.72850  Biso   1.000  H
  C160     1.0000 0.01830  0.19449  0.66225  Biso   1.000  C
  H94      1.0000 0.97320  0.22280  0.64440  Biso   1.000  H
  C161     1.0000 0.86945  0.38293  0.67703  Biso   1.000  C
  C162     1.0000 0.81999  0.38316  0.61362  Biso   1.000  C
  C163     1.0000 0.73420  0.37830  0.61637  Biso   1.000  C
  H95      1.0000 0.70760  0.37560  0.65710  Biso   1.000  H
  C164     1.0000 0.68810  0.37720  0.55877  Biso   1.000  C
  H96      1.0000 0.63050  0.37340  0.56120  Biso   1.000  H
  C165     1.0000 0.72597  0.38183  0.49787  Biso   1.000  C
  C166     1.0000 0.81130  0.38930  0.49515  Biso   1.000  C
  H97      1.0000 0.83760  0.39420  0.45450  Biso   1.000  H
  C167     1.0000 0.85840  0.38940  0.55308  Biso   1.000  C
  H98      1.0000 0.91600  0.39380  0.55070  Biso   1.000  H
  C168     1.0000 0.67440  0.38051  0.43580  Biso   1.000  C
  Cd7      1.0000 0.08708  0.38347  0.67907  Biso   1.000  Cd
  N25      1.0000 0.14927  0.95830  0.79948  Biso   1.000  N
  N26      1.0000 0.14887  0.80337  0.79782  Biso   1.000  N
  N27      1.0000 0.07698  0.52632  0.68184  Biso   1.000  N
  N28      1.0000 0.08109  0.23877  0.68620  Biso   1.000  N
  O25      1.0000 0.94629  0.38150  0.67359  Biso   1.000  O
  O26      1.0000 0.82966  0.38395  0.73023  Biso   1.000  O
  O27      1.0000 0.59780  0.37410  0.43976  Biso   1.000  O
  O28      1.0000 0.70976  0.38590  0.38211  Biso   1.000  O
  S7       1.0000 0.17566  0.87987  0.84450  Biso   1.000  S
  C169     1.0000 0.85819  0.56783  0.79320  Biso   1.000  C
  H99      1.0000 0.81340  0.53750  0.77710  Biso   1.000  H
  C170     1.0000 0.85443  0.65342  0.79016  Biso   1.000  C
  H100     1.0000 0.80800  0.67940  0.77230  Biso   1.000  H
  C171     1.0000 0.91986  0.70034  0.81375  Biso   1.000  C
  C172     1.0000 0.98760  0.65721  0.84026  Biso   1.000  C
  H101     1.0000 0.03310  0.68610  0.85700  Biso   1.000  H
  C173     1.0000 0.98635  0.57170  0.84136  Biso   1.000  C
  H102     1.0000 0.03190  0.54400  0.85910  Biso   1.000  H
  C174     1.0000 0.91885  0.79242  0.81166  Biso   1.000  C
  C175     1.0000 0.88352  0.83718  0.75758  Biso   1.000  C
  C176     1.0000 0.88307  0.92632  0.75655  Biso   1.000  C
  C177     1.0000 0.91744  0.97322  0.80989  Biso   1.000  C
  C178     1.0000 0.95120  0.92778  0.86039  Biso   1.000  C
  H103     1.0000 0.97440  0.95600  0.89600  Biso   1.000  H
  C179     1.0000 0.95240  0.83960  0.86083  Biso   1.000  C
  H104     1.0000 0.97730  0.81270  0.89630  Biso   1.000  H
  C180     1.0000 0.98360  0.10884  0.83763  Biso   1.000  C
  H105     1.0000 0.02900  0.08060  0.85530  Biso   1.000  H
  C181     1.0000 0.91687  0.06481  0.81079  Biso   1.000  C
  C182     1.0000 0.85150  0.11125  0.78630  Biso   1.000  C
  H106     1.0000 0.80530  0.08480  0.76840  Biso   1.000  H
  C183     1.0000 0.85490  0.19699  0.78850  Biso   1.000  C
  H107     1.0000 0.81030  0.22700  0.77150  Biso   1.000  H
  C184     1.0000 0.98170  0.19449  0.83775  Biso   1.000  C
  H108     1.0000 0.02680  0.22280  0.85560  Biso   1.000  H
  C185     1.0000 0.13055  0.38293  0.82297  Biso   1.000  C
  C186     1.0000 0.18001  0.38316  0.88638  Biso   1.000  C
  C187     1.0000 0.26580  0.37830  0.88363  Biso   1.000  C
  H109     1.0000 0.29240  0.37560  0.84290  Biso   1.000  H
  C188     1.0000 0.31190  0.37720  0.94123  Biso   1.000  C
  H110     1.0000 0.36950  0.37340  0.93880  Biso   1.000  H
  C189     1.0000 0.27403  0.38183  0.00213  Biso   1.000  C
  C190     1.0000 0.18870  0.38930  0.00485  Biso   1.000  C
  H111     1.0000 0.16240  0.39420  0.04550  Biso   1.000  H
  C191     1.0000 0.14160  0.38940  0.94692  Biso   1.000  C
  H112     1.0000 0.08400  0.39380  0.94930  Biso   1.000  H
  C192     1.0000 0.32560  0.38051  0.06420  Biso   1.000  C
  Cd8      1.0000 0.91292  0.38347  0.82093  Biso   1.000  Cd
  N29      1.0000 0.85073  0.95830  0.70052  Biso   1.000  N
  N30      1.0000 0.85113  0.80337  0.70218  Biso   1.000  N
  N31      1.0000 0.92302  0.52632  0.81816  Biso   1.000  N
  N32      1.0000 0.91891  0.23877  0.81380  Biso   1.000  N
  O29      1.0000 0.05371  0.38150  0.82641  Biso   1.000  O
  O30      1.0000 0.17034  0.38395  0.76977  Biso   1.000  O
  O31      1.0000 0.40220  0.37410  0.06024  Biso   1.000  O
  O32      1.0000 0.29024  0.38590  0.11789  Biso   1.000  O
  S8       1.0000 0.82434  0.87987  0.65550  Biso   1.000  S
