data_image0
_cell_length_a       23.404
_cell_length_b       11.0971
_cell_length_c       20.766
_cell_angle_alpha    90
_cell_angle_beta     120.476
_cell_angle_gamma    90

_symmetry_space_group_name_H-M    "P 1"
_symmetry_int_tables_number       1

loop_
  _symmetry_equiv_pos_as_xyz
  'x, y, z'

loop_
  _atom_site_label
  _atom_site_occupancy
  _atom_site_fract_x
  _atom_site_fract_y
  _atom_site_fract_z
  _atom_site_thermal_displace_type
  _atom_site_B_iso_or_equiv
  _atom_site_type_symbol
  O1       1.0000 0.50613  0.34240  0.33160  Biso   1.000  O
  N1       1.0000 0.47268  0.88350  0.30229  Biso   1.000  N
  N2       1.0000 0.55943  0.16760  0.37505  Biso   1.000  N
  H1       1.0000 0.59760  0.13600  0.40440  Biso   1.000  H
  C1       1.0000 0.50573  0.08940  0.33938  Biso   1.000  C
  C2       1.0000 0.51898  0.96730  0.33707  Biso   1.000  C
  H2       1.0000 0.56310  0.94300  0.36150  Biso   1.000  H
  C3       1.0000 0.40875  0.91890  0.26822  Biso   1.000  C
  H3       1.0000 0.37560  0.86140  0.24400  Biso   1.000  H
  C4       1.0000 0.39091  0.03600  0.26802  Biso   1.000  C
  H4       1.0000 0.34630  0.05690  0.24400  Biso   1.000  H
  C5       1.0000 0.43911  0.12420  0.30357  Biso   1.000  C
  H5       1.0000 0.42740  0.20430  0.30350  Biso   1.000  H
  C6       1.0000 0.62110  0.35670  0.40040  Biso   1.000  C
  H6       1.0000 0.61700  0.42470  0.42720  Biso   1.000  H
  H7       1.0000 0.62350  0.38980  0.35860  Biso   1.000  H
  C7       1.0000 0.68730  0.29910  0.45180  Biso   1.000  C
  C8       1.0000 0.72240  0.24450  0.42480  Biso   1.000  C
  H8       1.0000 0.70430  0.23890  0.37340  Biso   1.000  H
  C9       1.0000 0.71570  0.30300  0.52860  Biso   1.000  C
  H9       1.0000 0.69260  0.33840  0.54910  Biso   1.000  H
  C10      1.0000 0.55700  0.28780  0.36780  Biso   1.000  C
  N3       1.0000 0.60377  0.69280  0.35706  Biso   1.000  N
  N4       1.0000 0.76173  0.56250  0.40165  Biso   1.000  N
  H10      1.0000 0.75350  0.56980  0.35650  Biso   1.000  H
  C11      1.0000 0.71314  0.60770  0.41575  Biso   1.000  C
  C12      1.0000 0.65544  0.64820  0.35372  Biso   1.000  C
  H11      1.0000 0.65240  0.64430  0.30730  Biso   1.000  H
  C13      1.0000 0.60948  0.70030  0.42450  Biso   1.000  C
  H12      1.0000 0.57450  0.73250  0.42810  Biso   1.000  H
  C14      1.0000 0.66534  0.66210  0.48871  Biso   1.000  C
  H13      1.0000 0.66750  0.66810  0.53460  Biso   1.000  H
  C15      1.0000 0.71838  0.61450  0.48482  Biso   1.000  C
  H14      1.0000 0.75640  0.58790  0.52760  Biso   1.000  H
  O2       1.0000 0.83991  0.49880  0.51704  Biso   1.000  O
  C16      1.0000 0.85746  0.45910  0.41420  Biso   1.000  C
  H15      1.0000 0.84920  0.37320  0.40650  Biso   1.000  H
  H16      1.0000 0.84030  0.49640  0.36560  Biso   1.000  H
  C17      1.0000 0.93122  0.48000  0.45949  Biso   1.000  C
  C18      1.0000 0.97471  0.38410  0.48197  Biso   1.000  C
  H17      1.0000 0.95840  0.30590  0.46980  Biso   1.000  H
  C19      1.0000 0.04292  0.40350  0.52268  Biso   1.000  C
  H18      1.0000 0.07160  0.33800  0.53820  Biso   1.000  H
  C20      1.0000 0.82030  0.50850  0.45037  Biso   1.000  C
  O3       1.0000 0.00613  0.84240  0.33160  Biso   1.000  O
  N5       1.0000 0.97268  0.38350  0.30229  Biso   1.000  N
  N6       1.0000 0.05943  0.66760  0.37505  Biso   1.000  N
  H19      1.0000 0.09760  0.63600  0.40440  Biso   1.000  H
  C21      1.0000 0.00573  0.58940  0.33938  Biso   1.000  C
  C22      1.0000 0.01898  0.46730  0.33707  Biso   1.000  C
  H20      1.0000 0.06310  0.44300  0.36150  Biso   1.000  H
  C23      1.0000 0.90875  0.41890  0.26822  Biso   1.000  C
  H21      1.0000 0.87560  0.36140  0.24400  Biso   1.000  H
  C24      1.0000 0.89091  0.53600  0.26802  Biso   1.000  C
  H22      1.0000 0.84630  0.55690  0.24400  Biso   1.000  H
  C25      1.0000 0.93911  0.62420  0.30357  Biso   1.000  C
  H23      1.0000 0.92740  0.70430  0.30350  Biso   1.000  H
  C26      1.0000 0.12110  0.85670  0.40040  Biso   1.000  C
  H24      1.0000 0.11700  0.92470  0.42720  Biso   1.000  H
  H25      1.0000 0.12350  0.88980  0.35860  Biso   1.000  H
  C27      1.0000 0.18730  0.79910  0.45180  Biso   1.000  C
  C28      1.0000 0.22240  0.74450  0.42480  Biso   1.000  C
  H26      1.0000 0.20430  0.73890  0.37340  Biso   1.000  H
  C29      1.0000 0.21570  0.80300  0.52860  Biso   1.000  C
  H27      1.0000 0.19260  0.83840  0.54910  Biso   1.000  H
  C30      1.0000 0.05700  0.78780  0.36780  Biso   1.000  C
  N7       1.0000 0.10377  0.19280  0.35706  Biso   1.000  N
  N8       1.0000 0.26173  0.06250  0.40165  Biso   1.000  N
  H28      1.0000 0.25350  0.06980  0.35650  Biso   1.000  H
  C31      1.0000 0.21314  0.10770  0.41575  Biso   1.000  C
  C32      1.0000 0.15544  0.14820  0.35372  Biso   1.000  C
  H29      1.0000 0.15240  0.14430  0.30730  Biso   1.000  H
  C33      1.0000 0.10948  0.20030  0.42450  Biso   1.000  C
  H30      1.0000 0.07450  0.23250  0.42810  Biso   1.000  H
  C34      1.0000 0.16534  0.16210  0.48871  Biso   1.000  C
  H31      1.0000 0.16750  0.16810  0.53460  Biso   1.000  H
  C35      1.0000 0.21838  0.11450  0.48482  Biso   1.000  C
  H32      1.0000 0.25640  0.08790  0.52760  Biso   1.000  H
  O4       1.0000 0.33991  0.99880  0.51704  Biso   1.000  O
  C36      1.0000 0.35746  0.95910  0.41420  Biso   1.000  C
  H33      1.0000 0.34920  0.87320  0.40650  Biso   1.000  H
  H34      1.0000 0.34030  0.99640  0.36560  Biso   1.000  H
  C37      1.0000 0.43122  0.98000  0.45949  Biso   1.000  C
  C38      1.0000 0.47471  0.88410  0.48197  Biso   1.000  C
  H35      1.0000 0.45840  0.80590  0.46980  Biso   1.000  H
  C39      1.0000 0.54292  0.90350  0.52268  Biso   1.000  C
  H36      1.0000 0.57160  0.83800  0.53820  Biso   1.000  H
  C40      1.0000 0.32030  0.00850  0.45037  Biso   1.000  C
  O5       1.0000 0.49387  0.34240  0.16840  Biso   1.000  O
  N9       1.0000 0.52732  0.88350  0.19771  Biso   1.000  N
  N10      1.0000 0.44057  0.16760  0.12495  Biso   1.000  N
  H37      1.0000 0.40240  0.13600  0.09560  Biso   1.000  H
  C41      1.0000 0.49427  0.08940  0.16062  Biso   1.000  C
  C42      1.0000 0.48102  0.96730  0.16293  Biso   1.000  C
  H38      1.0000 0.43690  0.94300  0.13850  Biso   1.000  H
  C43      1.0000 0.59125  0.91890  0.23178  Biso   1.000  C
  H39      1.0000 0.62440  0.86140  0.25600  Biso   1.000  H
  C44      1.0000 0.60909  0.03600  0.23198  Biso   1.000  C
  H40      1.0000 0.65370  0.05690  0.25600  Biso   1.000  H
  C45      1.0000 0.56089  0.12420  0.19643  Biso   1.000  C
  H41      1.0000 0.57260  0.20430  0.19650  Biso   1.000  H
  C46      1.0000 0.37890  0.35670  0.09960  Biso   1.000  C
  H42      1.0000 0.38300  0.42470  0.07280  Biso   1.000  H
  H43      1.0000 0.37650  0.38980  0.14140  Biso   1.000  H
  C47      1.0000 0.31270  0.29910  0.04820  Biso   1.000  C
  C48      1.0000 0.27760  0.24450  0.07520  Biso   1.000  C
  H44      1.0000 0.29570  0.23890  0.12660  Biso   1.000  H
  C49      1.0000 0.28430  0.30300  0.97140  Biso   1.000  C
  H45      1.0000 0.30740  0.33840  0.95090  Biso   1.000  H
  C50      1.0000 0.44300  0.28780  0.13220  Biso   1.000  C
  N11      1.0000 0.39623  0.69280  0.14294  Biso   1.000  N
  N12      1.0000 0.23827  0.56250  0.09835  Biso   1.000  N
  H46      1.0000 0.24650  0.56980  0.14350  Biso   1.000  H
  C51      1.0000 0.28686  0.60770  0.08425  Biso   1.000  C
  C52      1.0000 0.34456  0.64820  0.14628  Biso   1.000  C
  H47      1.0000 0.34760  0.64430  0.19270  Biso   1.000  H
  C53      1.0000 0.39052  0.70030  0.07550  Biso   1.000  C
  H48      1.0000 0.42550  0.73250  0.07190  Biso   1.000  H
  C54      1.0000 0.33466  0.66210  0.01129  Biso   1.000  C
  H49      1.0000 0.33250  0.66810  0.96540  Biso   1.000  H
  C55      1.0000 0.28162  0.61450  0.01518  Biso   1.000  C
  H50      1.0000 0.24360  0.58790  0.97240  Biso   1.000  H
  O6       1.0000 0.16009  0.49880  0.98296  Biso   1.000  O
  C56      1.0000 0.14254  0.45910  0.08580  Biso   1.000  C
  H51      1.0000 0.15080  0.37320  0.09350  Biso   1.000  H
  H52      1.0000 0.15970  0.49640  0.13440  Biso   1.000  H
  C57      1.0000 0.06878  0.48000  0.04051  Biso   1.000  C
  C58      1.0000 0.02529  0.38410  0.01803  Biso   1.000  C
  H53      1.0000 0.04160  0.30590  0.03020  Biso   1.000  H
  C59      1.0000 0.95708  0.40350  0.97732  Biso   1.000  C
  H54      1.0000 0.92840  0.33800  0.96180  Biso   1.000  H
  C60      1.0000 0.17970  0.50850  0.04963  Biso   1.000  C
  O7       1.0000 0.99387  0.84240  0.16840  Biso   1.000  O
  N13      1.0000 0.02732  0.38350  0.19771  Biso   1.000  N
  N14      1.0000 0.94057  0.66760  0.12495  Biso   1.000  N
  H55      1.0000 0.90240  0.63600  0.09560  Biso   1.000  H
  C61      1.0000 0.99427  0.58940  0.16062  Biso   1.000  C
  C62      1.0000 0.98102  0.46730  0.16293  Biso   1.000  C
  H56      1.0000 0.93690  0.44300  0.13850  Biso   1.000  H
  C63      1.0000 0.09125  0.41890  0.23178  Biso   1.000  C
  H57      1.0000 0.12440  0.36140  0.25600  Biso   1.000  H
  C64      1.0000 0.10909  0.53600  0.23198  Biso   1.000  C
  H58      1.0000 0.15370  0.55690  0.25600  Biso   1.000  H
  C65      1.0000 0.06089  0.62420  0.19643  Biso   1.000  C
  H59      1.0000 0.07260  0.70430  0.19650  Biso   1.000  H
  C66      1.0000 0.87890  0.85670  0.09960  Biso   1.000  C
  H60      1.0000 0.88300  0.92470  0.07280  Biso   1.000  H
  H61      1.0000 0.87650  0.88980  0.14140  Biso   1.000  H
  C67      1.0000 0.81270  0.79910  0.04820  Biso   1.000  C
  C68      1.0000 0.77760  0.74450  0.07520  Biso   1.000  C
  H62      1.0000 0.79570  0.73890  0.12660  Biso   1.000  H
  C69      1.0000 0.78430  0.80300  0.97140  Biso   1.000  C
  H63      1.0000 0.80740  0.83840  0.95090  Biso   1.000  H
  C70      1.0000 0.94300  0.78780  0.13220  Biso   1.000  C
  N15      1.0000 0.89623  0.19280  0.14294  Biso   1.000  N
  N16      1.0000 0.73827  0.06250  0.09835  Biso   1.000  N
  H64      1.0000 0.74650  0.06980  0.14350  Biso   1.000  H
  C71      1.0000 0.78686  0.10770  0.08425  Biso   1.000  C
  C72      1.0000 0.84456  0.14820  0.14628  Biso   1.000  C
  H65      1.0000 0.84760  0.14430  0.19270  Biso   1.000  H
  C73      1.0000 0.89052  0.20030  0.07550  Biso   1.000  C
  H66      1.0000 0.92550  0.23250  0.07190  Biso   1.000  H
  C74      1.0000 0.83466  0.16210  0.01129  Biso   1.000  C
  H67      1.0000 0.83250  0.16810  0.96540  Biso   1.000  H
  C75      1.0000 0.78162  0.11450  0.01518  Biso   1.000  C
  H68      1.0000 0.74360  0.08790  0.97240  Biso   1.000  H
  O8       1.0000 0.66009  0.99880  0.98296  Biso   1.000  O
  C76      1.0000 0.64254  0.95910  0.08580  Biso   1.000  C
  H69      1.0000 0.65080  0.87320  0.09350  Biso   1.000  H
  H70      1.0000 0.65970  0.99640  0.13440  Biso   1.000  H
  C77      1.0000 0.56878  0.98000  0.04051  Biso   1.000  C
  C78      1.0000 0.52529  0.88410  0.01803  Biso   1.000  C
  H71      1.0000 0.54160  0.80590  0.03020  Biso   1.000  H
  C79      1.0000 0.45708  0.90350  0.97732  Biso   1.000  C
  H72      1.0000 0.42840  0.83800  0.96180  Biso   1.000  H
  C80      1.0000 0.67970  0.00850  0.04963  Biso   1.000  C
  O9       1.0000 0.49387  0.65760  0.66840  Biso   1.000  O
  N17      1.0000 0.52732  0.11650  0.69771  Biso   1.000  N
  N18      1.0000 0.44057  0.83240  0.62495  Biso   1.000  N
  H73      1.0000 0.40240  0.86400  0.59560  Biso   1.000  H
  C81      1.0000 0.49427  0.91060  0.66062  Biso   1.000  C
  C82      1.0000 0.48102  0.03270  0.66293  Biso   1.000  C
  H74      1.0000 0.43690  0.05700  0.63850  Biso   1.000  H
  C83      1.0000 0.59125  0.08110  0.73178  Biso   1.000  C
  H75      1.0000 0.62440  0.13860  0.75600  Biso   1.000  H
  C84      1.0000 0.60909  0.96400  0.73198  Biso   1.000  C
  H76      1.0000 0.65370  0.94310  0.75600  Biso   1.000  H
  C85      1.0000 0.56089  0.87580  0.69643  Biso   1.000  C
  H77      1.0000 0.57260  0.79570  0.69650  Biso   1.000  H
  C86      1.0000 0.37890  0.64330  0.59960  Biso   1.000  C
  H78      1.0000 0.38300  0.57530  0.57280  Biso   1.000  H
  H79      1.0000 0.37650  0.61020  0.64140  Biso   1.000  H
  C87      1.0000 0.31270  0.70090  0.54820  Biso   1.000  C
  C88      1.0000 0.27760  0.75550  0.57520  Biso   1.000  C
  H80      1.0000 0.29570  0.76110  0.62660  Biso   1.000  H
  C89      1.0000 0.28430  0.69700  0.47140  Biso   1.000  C
  H81      1.0000 0.30740  0.66160  0.45090  Biso   1.000  H
  C90      1.0000 0.44300  0.71220  0.63220  Biso   1.000  C
  N19      1.0000 0.39623  0.30720  0.64294  Biso   1.000  N
  N20      1.0000 0.23827  0.43750  0.59835  Biso   1.000  N
  H82      1.0000 0.24650  0.43020  0.64350  Biso   1.000  H
  C91      1.0000 0.28686  0.39230  0.58425  Biso   1.000  C
  C92      1.0000 0.34456  0.35180  0.64628  Biso   1.000  C
  H83      1.0000 0.34760  0.35570  0.69270  Biso   1.000  H
  C93      1.0000 0.39052  0.29970  0.57550  Biso   1.000  C
  H84      1.0000 0.42550  0.26750  0.57190  Biso   1.000  H
  C94      1.0000 0.33466  0.33790  0.51129  Biso   1.000  C
  H85      1.0000 0.33250  0.33190  0.46540  Biso   1.000  H
  C95      1.0000 0.28162  0.38550  0.51518  Biso   1.000  C
  H86      1.0000 0.24360  0.41210  0.47240  Biso   1.000  H
  O10      1.0000 0.16009  0.50120  0.48296  Biso   1.000  O
  C96      1.0000 0.14254  0.54090  0.58580  Biso   1.000  C
  H87      1.0000 0.15080  0.62680  0.59350  Biso   1.000  H
  H88      1.0000 0.15970  0.50360  0.63440  Biso   1.000  H
  C97      1.0000 0.06878  0.52000  0.54051  Biso   1.000  C
  C98      1.0000 0.02529  0.61590  0.51803  Biso   1.000  C
  H89      1.0000 0.04160  0.69410  0.53020  Biso   1.000  H
  C99      1.0000 0.95708  0.59650  0.47732  Biso   1.000  C
  H90      1.0000 0.92840  0.66200  0.46180  Biso   1.000  H
  C100     1.0000 0.17970  0.49150  0.54963  Biso   1.000  C
  O11      1.0000 0.99387  0.15760  0.66840  Biso   1.000  O
  N21      1.0000 0.02732  0.61650  0.69771  Biso   1.000  N
  N22      1.0000 0.94057  0.33240  0.62495  Biso   1.000  N
  H91      1.0000 0.90240  0.36400  0.59560  Biso   1.000  H
  C101     1.0000 0.99427  0.41060  0.66062  Biso   1.000  C
  C102     1.0000 0.98102  0.53270  0.66293  Biso   1.000  C
  H92      1.0000 0.93690  0.55700  0.63850  Biso   1.000  H
  C103     1.0000 0.09125  0.58110  0.73178  Biso   1.000  C
  H93      1.0000 0.12440  0.63860  0.75600  Biso   1.000  H
  C104     1.0000 0.10909  0.46400  0.73198  Biso   1.000  C
  H94      1.0000 0.15370  0.44310  0.75600  Biso   1.000  H
  C105     1.0000 0.06089  0.37580  0.69643  Biso   1.000  C
  H95      1.0000 0.07260  0.29570  0.69650  Biso   1.000  H
  C106     1.0000 0.87890  0.14330  0.59960  Biso   1.000  C
  H96      1.0000 0.88300  0.07530  0.57280  Biso   1.000  H
  H97      1.0000 0.87650  0.11020  0.64140  Biso   1.000  H
  C107     1.0000 0.81270  0.20090  0.54820  Biso   1.000  C
  C108     1.0000 0.77760  0.25550  0.57520  Biso   1.000  C
  H98      1.0000 0.79570  0.26110  0.62660  Biso   1.000  H
  C109     1.0000 0.78430  0.19700  0.47140  Biso   1.000  C
  H99      1.0000 0.80740  0.16160  0.45090  Biso   1.000  H
  C110     1.0000 0.94300  0.21220  0.63220  Biso   1.000  C
  N23      1.0000 0.89623  0.80720  0.64294  Biso   1.000  N
  N24      1.0000 0.73827  0.93750  0.59835  Biso   1.000  N
  H100     1.0000 0.74650  0.93020  0.64350  Biso   1.000  H
  C111     1.0000 0.78686  0.89230  0.58425  Biso   1.000  C
  C112     1.0000 0.84456  0.85180  0.64628  Biso   1.000  C
  H101     1.0000 0.84760  0.85570  0.69270  Biso   1.000  H
  C113     1.0000 0.89052  0.79970  0.57550  Biso   1.000  C
  H102     1.0000 0.92550  0.76750  0.57190  Biso   1.000  H
  C114     1.0000 0.83466  0.83790  0.51129  Biso   1.000  C
  H103     1.0000 0.83250  0.83190  0.46540  Biso   1.000  H
  C115     1.0000 0.78162  0.88550  0.51518  Biso   1.000  C
  H104     1.0000 0.74360  0.91210  0.47240  Biso   1.000  H
  O12      1.0000 0.66009  0.00120  0.48296  Biso   1.000  O
  C116     1.0000 0.64254  0.04090  0.58580  Biso   1.000  C
  H105     1.0000 0.65080  0.12680  0.59350  Biso   1.000  H
  H106     1.0000 0.65970  0.00360  0.63440  Biso   1.000  H
  C117     1.0000 0.56878  0.02000  0.54051  Biso   1.000  C
  C118     1.0000 0.52529  0.11590  0.51803  Biso   1.000  C
  H107     1.0000 0.54160  0.19410  0.53020  Biso   1.000  H
  C119     1.0000 0.45708  0.09650  0.47732  Biso   1.000  C
  H108     1.0000 0.42840  0.16200  0.46180  Biso   1.000  H
  C120     1.0000 0.67970  0.99150  0.54963  Biso   1.000  C
  O13      1.0000 0.50613  0.65760  0.83160  Biso   1.000  O
  N25      1.0000 0.47268  0.11650  0.80229  Biso   1.000  N
  N26      1.0000 0.55943  0.83240  0.87505  Biso   1.000  N
  H109     1.0000 0.59760  0.86400  0.90440  Biso   1.000  H
  C121     1.0000 0.50573  0.91060  0.83938  Biso   1.000  C
  C122     1.0000 0.51898  0.03270  0.83707  Biso   1.000  C
  H110     1.0000 0.56310  0.05700  0.86150  Biso   1.000  H
  C123     1.0000 0.40875  0.08110  0.76822  Biso   1.000  C
  H111     1.0000 0.37560  0.13860  0.74400  Biso   1.000  H
  C124     1.0000 0.39091  0.96400  0.76802  Biso   1.000  C
  H112     1.0000 0.34630  0.94310  0.74400  Biso   1.000  H
  C125     1.0000 0.43911  0.87580  0.80357  Biso   1.000  C
  H113     1.0000 0.42740  0.79570  0.80350  Biso   1.000  H
  C126     1.0000 0.62110  0.64330  0.90040  Biso   1.000  C
  H114     1.0000 0.61700  0.57530  0.92720  Biso   1.000  H
  H115     1.0000 0.62350  0.61020  0.85860  Biso   1.000  H
  C127     1.0000 0.68730  0.70090  0.95180  Biso   1.000  C
  C128     1.0000 0.72240  0.75550  0.92480  Biso   1.000  C
  H116     1.0000 0.70430  0.76110  0.87340  Biso   1.000  H
  C129     1.0000 0.71570  0.69700  0.02860  Biso   1.000  C
  H117     1.0000 0.69260  0.66160  0.04910  Biso   1.000  H
  C130     1.0000 0.55700  0.71220  0.86780  Biso   1.000  C
  N27      1.0000 0.60377  0.30720  0.85706  Biso   1.000  N
  N28      1.0000 0.76173  0.43750  0.90165  Biso   1.000  N
  H118     1.0000 0.75350  0.43020  0.85650  Biso   1.000  H
  C131     1.0000 0.71314  0.39230  0.91575  Biso   1.000  C
  C132     1.0000 0.65544  0.35180  0.85372  Biso   1.000  C
  H119     1.0000 0.65240  0.35570  0.80730  Biso   1.000  H
  C133     1.0000 0.60948  0.29970  0.92450  Biso   1.000  C
  H120     1.0000 0.57450  0.26750  0.92810  Biso   1.000  H
  C134     1.0000 0.66534  0.33790  0.98871  Biso   1.000  C
  H121     1.0000 0.66750  0.33190  0.03460  Biso   1.000  H
  C135     1.0000 0.71838  0.38550  0.98482  Biso   1.000  C
  H122     1.0000 0.75640  0.41210  0.02760  Biso   1.000  H
  O14      1.0000 0.83991  0.50120  0.01704  Biso   1.000  O
  C136     1.0000 0.85746  0.54090  0.91420  Biso   1.000  C
  H123     1.0000 0.84920  0.62680  0.90650  Biso   1.000  H
  H124     1.0000 0.84030  0.50360  0.86560  Biso   1.000  H
  C137     1.0000 0.93122  0.52000  0.95949  Biso   1.000  C
  C138     1.0000 0.97471  0.61590  0.98197  Biso   1.000  C
  H125     1.0000 0.95840  0.69410  0.96980  Biso   1.000  H
  C139     1.0000 0.04292  0.59650  0.02268  Biso   1.000  C
  H126     1.0000 0.07160  0.66200  0.03820  Biso   1.000  H
  C140     1.0000 0.82030  0.49150  0.95037  Biso   1.000  C
  O15      1.0000 0.00613  0.15760  0.83160  Biso   1.000  O
  N29      1.0000 0.97268  0.61650  0.80229  Biso   1.000  N
  N30      1.0000 0.05943  0.33240  0.87505  Biso   1.000  N
  H127     1.0000 0.09760  0.36400  0.90440  Biso   1.000  H
  C141     1.0000 0.00573  0.41060  0.83938  Biso   1.000  C
  C142     1.0000 0.01898  0.53270  0.83707  Biso   1.000  C
  H128     1.0000 0.06310  0.55700  0.86150  Biso   1.000  H
  C143     1.0000 0.90875  0.58110  0.76822  Biso   1.000  C
  H129     1.0000 0.87560  0.63860  0.74400  Biso   1.000  H
  C144     1.0000 0.89091  0.46400  0.76802  Biso   1.000  C
  H130     1.0000 0.84630  0.44310  0.74400  Biso   1.000  H
  C145     1.0000 0.93911  0.37580  0.80357  Biso   1.000  C
  H131     1.0000 0.92740  0.29570  0.80350  Biso   1.000  H
  C146     1.0000 0.12110  0.14330  0.90040  Biso   1.000  C
  H132     1.0000 0.11700  0.07530  0.92720  Biso   1.000  H
  H133     1.0000 0.12350  0.11020  0.85860  Biso   1.000  H
  C147     1.0000 0.18730  0.20090  0.95180  Biso   1.000  C
  C148     1.0000 0.22240  0.25550  0.92480  Biso   1.000  C
  H134     1.0000 0.20430  0.26110  0.87340  Biso   1.000  H
  C149     1.0000 0.21570  0.19700  0.02860  Biso   1.000  C
  H135     1.0000 0.19260  0.16160  0.04910  Biso   1.000  H
  C150     1.0000 0.05700  0.21220  0.86780  Biso   1.000  C
  N31      1.0000 0.10377  0.80720  0.85706  Biso   1.000  N
  N32      1.0000 0.26173  0.93750  0.90165  Biso   1.000  N
  H136     1.0000 0.25350  0.93020  0.85650  Biso   1.000  H
  C151     1.0000 0.21314  0.89230  0.91575  Biso   1.000  C
  C152     1.0000 0.15544  0.85180  0.85372  Biso   1.000  C
  H137     1.0000 0.15240  0.85570  0.80730  Biso   1.000  H
  C153     1.0000 0.10948  0.79970  0.92450  Biso   1.000  C
  H138     1.0000 0.07450  0.76750  0.92810  Biso   1.000  H
  C154     1.0000 0.16534  0.83790  0.98871  Biso   1.000  C
  H139     1.0000 0.16750  0.83190  0.03460  Biso   1.000  H
  C155     1.0000 0.21838  0.88550  0.98482  Biso   1.000  C
  H140     1.0000 0.25640  0.91210  0.02760  Biso   1.000  H
  O16      1.0000 0.33991  0.00120  0.01704  Biso   1.000  O
  C156     1.0000 0.35746  0.04090  0.91420  Biso   1.000  C
  H141     1.0000 0.34920  0.12680  0.90650  Biso   1.000  H
  H142     1.0000 0.34030  0.00360  0.86560  Biso   1.000  H
  C157     1.0000 0.43122  0.02000  0.95949  Biso   1.000  C
  C158     1.0000 0.47471  0.11590  0.98197  Biso   1.000  C
  H143     1.0000 0.45840  0.19410  0.96980  Biso   1.000  H
  C159     1.0000 0.54292  0.09650  0.02268  Biso   1.000  C
  H144     1.0000 0.57160  0.16200  0.03820  Biso   1.000  H
  C160     1.0000 0.32030  0.99150  0.95037  Biso   1.000  C
  Cd1      1.0000 0.50000  0.71802  0.25000  Biso   1.000  Cd
  Cd2      1.0000 0.00000  0.21802  0.25000  Biso   1.000  Cd
  Cd3      1.0000 0.50000  0.28198  0.75000  Biso   1.000  Cd
  Cd4      1.0000 0.00000  0.78198  0.75000  Biso   1.000  Cd
