data_image0
_cell_length_a       16.2045
_cell_length_b       11.868
_cell_length_c       17.9591
_cell_angle_alpha    90
_cell_angle_beta     103.644
_cell_angle_gamma    90

_symmetry_space_group_name_H-M    "P 1"
_symmetry_int_tables_number       1

loop_
  _symmetry_equiv_pos_as_xyz
  'x, y, z'

loop_
  _atom_site_label
  _atom_site_occupancy
  _atom_site_fract_x
  _atom_site_fract_y
  _atom_site_fract_z
  _atom_site_thermal_displace_type
  _atom_site_B_iso_or_equiv
  _atom_site_type_symbol
  O1       1.0000 0.25932  0.95970  0.15808  Biso   1.000  O
  Mo1      1.0000 0.28341  0.85884  0.93257  Biso   1.000  Mo
  Mo2      1.0000 0.28416  0.15174  0.96297  Biso   1.000  Mo
  Mo3      1.0000 0.38256  0.73304  0.03342  Biso   1.000  Mo
  Mo4      1.0000 0.52040  0.85432  0.19515  Biso   1.000  Mo
  Mo5      1.0000 0.52341  0.07098  0.21317  Biso   1.000  Mo
  Mo6      1.0000 0.38886  0.24451  0.07816  Biso   1.000  Mo
  Fe1      1.0000 0.12405  0.99744  0.13432  Biso   1.000  Fe
  P1       1.0000 0.43881  0.29944  0.26284  Biso   1.000  P
  P2       1.0000 0.37691  0.66303  0.21043  Biso   1.000  P
  P3       1.0000 0.32700  0.97546  0.11415  Biso   1.000  P
  P4       1.0000 0.11100  0.99195  0.94206  Biso   1.000  P
  O2       1.0000 0.26078  0.75450  0.00831  Biso   1.000  O
  O3       1.0000 0.40825  0.13850  0.99896  Biso   1.000  O
  O4       1.0000 0.40744  0.86540  0.97588  Biso   1.000  O
  O5       1.0000 0.26599  0.22610  0.05365  Biso   1.000  O
  O6       1.0000 0.47090  0.17650  0.27839  Biso   1.000  O
  O7       1.0000 0.53556  0.97640  0.12513  Biso   1.000  O
  O8       1.0000 0.15839  0.89960  0.90847  Biso   1.000  O
  O9       1.0000 0.50842  0.74560  0.09971  Biso   1.000  O
  O10      1.0000 0.02265  0.00230  0.88290  Biso   1.000  O
  O11      1.0000 0.38439  0.86880  0.12297  Biso   1.000  O
  O12      1.0000 0.15646  0.10590  0.93902  Biso   1.000  O
  O13      1.0000 0.38563  0.07720  0.14191  Biso   1.000  O
  O14      1.0000 0.28831  0.99030  0.02684  Biso   1.000  O
  O15      1.0000 0.29506  0.01940  0.88538  Biso   1.000  O
  O16      1.0000 0.48230  0.95000  0.26768  Biso   1.000  O
  O17      1.0000 0.51501  0.37830  0.26586  Biso   1.000  O
  O18      1.0000 0.37814  0.30430  0.18205  Biso   1.000  O
  O19      1.0000 0.51385  0.20980  0.13731  Biso   1.000  O
  O20      1.0000 0.39152  0.33180  0.32285  Biso   1.000  O
  O21      1.0000 0.09830  0.95970  0.01858  Biso   1.000  O
  O22      1.0000 0.46120  0.72470  0.24007  Biso   1.000  O
  O23      1.0000 0.36570  0.63710  0.12422  Biso   1.000  O
  O24      1.0000 0.30000  0.73960  0.21970  Biso   1.000  O
  O25      1.0000 0.37020  0.55640  0.25281  Biso   1.000  O
  O26      1.0000 0.12190  0.18040  0.10500  Biso   1.000  O
  H1       1.0000 0.15870  0.19360  0.08170  Biso   1.000  H
  O27      1.0000 0.24068  0.45970  0.34192  Biso   1.000  O
  Mo7      1.0000 0.21659  0.35884  0.56743  Biso   1.000  Mo
  Mo8      1.0000 0.21584  0.65174  0.53703  Biso   1.000  Mo
  Mo9      1.0000 0.11744  0.23304  0.46658  Biso   1.000  Mo
  Mo10     1.0000 0.97960  0.35432  0.30485  Biso   1.000  Mo
  Mo11     1.0000 0.97659  0.57098  0.28683  Biso   1.000  Mo
  Mo12     1.0000 0.11114  0.74451  0.42184  Biso   1.000  Mo
  Fe2      1.0000 0.37595  0.49744  0.36568  Biso   1.000  Fe
  P5       1.0000 0.06119  0.79944  0.23716  Biso   1.000  P
  P6       1.0000 0.12309  0.16303  0.28957  Biso   1.000  P
  P7       1.0000 0.17300  0.47546  0.38585  Biso   1.000  P
  P8       1.0000 0.38900  0.49195  0.55794  Biso   1.000  P
  O28      1.0000 0.23922  0.25450  0.49169  Biso   1.000  O
  O29      1.0000 0.09175  0.63850  0.50104  Biso   1.000  O
  O30      1.0000 0.09256  0.36540  0.52412  Biso   1.000  O
  O31      1.0000 0.23401  0.72610  0.44635  Biso   1.000  O
  O32      1.0000 0.02910  0.67650  0.22161  Biso   1.000  O
  O33      1.0000 0.96444  0.47640  0.37487  Biso   1.000  O
  O34      1.0000 0.34161  0.39960  0.59153  Biso   1.000  O
  O35      1.0000 0.99158  0.24560  0.40029  Biso   1.000  O
  O36      1.0000 0.47735  0.50230  0.61710  Biso   1.000  O
  O37      1.0000 0.11561  0.36880  0.37703  Biso   1.000  O
  O38      1.0000 0.34354  0.60590  0.56098  Biso   1.000  O
  O39      1.0000 0.11437  0.57720  0.35809  Biso   1.000  O
  O40      1.0000 0.21169  0.49030  0.47316  Biso   1.000  O
  O41      1.0000 0.20494  0.51940  0.61462  Biso   1.000  O
  O42      1.0000 0.01770  0.45000  0.23232  Biso   1.000  O
  O43      1.0000 0.98499  0.87830  0.23414  Biso   1.000  O
  O44      1.0000 0.12186  0.80430  0.31795  Biso   1.000  O
  O45      1.0000 0.98615  0.70980  0.36269  Biso   1.000  O
  O46      1.0000 0.10848  0.83180  0.17715  Biso   1.000  O
  O47      1.0000 0.40170  0.45970  0.48142  Biso   1.000  O
  O48      1.0000 0.03880  0.22470  0.25993  Biso   1.000  O
  O49      1.0000 0.13430  0.13710  0.37578  Biso   1.000  O
  O50      1.0000 0.20000  0.23960  0.28030  Biso   1.000  O
  O51      1.0000 0.12980  0.05640  0.24719  Biso   1.000  O
  O52      1.0000 0.37810  0.68040  0.39500  Biso   1.000  O
  H2       1.0000 0.34130  0.69360  0.41830  Biso   1.000  H
  O53      1.0000 0.74068  0.04030  0.84192  Biso   1.000  O
  Mo13     1.0000 0.71659  0.14116  0.06743  Biso   1.000  Mo
  Mo14     1.0000 0.71584  0.84826  0.03703  Biso   1.000  Mo
  Mo15     1.0000 0.61744  0.26696  0.96658  Biso   1.000  Mo
  Mo16     1.0000 0.47960  0.14568  0.80485  Biso   1.000  Mo
  Mo17     1.0000 0.47659  0.92902  0.78683  Biso   1.000  Mo
  Mo18     1.0000 0.61114  0.75549  0.92184  Biso   1.000  Mo
  Fe3      1.0000 0.87595  0.00256  0.86568  Biso   1.000  Fe
  P9       1.0000 0.56119  0.70056  0.73716  Biso   1.000  P
  P10      1.0000 0.62309  0.33697  0.78957  Biso   1.000  P
  P11      1.0000 0.67300  0.02454  0.88585  Biso   1.000  P
  P12      1.0000 0.88900  0.00805  0.05794  Biso   1.000  P
  O54      1.0000 0.73922  0.24550  0.99169  Biso   1.000  O
  O55      1.0000 0.59175  0.86150  0.00104  Biso   1.000  O
  O56      1.0000 0.59256  0.13460  0.02412  Biso   1.000  O
  O57      1.0000 0.73401  0.77390  0.94635  Biso   1.000  O
  O58      1.0000 0.52910  0.82350  0.72161  Biso   1.000  O
  O59      1.0000 0.46444  0.02360  0.87487  Biso   1.000  O
  O60      1.0000 0.84161  0.10040  0.09153  Biso   1.000  O
  O61      1.0000 0.49158  0.25440  0.90029  Biso   1.000  O
  O62      1.0000 0.97735  0.99770  0.11710  Biso   1.000  O
  O63      1.0000 0.61561  0.13120  0.87703  Biso   1.000  O
  O64      1.0000 0.84354  0.89410  0.06098  Biso   1.000  O
  O65      1.0000 0.61437  0.92280  0.85809  Biso   1.000  O
  O66      1.0000 0.71169  0.00970  0.97316  Biso   1.000  O
  O67      1.0000 0.70494  0.98060  0.11462  Biso   1.000  O
  O68      1.0000 0.51770  0.05000  0.73232  Biso   1.000  O
  O69      1.0000 0.48499  0.62170  0.73414  Biso   1.000  O
  O70      1.0000 0.62186  0.69570  0.81795  Biso   1.000  O
  O71      1.0000 0.48615  0.79020  0.86269  Biso   1.000  O
  O72      1.0000 0.60848  0.66820  0.67715  Biso   1.000  O
  O73      1.0000 0.90170  0.04030  0.98142  Biso   1.000  O
  O74      1.0000 0.53880  0.27530  0.75993  Biso   1.000  O
  O75      1.0000 0.63430  0.36290  0.87578  Biso   1.000  O
  O76      1.0000 0.70000  0.26040  0.78030  Biso   1.000  O
  O77      1.0000 0.62980  0.44360  0.74719  Biso   1.000  O
  O78      1.0000 0.87810  0.81960  0.89500  Biso   1.000  O
  H3       1.0000 0.84130  0.80640  0.91830  Biso   1.000  H
  O79      1.0000 0.75932  0.54030  0.65808  Biso   1.000  O
  Mo19     1.0000 0.78341  0.64116  0.43257  Biso   1.000  Mo
  Mo20     1.0000 0.78416  0.34826  0.46297  Biso   1.000  Mo
  Mo21     1.0000 0.88256  0.76696  0.53342  Biso   1.000  Mo
  Mo22     1.0000 0.02040  0.64568  0.69515  Biso   1.000  Mo
  Mo23     1.0000 0.02341  0.42902  0.71317  Biso   1.000  Mo
  Mo24     1.0000 0.88886  0.25549  0.57816  Biso   1.000  Mo
  Fe4      1.0000 0.62405  0.50256  0.63432  Biso   1.000  Fe
  P13      1.0000 0.93881  0.20056  0.76284  Biso   1.000  P
  P14      1.0000 0.87691  0.83697  0.71043  Biso   1.000  P
  P15      1.0000 0.82700  0.52454  0.61415  Biso   1.000  P
  P16      1.0000 0.61100  0.50805  0.44206  Biso   1.000  P
  O80      1.0000 0.76078  0.74550  0.50831  Biso   1.000  O
  O81      1.0000 0.90825  0.36150  0.49896  Biso   1.000  O
  O82      1.0000 0.90744  0.63460  0.47588  Biso   1.000  O
  O83      1.0000 0.76599  0.27390  0.55365  Biso   1.000  O
  O84      1.0000 0.97090  0.32350  0.77839  Biso   1.000  O
  O85      1.0000 0.03556  0.52360  0.62513  Biso   1.000  O
  O86      1.0000 0.65839  0.60040  0.40847  Biso   1.000  O
  O87      1.0000 0.00842  0.75440  0.59971  Biso   1.000  O
  O88      1.0000 0.52265  0.49770  0.38290  Biso   1.000  O
  O89      1.0000 0.88439  0.63120  0.62297  Biso   1.000  O
  O90      1.0000 0.65646  0.39410  0.43902  Biso   1.000  O
  O91      1.0000 0.88563  0.42280  0.64191  Biso   1.000  O
  O92      1.0000 0.78831  0.50970  0.52684  Biso   1.000  O
  O93      1.0000 0.79506  0.48060  0.38538  Biso   1.000  O
  O94      1.0000 0.98230  0.55000  0.76768  Biso   1.000  O
  O95      1.0000 0.01501  0.12170  0.76586  Biso   1.000  O
  O96      1.0000 0.87814  0.19570  0.68205  Biso   1.000  O
  O97      1.0000 0.01385  0.29020  0.63731  Biso   1.000  O
  O98      1.0000 0.89152  0.16820  0.82285  Biso   1.000  O
  O99      1.0000 0.59830  0.54030  0.51858  Biso   1.000  O
  O100     1.0000 0.96120  0.77530  0.74007  Biso   1.000  O
  O101     1.0000 0.86570  0.86290  0.62422  Biso   1.000  O
  O102     1.0000 0.80000  0.76040  0.71970  Biso   1.000  O
  O103     1.0000 0.87020  0.94360  0.75281  Biso   1.000  O
  O104     1.0000 0.62190  0.31960  0.60500  Biso   1.000  O
  H4       1.0000 0.65870  0.30640  0.58170  Biso   1.000  H
  Fe5      1.0000 0.50000  0.00000  0.00000  Biso   1.000  Fe
  Fe6      1.0000 0.00000  0.50000  0.50000  Biso   1.000  Fe
