data_AKUHOD_clean
_audit_creation_date              2014-07-02
_audit_creation_method            'Materials Studio'
_symmetry_space_group_name_H-M    'P1'
_symmetry_Int_Tables_number       1
_symmetry_cell_setting            triclinic
loop_
_symmetry_equiv_pos_as_xyz
  x,y,z
_cell_length_a                    10.5270
_cell_length_b                    10.5270
_cell_length_c                    10.8872
_cell_angle_alpha                 101.0980
_cell_angle_beta                  117.5440
_cell_angle_gamma                 108.8240
loop_
_atom_site_label
_atom_site_type_symbol
_atom_site_fract_x
_atom_site_fract_y
_atom_site_fract_z
_atom_site_U_iso_or_equiv
_atom_site_adp_type
_atom_site_occupancy
Gd1    Gd    0.05206   0.36557   0.12041   0.01267  Uiso   1.00
Gd2    Gd    0.74516   0.93165   0.37959   0.01267  Uiso   1.00
Gd3    Gd    0.94794   0.63443   0.87959   0.01267  Uiso   1.00
Gd4    Gd    0.25484   0.06835   0.62041   0.01267  Uiso   1.00
H1     H     0.61700   0.48900   0.35200   0.01267  Uiso   1.00
H2     H     0.43800   0.37800   0.17600   0.01267  Uiso   1.00
H3     H     0.23400   0.37300   0.80300   0.01267  Uiso   1.00
H4     H     0.63700   0.26500   0.14800   0.01267  Uiso   1.00
H5     H     0.70200   0.26200   0.32400   0.01267  Uiso   1.00
H6     H     0.07000   0.43100   0.69700   0.01267  Uiso   1.00
H7     H     0.38300   0.51100   0.64800   0.01267  Uiso   1.00
H8     H     0.56200   0.62200   0.82400   0.01267  Uiso   1.00
H9     H     0.76600   0.62700   0.19700   0.01267  Uiso   1.00
H10    H     0.36300   0.73500   0.85200   0.01267  Uiso   1.00
H11    H     0.29800   0.73800   0.67600   0.01267  Uiso   1.00
H12    H     0.93000   0.56900   0.30300   0.01267  Uiso   1.00
C1     C     0.48830   0.44810   0.27920   0.01267  Uiso   1.00
C2     C     0.45250   0.57288   0.25618   0.01267  Uiso   1.00
C3     C     0.40250   0.35117   0.33147   0.01267  Uiso   1.00
C4     C     0.99910   0.22328   0.62458   0.01267  Uiso   1.00
C5     C     0.66890   0.20910   0.22080   0.01267  Uiso   1.00
C6     C     0.81670   0.19632   0.24382   0.01267  Uiso   1.00
C7     C     0.51970   0.07103   0.16853   0.01267  Uiso   1.00
C8     C     0.09870   0.37452   0.87542   0.01267  Uiso   1.00
C9     C     0.51170   0.55190   0.72080   0.01267  Uiso   1.00
C10    C     0.54750   0.42712   0.74382   0.01267  Uiso   1.00
C11    C     0.59750   0.64883   0.66853   0.01267  Uiso   1.00
C12    C     0.00090   0.77672   0.37542   0.01267  Uiso   1.00
C13    C     0.33110   0.79090   0.77920   0.01267  Uiso   1.00
C14    C     0.18330   0.80368   0.75618   0.01267  Uiso   1.00
C15    C     0.48030   0.92897   0.83147   0.01267  Uiso   1.00
C16    C     0.90130   0.62548   0.12458   0.01267  Uiso   1.00
C17    C     0.12490   0.37490   0.75000   0.01267  Uiso   1.00
C18    C     0.87510   0.62510   0.25000   0.01267  Uiso   1.00
O1     O     0.31316   0.55812   0.20722   0.01267  Uiso   1.00
O2     O     0.25318   0.31023   0.27465   0.01267  Uiso   1.00
O3     O     0.85147   0.18965   0.55844   0.01267  Uiso   1.00
O4     O     0.48299   0.31207   0.42812   0.01267  Uiso   1.00
O5     O     0.56843   0.68537   0.28454   0.01267  Uiso   1.00
O6     O     0.04273   0.13041   0.59160   0.01267  Uiso   1.00
O7     O     0.85090   0.10594   0.29278   0.01267  Uiso   1.00
O8     O     0.53558   0.97853   0.22535   0.01267  Uiso   1.00
O9     O     0.13121   0.29303   0.94156   0.01267  Uiso   1.00
O10    O     0.38395   0.05487   0.07188   0.01267  Uiso   1.00
O11    O     0.90083   0.28389   0.21546   0.01267  Uiso   1.00
O12    O     0.03881   0.45113   0.90840   0.01267  Uiso   1.00
O13    O     0.68684   0.44188   0.79278   0.01267  Uiso   1.00
O14    O     0.74682   0.68977   0.72535   0.01267  Uiso   1.00
O15    O     0.14853   0.81035   0.44156   0.01267  Uiso   1.00
O16    O     0.51701   0.68793   0.57188   0.01267  Uiso   1.00
O17    O     0.43157   0.31463   0.71546   0.01267  Uiso   1.00
O18    O     0.95727   0.86959   0.40840   0.01267  Uiso   1.00
O19    O     0.14910   0.89406   0.70722   0.01267  Uiso   1.00
O20    O     0.46442   0.02147   0.77465   0.01267  Uiso   1.00
O21    O     0.86879   0.70697   0.05844   0.01267  Uiso   1.00
O22    O     0.61605   0.94513   0.92812   0.01267  Uiso   1.00
O23    O     0.09917   0.71611   0.78454   0.01267  Uiso   1.00
O24    O     0.96119   0.54887   0.09160   0.01267  Uiso   1.00
