data_image0
_cell_length_a       8.8545
_cell_length_b       10.672
_cell_length_c       15.389
_cell_angle_alpha    76.4
_cell_angle_beta     78.58
_cell_angle_gamma    79.92

_symmetry_space_group_name_H-M    "P 1"
_symmetry_int_tables_number       1

loop_
  _symmetry_equiv_pos_as_xyz
  'x, y, z'

loop_
  _atom_site_label
  _atom_site_occupancy
  _atom_site_fract_x
  _atom_site_fract_y
  _atom_site_fract_z
  _atom_site_thermal_displace_type
  _atom_site_B_iso_or_equiv
  _atom_site_type_symbol
  Ni1      1.0000 0.80774  0.92526  0.62692  Biso   1.000  Ni
  C1       1.0000 0.82430  0.85130  0.45600  Biso   1.000  C
  C2       1.0000 0.81260  0.87060  0.35700  Biso   1.000  C
  H1       1.0000 0.86920  0.94170  0.32330  Biso   1.000  H
  H2       1.0000 0.86400  0.79270  0.33580  Biso   1.000  H
  N1       1.0000 0.65370  0.89870  0.33560  Biso   1.000  N
  C3       1.0000 0.53940  0.98960  0.36040  Biso   1.000  C
  H3       1.0000 0.54920  0.04780  0.39480  Biso   1.000  H
  N2       1.0000 0.41200  0.98640  0.33020  Biso   1.000  N
  C4       1.0000 0.44580  0.88710  0.28500  Biso   1.000  C
  H4       1.0000 0.37700  0.86110  0.25640  Biso   1.000  H
  C5       1.0000 0.59550  0.83170  0.28820  Biso   1.000  C
  H5       1.0000 0.64740  0.76180  0.26290  Biso   1.000  H
  P1       1.0000 0.71541  0.72695  0.53786  Biso   1.000  P
  O1       1.0000 0.77220  0.59710  0.51540  Biso   1.000  O
  O2       1.0000 0.72690  0.75000  0.62940  Biso   1.000  O
  O3       1.0000 0.53750  0.76160  0.52830  Biso   1.000  O
  H6       1.0000 0.52770  0.76300  0.47620  Biso   1.000  H
  P2       1.0000 0.03409  0.81387  0.47125  Biso   1.000  P
  O4       1.0000 0.09100  0.67120  0.47360  Biso   1.000  O
  O5       1.0000 0.03270  0.85410  0.56080  Biso   1.000  O
  O6       1.0000 0.11720  0.90030  0.39110  Biso   1.000  O
  O7       1.0000 0.76540  0.97120  0.48800  Biso   1.000  O
  H7       1.0000 0.82850  0.02590  0.47270  Biso   1.000  H
  N3       1.0000 0.99590  0.52850  0.35920  Biso   1.000  N
  C6       1.0000 0.87960  0.49530  0.33070  Biso   1.000  C
  H8       1.0000 0.81110  0.44490  0.37230  Biso   1.000  H
  C7       1.0000 0.85640  0.53240  0.24220  Biso   1.000  C
  H9       1.0000 0.76900  0.51220  0.22620  Biso   1.000  H
  C8       1.0000 0.95730  0.59700  0.17880  Biso   1.000  C
  C9       1.0000 0.08710  0.62650  0.20720  Biso   1.000  C
  H10      1.0000 0.16220  0.66960  0.16540  Biso   1.000  H
  C10      1.0000 0.10050  0.59060  0.29740  Biso   1.000  C
  H11      1.0000 0.18570  0.61040  0.31600  Biso   1.000  H
  C11      1.0000 0.93050  0.64010  0.08240  Biso   1.000  C
  H12      1.0000 0.87920  0.58390  0.06450  Biso   1.000  H
  C12      1.0000 0.96140  0.73150  0.02420  Biso   1.000  C
  H13      1.0000 0.02100  0.78430  0.03940  Biso   1.000  H
  C13      1.0000 0.92300  0.77460  0.93510  Biso   1.000  C
  C14      1.0000 0.92040  0.89900  0.89050  Biso   1.000  C
  H14      1.0000 0.93910  0.95930  0.92060  Biso   1.000  H
  C15      1.0000 0.89240  0.94200  0.80490  Biso   1.000  C
  H15      1.0000 0.89380  0.02950  0.77800  Biso   1.000  H
  C16      1.0000 0.84410  0.74200  0.80180  Biso   1.000  C
  H16      1.0000 0.80930  0.68580  0.77450  Biso   1.000  H
  C17      1.0000 0.87570  0.69660  0.89170  Biso   1.000  C
  H17      1.0000 0.86350  0.61140  0.92110  Biso   1.000  H
  N4       1.0000 0.86170  0.85880  0.75620  Biso   1.000  N
  Ni2      1.0000 0.19226  0.07474  0.37308  Biso   1.000  Ni
  C18      1.0000 0.17570  0.14870  0.54400  Biso   1.000  C
  C19      1.0000 0.18740  0.12940  0.64300  Biso   1.000  C
  H18      1.0000 0.13080  0.05830  0.67670  Biso   1.000  H
  H19      1.0000 0.13600  0.20730  0.66420  Biso   1.000  H
  N5       1.0000 0.34630  0.10130  0.66440  Biso   1.000  N
  C20      1.0000 0.46060  0.01040  0.63960  Biso   1.000  C
  H20      1.0000 0.45080  0.95220  0.60520  Biso   1.000  H
  N6       1.0000 0.58800  0.01360  0.66980  Biso   1.000  N
  C21      1.0000 0.55420  0.11290  0.71500  Biso   1.000  C
  H21      1.0000 0.62300  0.13890  0.74360  Biso   1.000  H
  C22      1.0000 0.40450  0.16830  0.71180  Biso   1.000  C
  H22      1.0000 0.35260  0.23820  0.73710  Biso   1.000  H
  P3       1.0000 0.28459  0.27305  0.46214  Biso   1.000  P
  O8       1.0000 0.22780  0.40290  0.48460  Biso   1.000  O
  O9       1.0000 0.27310  0.25000  0.37060  Biso   1.000  O
  O10      1.0000 0.46250  0.23840  0.47170  Biso   1.000  O
  H23      1.0000 0.47230  0.23700  0.52380  Biso   1.000  H
  P4       1.0000 0.96591  0.18613  0.52875  Biso   1.000  P
  O11      1.0000 0.90900  0.32880  0.52640  Biso   1.000  O
  O12      1.0000 0.96730  0.14590  0.43920  Biso   1.000  O
  O13      1.0000 0.88280  0.09970  0.60890  Biso   1.000  O
  O14      1.0000 0.23460  0.02880  0.51200  Biso   1.000  O
  H24      1.0000 0.17150  0.97410  0.52730  Biso   1.000  H
  N7       1.0000 0.00410  0.47150  0.64080  Biso   1.000  N
  C23      1.0000 0.12040  0.50470  0.66930  Biso   1.000  C
  H25      1.0000 0.18890  0.55510  0.62770  Biso   1.000  H
  C24      1.0000 0.14360  0.46760  0.75780  Biso   1.000  C
  H26      1.0000 0.23100  0.48780  0.77380  Biso   1.000  H
  C25      1.0000 0.04270  0.40300  0.82120  Biso   1.000  C
  C26      1.0000 0.91290  0.37350  0.79280  Biso   1.000  C
  H27      1.0000 0.83780  0.33040  0.83460  Biso   1.000  H
  C27      1.0000 0.89950  0.40940  0.70260  Biso   1.000  C
  H28      1.0000 0.81430  0.38960  0.68400  Biso   1.000  H
  C28      1.0000 0.06950  0.35990  0.91760  Biso   1.000  C
  H29      1.0000 0.12080  0.41610  0.93550  Biso   1.000  H
  C29      1.0000 0.03860  0.26850  0.97580  Biso   1.000  C
  H30      1.0000 0.97900  0.21570  0.96060  Biso   1.000  H
  C30      1.0000 0.07700  0.22540  0.06490  Biso   1.000  C
  C31      1.0000 0.07960  0.10100  0.10950  Biso   1.000  C
  H31      1.0000 0.06090  0.04070  0.07940  Biso   1.000  H
  C32      1.0000 0.10760  0.05800  0.19510  Biso   1.000  C
  H32      1.0000 0.10620  0.97050  0.22200  Biso   1.000  H
  C33      1.0000 0.15590  0.25800  0.19820  Biso   1.000  C
  H33      1.0000 0.19070  0.31420  0.22550  Biso   1.000  H
  C34      1.0000 0.12430  0.30340  0.10830  Biso   1.000  C
  H34      1.0000 0.13650  0.38860  0.07890  Biso   1.000  H
  N8       1.0000 0.13830  0.14120  0.24380  Biso   1.000  N
  Ni3      1.0000 0.00000  0.50000  0.50000  Biso   1.000  Ni
