data_ALALUU01_clean
_audit_creation_date              2014-07-02
_audit_creation_method            'Materials Studio'
_symmetry_space_group_name_H-M    'P1'
_symmetry_Int_Tables_number       1
_symmetry_cell_setting            triclinic
loop_
_symmetry_equiv_pos_as_xyz
  x,y,z
_cell_length_a                    10.6412
_cell_length_b                    10.6412
_cell_length_c                    11.0154
_cell_angle_alpha                 78.6140
_cell_angle_beta                  62.5347
_cell_angle_gamma                 108.5550
loop_
_atom_site_label
_atom_site_type_symbol
_atom_site_fract_x
_atom_site_fract_y
_atom_site_fract_z
_atom_site_U_iso_or_equiv
_atom_site_adp_type
_atom_site_occupancy
Pr1    Pr    0.05028   0.86352   0.88008   0.01267  Uiso   1.00
Pr2    Pr    0.74360   0.43036   0.61992   0.01267  Uiso   1.00
Pr3    Pr    0.94972   0.13648   0.11992   0.01267  Uiso   1.00
Pr4    Pr    0.25640   0.56964   0.38008   0.01267  Uiso   1.00
H1     H     0.45100   0.88600   0.81700   0.01267  Uiso   1.00
H2     H     0.60700   0.99200   0.64900   0.01267  Uiso   1.00
H3     H     0.22600   0.88500   0.22300   0.01267  Uiso   1.00
H4     H     0.70300   0.76800   0.68300   0.01267  Uiso   1.00
H5     H     0.64100   0.75600   0.85100   0.01267  Uiso   1.00
H6     H     0.10800   0.94900   0.27700   0.01267  Uiso   1.00
H7     H     0.54900   0.11400   0.18300   0.01267  Uiso   1.00
H8     H     0.39300   0.00800   0.35100   0.01267  Uiso   1.00
H9     H     0.77400   0.11500   0.77700   0.01267  Uiso   1.00
H10    H     0.29700   0.23200   0.31700   0.01267  Uiso   1.00
H11    H     0.35900   0.24400   0.14900   0.01267  Uiso   1.00
H12    H     0.89200   0.05100   0.72300   0.01267  Uiso   1.00
C1     C     0.40420   0.84950   0.66830   0.01267  Uiso   1.00
C2     C     0.48830   0.94590   0.71960   0.01267  Uiso   1.00
C3     C     0.45300   0.06900   0.74200   0.01267  Uiso   1.00
C4     C     0.10030   0.87390   0.12480   0.01267  Uiso   1.00
C5     C     0.51780   0.57250   0.83170   0.01267  Uiso   1.00
C6     C     0.66550   0.70790   0.78040   0.01267  Uiso   1.00
C7     C     0.81100   0.69500   0.75800   0.01267  Uiso   1.00
C8     C     0.99870   0.72510   0.37520   0.01267  Uiso   1.00
C9     C     0.59580   0.15050   0.33170   0.01267  Uiso   1.00
C10    C     0.51170   0.05410   0.28040   0.01267  Uiso   1.00
C11    C     0.54700   0.93100   0.25800   0.01267  Uiso   1.00
C12    C     0.89970   0.12610   0.87520   0.01267  Uiso   1.00
C13    C     0.48220   0.42750   0.16830   0.01267  Uiso   1.00
C14    C     0.33450   0.29210   0.21960   0.01267  Uiso   1.00
C15    C     0.18900   0.30500   0.24200   0.01267  Uiso   1.00
C16    C     0.00130   0.27490   0.62480   0.01267  Uiso   1.00
C17    C     0.12510   0.87510   0.25000   0.01267  Uiso   1.00
C18    C     0.87490   0.12490   0.75000   0.01267  Uiso   1.00
O1     O     0.25667   0.80657   0.72630   0.01267  Uiso   1.00
O2     O     0.56730   0.18060   0.71430   0.01267  Uiso   1.00
O3     O     0.31570   0.05620   0.78990   0.01267  Uiso   1.00
O4     O     0.04111   0.94915   0.09116   0.01267  Uiso   1.00
O5     O     0.13370   0.79289   0.06101   0.01267  Uiso   1.00
O6     O     0.48500   0.81300   0.57220   0.01267  Uiso   1.00
O7     O     0.53287   0.48297   0.77370   0.01267  Uiso   1.00
O8     O     0.89490   0.78160   0.78570   0.01267  Uiso   1.00
O9     O     0.84610   0.60560   0.71010   0.01267  Uiso   1.00
O10    O     0.04031   0.63227   0.40884   0.01267  Uiso   1.00
O11    O     0.85390   0.69471   0.43899   0.01267  Uiso   1.00
O12    O     0.38520   0.55720   0.92780   0.01267  Uiso   1.00
O13    O     0.74333   0.19343   0.27370   0.01267  Uiso   1.00
O14    O     0.43270   0.81940   0.28570   0.01267  Uiso   1.00
O15    O     0.68430   0.94380   0.21010   0.01267  Uiso   1.00
O16    O     0.95889   0.05085   0.90884   0.01267  Uiso   1.00
O17    O     0.86630   0.20711   0.93899   0.01267  Uiso   1.00
O18    O     0.51500   0.18700   0.42780   0.01267  Uiso   1.00
O19    O     0.46713   0.51703   0.22630   0.01267  Uiso   1.00
O20    O     0.10510   0.21840   0.21430   0.01267  Uiso   1.00
O21    O     0.15390   0.39440   0.28990   0.01267  Uiso   1.00
O22    O     0.95969   0.36773   0.59116   0.01267  Uiso   1.00
O23    O     0.14610   0.30529   0.56101   0.01267  Uiso   1.00
O24    O     0.61480   0.44280   0.07220   0.01267  Uiso   1.00
