data_image0
_cell_length_a       14.16
_cell_length_b       7.271
_cell_length_c       8.982
_cell_angle_alpha    90
_cell_angle_beta     108.851
_cell_angle_gamma    90

_symmetry_space_group_name_H-M    "P 1"
_symmetry_int_tables_number       1

loop_
  _symmetry_equiv_pos_as_xyz
  'x, y, z'

loop_
  _atom_site_label
  _atom_site_occupancy
  _atom_site_fract_x
  _atom_site_fract_y
  _atom_site_fract_z
  _atom_site_thermal_displace_type
  _atom_site_B_iso_or_equiv
  _atom_site_type_symbol
  O1       1.0000 0.32740  0.81970  0.95680  Biso   1.000  O
  O2       1.0000 0.34697  0.18050  0.29350  Biso   1.000  O
  C1       1.0000 0.41101  0.89450  0.97690  Biso   1.000  C
  C2       1.0000 0.42077  0.10560  0.39450  Biso   1.000  C
  O3       1.0000 0.82740  0.31970  0.95680  Biso   1.000  O
  O4       1.0000 0.84697  0.68050  0.29350  Biso   1.000  O
  C3       1.0000 0.91101  0.39450  0.97690  Biso   1.000  C
  C4       1.0000 0.92077  0.60560  0.39450  Biso   1.000  C
  O5       1.0000 0.67260  0.81970  0.04320  Biso   1.000  O
  O6       1.0000 0.65303  0.18050  0.70650  Biso   1.000  O
  C5       1.0000 0.58899  0.89450  0.02310  Biso   1.000  C
  C6       1.0000 0.57923  0.10560  0.60550  Biso   1.000  C
  O7       1.0000 0.17260  0.31970  0.04320  Biso   1.000  O
  O8       1.0000 0.15303  0.68050  0.70650  Biso   1.000  O
  C7       1.0000 0.08899  0.39450  0.02310  Biso   1.000  C
  C8       1.0000 0.07923  0.60560  0.60550  Biso   1.000  C
  O9       1.0000 0.67260  0.18030  0.04320  Biso   1.000  O
  O10      1.0000 0.65303  0.81950  0.70650  Biso   1.000  O
  C9       1.0000 0.58899  0.10550  0.02310  Biso   1.000  C
  C10      1.0000 0.57923  0.89440  0.60550  Biso   1.000  C
  O11      1.0000 0.17260  0.68030  0.04320  Biso   1.000  O
  O12      1.0000 0.15303  0.31950  0.70650  Biso   1.000  O
  C11      1.0000 0.08899  0.60550  0.02310  Biso   1.000  C
  C12      1.0000 0.07923  0.39440  0.60550  Biso   1.000  C
  O13      1.0000 0.32740  0.18030  0.95680  Biso   1.000  O
  O14      1.0000 0.34697  0.81950  0.29350  Biso   1.000  O
  C13      1.0000 0.41101  0.10550  0.97690  Biso   1.000  C
  C14      1.0000 0.42077  0.89440  0.39450  Biso   1.000  C
  O15      1.0000 0.82740  0.68030  0.95680  Biso   1.000  O
  O16      1.0000 0.84697  0.31950  0.29350  Biso   1.000  O
  C15      1.0000 0.91101  0.60550  0.97690  Biso   1.000  C
  C16      1.0000 0.92077  0.39440  0.39450  Biso   1.000  C
  Ca1      1.0000 0.22726  0.00000  0.08784  Biso   1.000  Ca
  Ca2      1.0000 0.72726  0.50000  0.08784  Biso   1.000  Ca
  Ca3      1.0000 0.77274  0.00000  0.91216  Biso   1.000  Ca
  Ca4      1.0000 0.27274  0.50000  0.91216  Biso   1.000  Ca
  C17      1.0000 0.50000  0.80010  0.00000  Biso   1.000  C
  H1       1.0000 0.50000  0.65120  0.00000  Biso   1.000  H
  C18      1.0000 0.00000  0.30010  0.00000  Biso   1.000  C
  H2       1.0000 0.00000  0.15120  0.00000  Biso   1.000  H
  C19      1.0000 0.50000  0.19990  0.00000  Biso   1.000  C
  H3       1.0000 0.50000  0.34880  0.00000  Biso   1.000  H
  C20      1.0000 0.00000  0.69990  0.00000  Biso   1.000  C
  H4       1.0000 0.00000  0.84880  0.00000  Biso   1.000  H
  C21      1.0000 0.50000  0.19930  0.50000  Biso   1.000  C
  H5       1.0000 0.50000  0.34840  0.50000  Biso   1.000  H
  C22      1.0000 0.00000  0.69930  0.50000  Biso   1.000  C
  H6       1.0000 0.00000  0.84840  0.50000  Biso   1.000  H
  C23      1.0000 0.50000  0.80070  0.50000  Biso   1.000  C
  H7       1.0000 0.50000  0.65160  0.50000  Biso   1.000  H
  C24      1.0000 0.00000  0.30070  0.50000  Biso   1.000  C
  H8       1.0000 0.00000  0.15160  0.50000  Biso   1.000  H
