data_image0
_cell_length_a       24.4186
_cell_length_b       24.4186
_cell_length_c       55.4757
_cell_angle_alpha    90
_cell_angle_beta     90
_cell_angle_gamma    120

_symmetry_space_group_name_H-M    "P 1"
_symmetry_int_tables_number       1

loop_
  _symmetry_equiv_pos_as_xyz
  'x, y, z'

loop_
  _atom_site_label
  _atom_site_occupancy
  _atom_site_fract_x
  _atom_site_fract_y
  _atom_site_fract_z
  _atom_site_thermal_displace_type
  _atom_site_B_iso_or_equiv
  _atom_site_type_symbol
  In1      1.0000 0.77849  0.72900  0.47478  Biso   1.000  In
  O1       1.0000 0.76350  0.63450  0.47460  Biso   1.000  O
  O2       1.0000 0.66840  0.56860  0.49132  Biso   1.000  O
  O3       1.0000 0.75520  0.85280  0.49959  Biso   1.000  O
  O4       1.0000 0.79690  0.82220  0.47021  Biso   1.000  O
  O5       1.0000 0.97710  0.36620  0.20510  Biso   1.000  O
  O6       1.0000 0.00860  0.29940  0.22046  Biso   1.000  O
  O7       1.0000 0.78900  0.12580  0.44333  Biso   1.000  O
  O8       1.0000 0.80710  0.41040  0.41900  Biso   1.000  O
  O9       1.0000 0.89160  0.26200  0.33387  Biso   1.000  O
  N1       1.0000 0.73870  0.37170  0.45067  Biso   1.000  N
  H1       1.0000 0.71610  0.33800  0.45890  Biso   1.000  H
  N2       1.0000 0.76480  0.30630  0.43047  Biso   1.000  N
  H2       1.0000 0.74370  0.28090  0.44200  Biso   1.000  H
  N3       1.0000 0.82520  0.06850  0.42292  Biso   1.000  N
  H3       1.0000 0.83860  0.06590  0.40890  Biso   1.000  H
  N4       1.0000 0.83470  0.15770  0.40524  Biso   1.000  N
  H4       1.0000 0.85430  0.15030  0.39400  Biso   1.000  H
  N5       1.0000 0.85230  0.31920  0.35214  Biso   1.000  N
  H5       1.0000 0.84740  0.35140  0.35030  Biso   1.000  H
  N6       1.0000 0.89090  0.34390  0.31408  Biso   1.000  N
  H6       1.0000 0.88150  0.37340  0.31560  Biso   1.000  H
  C1       1.0000 0.71920  0.58150  0.48091  Biso   1.000  C
  C2       1.0000 0.72740  0.52710  0.47385  Biso   1.000  C
  C3       1.0000 0.67940  0.46750  0.47922  Biso   1.000  C
  H7       1.0000 0.64500  0.46240  0.48820  Biso   1.000  H
  C4       1.0000 0.68150  0.41350  0.47118  Biso   1.000  C
  H8       1.0000 0.64920  0.37260  0.47450  Biso   1.000  H
  C5       1.0000 0.73590  0.42560  0.45778  Biso   1.000  C
  C6       1.0000 0.78400  0.48540  0.45219  Biso   1.000  C
  H9       1.0000 0.81930  0.49130  0.44370  Biso   1.000  H
  C7       1.0000 0.77840  0.53860  0.45987  Biso   1.000  C
  H10      1.0000 0.80840  0.57960  0.45550  Biso   1.000  H
  C8       1.0000 0.77320  0.36640  0.43216  Biso   1.000  C
  C9       1.0000 0.78600  0.28160  0.41274  Biso   1.000  C
  C10      1.0000 0.79540  0.23180  0.41946  Biso   1.000  C
  H11      1.0000 0.78310  0.21340  0.43460  Biso   1.000  H
  C11      1.0000 0.82390  0.20990  0.40290  Biso   1.000  C
  C12      1.0000 0.84280  0.23660  0.38020  Biso   1.000  C
  H12      1.0000 0.86190  0.22230  0.36940  Biso   1.000  H
  C13      1.0000 0.83160  0.28730  0.37414  Biso   1.000  C
  C14      1.0000 0.80420  0.30970  0.39020  Biso   1.000  C
  H13      1.0000 0.79810  0.34310  0.38600  Biso   1.000  H
  C15      1.0000 0.81370  0.11820  0.42571  Biso   1.000  C
  C16      1.0000 0.81860  0.02230  0.43898  Biso   1.000  C
  C17      1.0000 0.78820  0.01160  0.46097  Biso   1.000  C
  H14      1.0000 0.77450  0.03820  0.46690  Biso   1.000  H
  C18      1.0000 0.77930  0.95810  0.47382  Biso   1.000  C
  H15      1.0000 0.75890  0.94940  0.48870  Biso   1.000  H
  C19      1.0000 0.79870  0.91910  0.46571  Biso   1.000  C
  C20      1.0000 0.82930  0.92970  0.44273  Biso   1.000  C
  H16      1.0000 0.84090  0.90140  0.43680  Biso   1.000  H
  C21      1.0000 0.84140  0.98310  0.42936  Biso   1.000  C
  H17      1.0000 0.86320  0.99270  0.41480  Biso   1.000  H
  C22      1.0000 0.78640  0.86220  0.47978  Biso   1.000  C
  C23      1.0000 0.87910  0.30540  0.33334  Biso   1.000  C
  C24      1.0000 0.91690  0.34040  0.29188  Biso   1.000  C
  C25      1.0000 0.94450  0.30490  0.28745  Biso   1.000  C
  H18      1.0000 0.94840  0.28140  0.29990  Biso   1.000  H
  C26      1.0000 0.96680  0.30320  0.26481  Biso   1.000  C
  H19      1.0000 0.98570  0.27890  0.26210  Biso   1.000  H
  C27      1.0000 0.96130  0.33800  0.24584  Biso   1.000  C
  C28      1.0000 0.93520  0.37480  0.25010  Biso   1.000  C
  H20      1.0000 0.93390  0.39980  0.23770  Biso   1.000  H
  C29      1.0000 0.91020  0.37620  0.27290  Biso   1.000  C
  H21      1.0000 0.89010  0.39950  0.27550  Biso   1.000  H
  C30      1.0000 0.98490  0.33560  0.22118  Biso   1.000  C
  In2      1.0000 0.27100  0.04949  0.80811  Biso   1.000  In
  O10      1.0000 0.36550  0.12900  0.80793  Biso   1.000  O
  O11      1.0000 0.43140  0.09980  0.82465  Biso   1.000  O
  O12      1.0000 0.14720  0.90240  0.83292  Biso   1.000  O
  O13      1.0000 0.17780  0.97470  0.80354  Biso   1.000  O
  O14      1.0000 0.63380  0.61090  0.53843  Biso   1.000  O
  O15      1.0000 0.70060  0.70920  0.55379  Biso   1.000  O
  O16      1.0000 0.87420  0.66320  0.77666  Biso   1.000  O
  O17      1.0000 0.58960  0.39670  0.75233  Biso   1.000  O
  O18      1.0000 0.73800  0.62960  0.66720  Biso   1.000  O
  N7       1.0000 0.62830  0.36700  0.78400  Biso   1.000  N
  H22      1.0000 0.66200  0.37810  0.79223  Biso   1.000  H
  N8       1.0000 0.69370  0.45850  0.76380  Biso   1.000  N
  H23      1.0000 0.71910  0.46280  0.77533  Biso   1.000  H
  N9       1.0000 0.93150  0.75670  0.75625  Biso   1.000  N
  H24      1.0000 0.93410  0.77270  0.74223  Biso   1.000  H
  N10      1.0000 0.84230  0.67700  0.73857  Biso   1.000  N
  H25      1.0000 0.84970  0.70400  0.72733  Biso   1.000  H
  N11      1.0000 0.68080  0.53310  0.68547  Biso   1.000  N
  H26      1.0000 0.64860  0.49600  0.68363  Biso   1.000  H
  N12      1.0000 0.65610  0.54700  0.64741  Biso   1.000  N
  H27      1.0000 0.62660  0.50810  0.64893  Biso   1.000  H
  C31      1.0000 0.41850  0.13770  0.81424  Biso   1.000  C
  C32      1.0000 0.47290  0.20030  0.80718  Biso   1.000  C
  C33      1.0000 0.53250  0.21190  0.81255  Biso   1.000  C
  H28      1.0000 0.53760  0.18260  0.82153  Biso   1.000  H
  C34      1.0000 0.58650  0.26800  0.80451  Biso   1.000  C
  H29      1.0000 0.62740  0.27660  0.80783  Biso   1.000  H
  C35      1.0000 0.57440  0.31030  0.79111  Biso   1.000  C
  C36      1.0000 0.51460  0.29860  0.78552  Biso   1.000  C
  H30      1.0000 0.50870  0.32800  0.77703  Biso   1.000  H
  C37      1.0000 0.46140  0.23980  0.79320  Biso   1.000  C
  H31      1.0000 0.42040  0.22880  0.78883  Biso   1.000  H
  C38      1.0000 0.63360  0.40680  0.76549  Biso   1.000  C
  C39      1.0000 0.71840  0.50440  0.74607  Biso   1.000  C
  C40      1.0000 0.76820  0.56360  0.75279  Biso   1.000  C
  H32      1.0000 0.78660  0.56970  0.76793  Biso   1.000  H
  C41      1.0000 0.79010  0.61400  0.73623  Biso   1.000  C
  C42      1.0000 0.76340  0.60620  0.71353  Biso   1.000  C
  H33      1.0000 0.77770  0.63960  0.70273  Biso   1.000  H
  C43      1.0000 0.71270  0.54430  0.70747  Biso   1.000  C
  C44      1.0000 0.69030  0.49450  0.72353  Biso   1.000  C
  H34      1.0000 0.65690  0.45500  0.71933  Biso   1.000  H
  C45      1.0000 0.88180  0.69550  0.75904  Biso   1.000  C
  C46      1.0000 0.97770  0.79630  0.77231  Biso   1.000  C
  C47      1.0000 0.98840  0.77660  0.79430  Biso   1.000  C
  H35      1.0000 0.96180  0.73630  0.80023  Biso   1.000  H
  C48      1.0000 0.04190  0.82120  0.80715  Biso   1.000  C
  H36      1.0000 0.05060  0.80950  0.82203  Biso   1.000  H
  C49      1.0000 0.08090  0.87960  0.79904  Biso   1.000  C
  C50      1.0000 0.07030  0.89960  0.77606  Biso   1.000  C
  H37      1.0000 0.09860  0.93950  0.77013  Biso   1.000  H
  C51      1.0000 0.01690  0.85830  0.76269  Biso   1.000  C
  H38      1.0000 0.00730  0.87050  0.74813  Biso   1.000  H
  C52      1.0000 0.13780  0.92420  0.81311  Biso   1.000  C
  C53      1.0000 0.69460  0.57370  0.66667  Biso   1.000  C
  C54      1.0000 0.65960  0.57650  0.62521  Biso   1.000  C
  C55      1.0000 0.69510  0.63960  0.62078  Biso   1.000  C
  H39      1.0000 0.71860  0.66700  0.63323  Biso   1.000  H
  C56      1.0000 0.69680  0.66360  0.59814  Biso   1.000  C
  H40      1.0000 0.72110  0.70680  0.59543  Biso   1.000  H
  C57      1.0000 0.66200  0.62330  0.57917  Biso   1.000  C
  C58      1.0000 0.62520  0.56040  0.58343  Biso   1.000  C
  H41      1.0000 0.60020  0.53410  0.57103  Biso   1.000  H
  C59      1.0000 0.62380  0.53400  0.60623  Biso   1.000  C
  H42      1.0000 0.60050  0.49060  0.60883  Biso   1.000  H
  C60      1.0000 0.66440  0.64930  0.55451  Biso   1.000  C
  In3      1.0000 0.95051  0.22151  0.14145  Biso   1.000  In
  O19      1.0000 0.87100  0.23650  0.14127  Biso   1.000  O
  O20      1.0000 0.90020  0.33160  0.15799  Biso   1.000  O
  O21      1.0000 0.09760  0.24480  0.16626  Biso   1.000  O
  O22      1.0000 0.02530  0.20310  0.13688  Biso   1.000  O
  O23      1.0000 0.38910  0.02290  0.87177  Biso   1.000  O
  O24      1.0000 0.29080  0.99140  0.88713  Biso   1.000  O
  O25      1.0000 0.33680  0.21100  0.11000  Biso   1.000  O
  O26      1.0000 0.60330  0.19290  0.08567  Biso   1.000  O
  O27      1.0000 0.37040  0.10840  0.00054  Biso   1.000  O
  N13      1.0000 0.63300  0.26130  0.11734  Biso   1.000  N
  H43      1.0000 0.62190  0.28390  0.12557  Biso   1.000  H
  N14      1.0000 0.54150  0.23520  0.09714  Biso   1.000  N
  H44      1.0000 0.53720  0.25630  0.10867  Biso   1.000  H
  N15      1.0000 0.24330  0.17480  0.08959  Biso   1.000  N
  H45      1.0000 0.22730  0.16140  0.07557  Biso   1.000  H
  N16      1.0000 0.32300  0.16530  0.07191  Biso   1.000  N
  H46      1.0000 0.29600  0.14570  0.06067  Biso   1.000  H
  N17      1.0000 0.46690  0.14770  0.01881  Biso   1.000  N
  H47      1.0000 0.50400  0.15260  0.01697  Biso   1.000  H
  N18      1.0000 0.45300  0.10910  0.98075  Biso   1.000  N
  H48      1.0000 0.49190  0.11850  0.98227  Biso   1.000  H
  C61      1.0000 0.86230  0.28080  0.14758  Biso   1.000  C
  C62      1.0000 0.79970  0.27260  0.14052  Biso   1.000  C
  C63      1.0000 0.78810  0.32060  0.14589  Biso   1.000  C
  H49      1.0000 0.81740  0.35500  0.15487  Biso   1.000  H
  C64      1.0000 0.73200  0.31850  0.13785  Biso   1.000  C
  H50      1.0000 0.72340  0.35080  0.14117  Biso   1.000  H
  C65      1.0000 0.68970  0.26410  0.12445  Biso   1.000  C
  C66      1.0000 0.70140  0.21600  0.11886  Biso   1.000  C
  H51      1.0000 0.67200  0.18070  0.11037  Biso   1.000  H
  C67      1.0000 0.76020  0.22160  0.12654  Biso   1.000  C
  H52      1.0000 0.77120  0.19160  0.12217  Biso   1.000  H
  C68      1.0000 0.59320  0.22680  0.09883  Biso   1.000  C
  C69      1.0000 0.49560  0.21400  0.07941  Biso   1.000  C
  C70      1.0000 0.43640  0.20460  0.08613  Biso   1.000  C
  H53      1.0000 0.43030  0.21690  0.10127  Biso   1.000  H
  C71      1.0000 0.38600  0.17610  0.06957  Biso   1.000  C
  C72      1.0000 0.39380  0.15720  0.04687  Biso   1.000  C
  H54      1.0000 0.36040  0.13810  0.03607  Biso   1.000  H
  C73      1.0000 0.45570  0.16840  0.04081  Biso   1.000  C
  C74      1.0000 0.50550  0.19580  0.05687  Biso   1.000  C
  H55      1.0000 0.54500  0.20190  0.05267  Biso   1.000  H
  C75      1.0000 0.30450  0.18630  0.09238  Biso   1.000  C
  C76      1.0000 0.20370  0.18140  0.10565  Biso   1.000  C
  C77      1.0000 0.22340  0.21180  0.12764  Biso   1.000  C
  H56      1.0000 0.26370  0.22550  0.13357  Biso   1.000  H
  C78      1.0000 0.17880  0.22070  0.14049  Biso   1.000  C
  H57      1.0000 0.19050  0.24110  0.15537  Biso   1.000  H
  C79      1.0000 0.12040  0.20130  0.13238  Biso   1.000  C
  C80      1.0000 0.10040  0.17070  0.10940  Biso   1.000  C
  H58      1.0000 0.06050  0.15910  0.10347  Biso   1.000  H
  C81      1.0000 0.14170  0.15860  0.09603  Biso   1.000  C
  H59      1.0000 0.12950  0.13680  0.08147  Biso   1.000  H
  C82      1.0000 0.07580  0.21360  0.14645  Biso   1.000  C
  C83      1.0000 0.42630  0.12090  0.00001  Biso   1.000  C
  C84      1.0000 0.42350  0.08310  0.95855  Biso   1.000  C
  C85      1.0000 0.36040  0.05550  0.95412  Biso   1.000  C
  H60      1.0000 0.33300  0.05160  0.96657  Biso   1.000  H
  C86      1.0000 0.33640  0.03320  0.93148  Biso   1.000  C
  H61      1.0000 0.29320  0.01430  0.92877  Biso   1.000  H
  C87      1.0000 0.37670  0.03870  0.91251  Biso   1.000  C
  C88      1.0000 0.43960  0.06480  0.91677  Biso   1.000  C
  H62      1.0000 0.46590  0.06610  0.90437  Biso   1.000  H
  C89      1.0000 0.46600  0.08980  0.93957  Biso   1.000  C
  H63      1.0000 0.50940  0.10990  0.94217  Biso   1.000  H
  C90      1.0000 0.35070  0.01510  0.88785  Biso   1.000  C
  In4      1.0000 0.72900  0.77849  0.52522  Biso   1.000  In
  O28      1.0000 0.63450  0.76350  0.52540  Biso   1.000  O
  O29      1.0000 0.56860  0.66840  0.50868  Biso   1.000  O
  O30      1.0000 0.85280  0.75520  0.50041  Biso   1.000  O
  O31      1.0000 0.82220  0.79690  0.52979  Biso   1.000  O
  O32      1.0000 0.36620  0.97710  0.79490  Biso   1.000  O
  O33      1.0000 0.29940  0.00860  0.77954  Biso   1.000  O
  O34      1.0000 0.12580  0.78900  0.55667  Biso   1.000  O
  O35      1.0000 0.41040  0.80710  0.58100  Biso   1.000  O
  O36      1.0000 0.26200  0.89160  0.66613  Biso   1.000  O
  N19      1.0000 0.37170  0.73870  0.54933  Biso   1.000  N
  H64      1.0000 0.33800  0.71610  0.54110  Biso   1.000  H
  N20      1.0000 0.30630  0.76480  0.56953  Biso   1.000  N
  H65      1.0000 0.28090  0.74370  0.55800  Biso   1.000  H
  N21      1.0000 0.06850  0.82520  0.57708  Biso   1.000  N
  H66      1.0000 0.06590  0.83860  0.59110  Biso   1.000  H
  N22      1.0000 0.15770  0.83470  0.59476  Biso   1.000  N
  H67      1.0000 0.15030  0.85430  0.60600  Biso   1.000  H
  N23      1.0000 0.31920  0.85230  0.64786  Biso   1.000  N
  H68      1.0000 0.35140  0.84740  0.64970  Biso   1.000  H
  N24      1.0000 0.34390  0.89090  0.68592  Biso   1.000  N
  H69      1.0000 0.37340  0.88150  0.68440  Biso   1.000  H
  C91      1.0000 0.58150  0.71920  0.51909  Biso   1.000  C
  C92      1.0000 0.52710  0.72740  0.52615  Biso   1.000  C
  C93      1.0000 0.46750  0.67940  0.52078  Biso   1.000  C
  H70      1.0000 0.46240  0.64500  0.51180  Biso   1.000  H
  C94      1.0000 0.41350  0.68150  0.52882  Biso   1.000  C
  H71      1.0000 0.37260  0.64920  0.52550  Biso   1.000  H
  C95      1.0000 0.42560  0.73590  0.54222  Biso   1.000  C
  C96      1.0000 0.48540  0.78400  0.54781  Biso   1.000  C
  H72      1.0000 0.49130  0.81930  0.55630  Biso   1.000  H
  C97      1.0000 0.53860  0.77840  0.54013  Biso   1.000  C
  H73      1.0000 0.57960  0.80840  0.54450  Biso   1.000  H
  C98      1.0000 0.36640  0.77320  0.56784  Biso   1.000  C
  C99      1.0000 0.28160  0.78600  0.58726  Biso   1.000  C
  C100     1.0000 0.23180  0.79540  0.58054  Biso   1.000  C
  H74      1.0000 0.21340  0.78310  0.56540  Biso   1.000  H
  C101     1.0000 0.20990  0.82390  0.59710  Biso   1.000  C
  C102     1.0000 0.23660  0.84280  0.61980  Biso   1.000  C
  H75      1.0000 0.22230  0.86190  0.63060  Biso   1.000  H
  C103     1.0000 0.28730  0.83160  0.62586  Biso   1.000  C
  C104     1.0000 0.30970  0.80420  0.60980  Biso   1.000  C
  H76      1.0000 0.34310  0.79810  0.61400  Biso   1.000  H
  C105     1.0000 0.11820  0.81370  0.57429  Biso   1.000  C
  C106     1.0000 0.02230  0.81860  0.56102  Biso   1.000  C
  C107     1.0000 0.01160  0.78820  0.53903  Biso   1.000  C
  H77      1.0000 0.03820  0.77450  0.53310  Biso   1.000  H
  C108     1.0000 0.95810  0.77930  0.52618  Biso   1.000  C
  H78      1.0000 0.94940  0.75890  0.51130  Biso   1.000  H
  C109     1.0000 0.91910  0.79870  0.53429  Biso   1.000  C
  C110     1.0000 0.92970  0.82930  0.55727  Biso   1.000  C
  H79      1.0000 0.90140  0.84090  0.56320  Biso   1.000  H
  C111     1.0000 0.98310  0.84140  0.57064  Biso   1.000  C
  H80      1.0000 0.99270  0.86320  0.58520  Biso   1.000  H
  C112     1.0000 0.86220  0.78640  0.52022  Biso   1.000  C
  C113     1.0000 0.30540  0.87910  0.66666  Biso   1.000  C
  C114     1.0000 0.34040  0.91690  0.70812  Biso   1.000  C
  C115     1.0000 0.30490  0.94450  0.71255  Biso   1.000  C
  H81      1.0000 0.28140  0.94840  0.70010  Biso   1.000  H
  C116     1.0000 0.30320  0.96680  0.73519  Biso   1.000  C
  H82      1.0000 0.27890  0.98570  0.73790  Biso   1.000  H
  C117     1.0000 0.33800  0.96130  0.75416  Biso   1.000  C
  C118     1.0000 0.37480  0.93520  0.74990  Biso   1.000  C
  H83      1.0000 0.39980  0.93390  0.76230  Biso   1.000  H
  C119     1.0000 0.37620  0.91020  0.72710  Biso   1.000  C
  H84      1.0000 0.39950  0.89010  0.72450  Biso   1.000  H
  C120     1.0000 0.33560  0.98490  0.77882  Biso   1.000  C
  In5      1.0000 0.04949  0.27100  0.19189  Biso   1.000  In
  O37      1.0000 0.12900  0.36550  0.19207  Biso   1.000  O
  O38      1.0000 0.09980  0.43140  0.17535  Biso   1.000  O
  O39      1.0000 0.90240  0.14720  0.16708  Biso   1.000  O
  O40      1.0000 0.97470  0.17780  0.19646  Biso   1.000  O
  O41      1.0000 0.61090  0.63380  0.46157  Biso   1.000  O
  O42      1.0000 0.70920  0.70060  0.44621  Biso   1.000  O
  O43      1.0000 0.66320  0.87420  0.22334  Biso   1.000  O
  O44      1.0000 0.39670  0.58960  0.24767  Biso   1.000  O
  O45      1.0000 0.62960  0.73800  0.33280  Biso   1.000  O
  N25      1.0000 0.36700  0.62830  0.21600  Biso   1.000  N
  H85      1.0000 0.37810  0.66200  0.20777  Biso   1.000  H
  N26      1.0000 0.45850  0.69370  0.23620  Biso   1.000  N
  H86      1.0000 0.46280  0.71910  0.22467  Biso   1.000  H
  N27      1.0000 0.75670  0.93150  0.24375  Biso   1.000  N
  H87      1.0000 0.77270  0.93410  0.25777  Biso   1.000  H
  N28      1.0000 0.67700  0.84230  0.26143  Biso   1.000  N
  H88      1.0000 0.70400  0.84970  0.27267  Biso   1.000  H
  N29      1.0000 0.53310  0.68080  0.31453  Biso   1.000  N
  H89      1.0000 0.49600  0.64860  0.31637  Biso   1.000  H
  N30      1.0000 0.54700  0.65610  0.35259  Biso   1.000  N
  H90      1.0000 0.50810  0.62660  0.35107  Biso   1.000  H
  C121     1.0000 0.13770  0.41850  0.18576  Biso   1.000  C
  C122     1.0000 0.20030  0.47290  0.19282  Biso   1.000  C
  C123     1.0000 0.21190  0.53250  0.18745  Biso   1.000  C
  H91      1.0000 0.18260  0.53760  0.17847  Biso   1.000  H
  C124     1.0000 0.26800  0.58650  0.19549  Biso   1.000  C
  H92      1.0000 0.27660  0.62740  0.19217  Biso   1.000  H
  C125     1.0000 0.31030  0.57440  0.20889  Biso   1.000  C
  C126     1.0000 0.29860  0.51460  0.21448  Biso   1.000  C
  H93      1.0000 0.32800  0.50870  0.22297  Biso   1.000  H
  C127     1.0000 0.23980  0.46140  0.20680  Biso   1.000  C
  H94      1.0000 0.22880  0.42040  0.21117  Biso   1.000  H
  C128     1.0000 0.40680  0.63360  0.23451  Biso   1.000  C
  C129     1.0000 0.50440  0.71840  0.25393  Biso   1.000  C
  C130     1.0000 0.56360  0.76820  0.24721  Biso   1.000  C
  H95      1.0000 0.56970  0.78660  0.23207  Biso   1.000  H
  C131     1.0000 0.61400  0.79010  0.26377  Biso   1.000  C
  C132     1.0000 0.60620  0.76340  0.28647  Biso   1.000  C
  H96      1.0000 0.63960  0.77770  0.29727  Biso   1.000  H
  C133     1.0000 0.54430  0.71270  0.29253  Biso   1.000  C
  C134     1.0000 0.49450  0.69030  0.27647  Biso   1.000  C
  H97      1.0000 0.45500  0.65690  0.28067  Biso   1.000  H
  C135     1.0000 0.69550  0.88180  0.24096  Biso   1.000  C
  C136     1.0000 0.79630  0.97770  0.22769  Biso   1.000  C
  C137     1.0000 0.77660  0.98840  0.20570  Biso   1.000  C
  H98      1.0000 0.73630  0.96180  0.19977  Biso   1.000  H
  C138     1.0000 0.82120  0.04190  0.19285  Biso   1.000  C
  H99      1.0000 0.80950  0.05060  0.17797  Biso   1.000  H
  C139     1.0000 0.87960  0.08090  0.20096  Biso   1.000  C
  C140     1.0000 0.89960  0.07030  0.22394  Biso   1.000  C
  H100     1.0000 0.93950  0.09860  0.22987  Biso   1.000  H
  C141     1.0000 0.85830  0.01690  0.23731  Biso   1.000  C
  H101     1.0000 0.87050  0.00730  0.25187  Biso   1.000  H
  C142     1.0000 0.92420  0.13780  0.18689  Biso   1.000  C
  C143     1.0000 0.57370  0.69460  0.33333  Biso   1.000  C
  C144     1.0000 0.57650  0.65960  0.37479  Biso   1.000  C
  C145     1.0000 0.63960  0.69510  0.37922  Biso   1.000  C
  H102     1.0000 0.66700  0.71860  0.36677  Biso   1.000  H
  C146     1.0000 0.66360  0.69680  0.40186  Biso   1.000  C
  H103     1.0000 0.70680  0.72110  0.40457  Biso   1.000  H
  C147     1.0000 0.62330  0.66200  0.42083  Biso   1.000  C
  C148     1.0000 0.56040  0.62520  0.41657  Biso   1.000  C
  H104     1.0000 0.53410  0.60020  0.42897  Biso   1.000  H
  C149     1.0000 0.53400  0.62380  0.39377  Biso   1.000  C
  H105     1.0000 0.49060  0.60050  0.39117  Biso   1.000  H
  C150     1.0000 0.64930  0.66440  0.44549  Biso   1.000  C
  In6      1.0000 0.22151  0.95051  0.85855  Biso   1.000  In
  O46      1.0000 0.23650  0.87100  0.85873  Biso   1.000  O
  O47      1.0000 0.33160  0.90020  0.84201  Biso   1.000  O
  O48      1.0000 0.24480  0.09760  0.83374  Biso   1.000  O
  O49      1.0000 0.20310  0.02530  0.86312  Biso   1.000  O
  O50      1.0000 0.02290  0.38910  0.12823  Biso   1.000  O
  O51      1.0000 0.99140  0.29080  0.11287  Biso   1.000  O
  O52      1.0000 0.21100  0.33680  0.89000  Biso   1.000  O
  O53      1.0000 0.19290  0.60330  0.91433  Biso   1.000  O
  O54      1.0000 0.10840  0.37040  0.99946  Biso   1.000  O
  N31      1.0000 0.26130  0.63300  0.88266  Biso   1.000  N
  H106     1.0000 0.28390  0.62190  0.87443  Biso   1.000  H
  N32      1.0000 0.23520  0.54150  0.90286  Biso   1.000  N
  H107     1.0000 0.25630  0.53720  0.89133  Biso   1.000  H
  N33      1.0000 0.17480  0.24330  0.91041  Biso   1.000  N
  H108     1.0000 0.16140  0.22730  0.92443  Biso   1.000  H
  N34      1.0000 0.16530  0.32300  0.92809  Biso   1.000  N
  H109     1.0000 0.14570  0.29600  0.93933  Biso   1.000  H
  N35      1.0000 0.14770  0.46690  0.98119  Biso   1.000  N
  H110     1.0000 0.15260  0.50400  0.98303  Biso   1.000  H
  N36      1.0000 0.10910  0.45300  0.01925  Biso   1.000  N
  H111     1.0000 0.11850  0.49190  0.01773  Biso   1.000  H
  C151     1.0000 0.28080  0.86230  0.85242  Biso   1.000  C
  C152     1.0000 0.27260  0.79970  0.85948  Biso   1.000  C
  C153     1.0000 0.32060  0.78810  0.85411  Biso   1.000  C
  H112     1.0000 0.35500  0.81740  0.84513  Biso   1.000  H
  C154     1.0000 0.31850  0.73200  0.86215  Biso   1.000  C
  H113     1.0000 0.35080  0.72340  0.85883  Biso   1.000  H
  C155     1.0000 0.26410  0.68970  0.87555  Biso   1.000  C
  C156     1.0000 0.21600  0.70140  0.88114  Biso   1.000  C
  H114     1.0000 0.18070  0.67200  0.88963  Biso   1.000  H
  C157     1.0000 0.22160  0.76020  0.87346  Biso   1.000  C
  H115     1.0000 0.19160  0.77120  0.87783  Biso   1.000  H
  C158     1.0000 0.22680  0.59320  0.90117  Biso   1.000  C
  C159     1.0000 0.21400  0.49560  0.92059  Biso   1.000  C
  C160     1.0000 0.20460  0.43640  0.91387  Biso   1.000  C
  H116     1.0000 0.21690  0.43030  0.89873  Biso   1.000  H
  C161     1.0000 0.17610  0.38600  0.93043  Biso   1.000  C
  C162     1.0000 0.15720  0.39380  0.95313  Biso   1.000  C
  H117     1.0000 0.13810  0.36040  0.96393  Biso   1.000  H
  C163     1.0000 0.16840  0.45570  0.95919  Biso   1.000  C
  C164     1.0000 0.19580  0.50550  0.94313  Biso   1.000  C
  H118     1.0000 0.20190  0.54500  0.94733  Biso   1.000  H
  C165     1.0000 0.18630  0.30450  0.90762  Biso   1.000  C
  C166     1.0000 0.18140  0.20370  0.89435  Biso   1.000  C
  C167     1.0000 0.21180  0.22340  0.87236  Biso   1.000  C
  H119     1.0000 0.22550  0.26370  0.86643  Biso   1.000  H
  C168     1.0000 0.22070  0.17880  0.85951  Biso   1.000  C
  H120     1.0000 0.24110  0.19050  0.84463  Biso   1.000  H
  C169     1.0000 0.20130  0.12040  0.86762  Biso   1.000  C
  C170     1.0000 0.17070  0.10040  0.89060  Biso   1.000  C
  H121     1.0000 0.15910  0.06050  0.89653  Biso   1.000  H
  C171     1.0000 0.15860  0.14170  0.90397  Biso   1.000  C
  H122     1.0000 0.13680  0.12950  0.91853  Biso   1.000  H
  C172     1.0000 0.21360  0.07580  0.85355  Biso   1.000  C
  C173     1.0000 0.12090  0.42630  0.99999  Biso   1.000  C
  C174     1.0000 0.08310  0.42350  0.04145  Biso   1.000  C
  C175     1.0000 0.05550  0.36040  0.04588  Biso   1.000  C
  H123     1.0000 0.05160  0.33300  0.03343  Biso   1.000  H
  C176     1.0000 0.03320  0.33640  0.06852  Biso   1.000  C
  H124     1.0000 0.01430  0.29320  0.07123  Biso   1.000  H
  C177     1.0000 0.03870  0.37670  0.08749  Biso   1.000  C
  C178     1.0000 0.06480  0.43960  0.08323  Biso   1.000  C
  H125     1.0000 0.06610  0.46590  0.09563  Biso   1.000  H
  C179     1.0000 0.08980  0.46600  0.06043  Biso   1.000  C
  H126     1.0000 0.10990  0.50940  0.05783  Biso   1.000  H
  C180     1.0000 0.01510  0.35070  0.11215  Biso   1.000  C
  In7      1.0000 0.62836  0.62836  0.50000  Biso   1.000  In
  O55      1.0000 0.71550  0.71550  0.50000  Biso   1.000  O
  In8      1.0000 0.37164  0.00000  0.83333  Biso   1.000  In
  O56      1.0000 0.28450  0.00000  0.83333  Biso   1.000  O
  In9      1.0000 0.00000  0.37164  0.16667  Biso   1.000  In
  O57      1.0000 0.00000  0.28450  0.16667  Biso   1.000  O
