data_image0
_cell_length_a       23.4345
_cell_length_b       23.4345
_cell_length_c       23.4345
_cell_angle_alpha    90
_cell_angle_beta     90
_cell_angle_gamma    90

_symmetry_space_group_name_H-M    "P 1"
_symmetry_int_tables_number       1

loop_
  _symmetry_equiv_pos_as_xyz
  'x, y, z'

loop_
  _atom_site_label
  _atom_site_occupancy
  _atom_site_fract_x
  _atom_site_fract_y
  _atom_site_fract_z
  _atom_site_thermal_displace_type
  _atom_site_B_iso_or_equiv
  _atom_site_type_symbol
  N1       1.0000 0.36390  0.43180  0.14720  Biso   1.000  N
  C1       1.0000 0.21060  0.55530  0.16660  Biso   1.000  C
  C2       1.0000 0.34920  0.40190  0.19670  Biso   1.000  C
  N2       1.0000 0.86390  0.93180  0.64720  Biso   1.000  N
  C3       1.0000 0.71060  0.05530  0.66660  Biso   1.000  C
  C4       1.0000 0.84920  0.90190  0.69670  Biso   1.000  C
  N3       1.0000 0.63610  0.56820  0.14720  Biso   1.000  N
  C5       1.0000 0.78940  0.44470  0.16660  Biso   1.000  C
  C6       1.0000 0.65080  0.59810  0.19670  Biso   1.000  C
  N4       1.0000 0.13610  0.06820  0.64720  Biso   1.000  N
  C7       1.0000 0.28940  0.94470  0.66660  Biso   1.000  C
  C8       1.0000 0.15080  0.09810  0.69670  Biso   1.000  C
  N5       1.0000 0.63610  0.43180  0.85280  Biso   1.000  N
  C9       1.0000 0.78940  0.55530  0.83340  Biso   1.000  C
  C10      1.0000 0.65080  0.40190  0.80330  Biso   1.000  C
  N6       1.0000 0.13610  0.93180  0.35280  Biso   1.000  N
  C11      1.0000 0.28940  0.05530  0.33340  Biso   1.000  C
  C12      1.0000 0.15080  0.90190  0.30330  Biso   1.000  C
  N7       1.0000 0.36390  0.56820  0.85280  Biso   1.000  N
  C13      1.0000 0.21060  0.44470  0.83340  Biso   1.000  C
  C14      1.0000 0.34920  0.59810  0.80330  Biso   1.000  C
  N8       1.0000 0.86390  0.06820  0.35280  Biso   1.000  N
  C15      1.0000 0.71060  0.94470  0.33340  Biso   1.000  C
  C16      1.0000 0.84920  0.09810  0.30330  Biso   1.000  C
  N9       1.0000 0.14720  0.36390  0.43180  Biso   1.000  N
  C17      1.0000 0.16660  0.21060  0.55530  Biso   1.000  C
  C18      1.0000 0.19670  0.34920  0.40190  Biso   1.000  C
  N10      1.0000 0.64720  0.86390  0.93180  Biso   1.000  N
  C19      1.0000 0.66660  0.71060  0.05530  Biso   1.000  C
  C20      1.0000 0.69670  0.84920  0.90190  Biso   1.000  C
  N11      1.0000 0.14720  0.63610  0.56820  Biso   1.000  N
  C21      1.0000 0.16660  0.78940  0.44470  Biso   1.000  C
  C22      1.0000 0.19670  0.65080  0.59810  Biso   1.000  C
  N12      1.0000 0.64720  0.13610  0.06820  Biso   1.000  N
  C23      1.0000 0.66660  0.28940  0.94470  Biso   1.000  C
  C24      1.0000 0.69670  0.15080  0.09810  Biso   1.000  C
  N13      1.0000 0.85280  0.63610  0.43180  Biso   1.000  N
  C25      1.0000 0.83340  0.78940  0.55530  Biso   1.000  C
  C26      1.0000 0.80330  0.65080  0.40190  Biso   1.000  C
  N14      1.0000 0.35280  0.13610  0.93180  Biso   1.000  N
  C27      1.0000 0.33340  0.28940  0.05530  Biso   1.000  C
  C28      1.0000 0.30330  0.15080  0.90190  Biso   1.000  C
  N15      1.0000 0.85280  0.36390  0.56820  Biso   1.000  N
  C29      1.0000 0.83340  0.21060  0.44470  Biso   1.000  C
  C30      1.0000 0.80330  0.34920  0.59810  Biso   1.000  C
  N16      1.0000 0.35280  0.86390  0.06820  Biso   1.000  N
  C31      1.0000 0.33340  0.71060  0.94470  Biso   1.000  C
  C32      1.0000 0.30330  0.84920  0.09810  Biso   1.000  C
  N17      1.0000 0.43180  0.14720  0.36390  Biso   1.000  N
  C33      1.0000 0.55530  0.16660  0.21060  Biso   1.000  C
  C34      1.0000 0.40190  0.19670  0.34920  Biso   1.000  C
  N18      1.0000 0.93180  0.64720  0.86390  Biso   1.000  N
  C35      1.0000 0.05530  0.66660  0.71060  Biso   1.000  C
  C36      1.0000 0.90190  0.69670  0.84920  Biso   1.000  C
  N19      1.0000 0.56820  0.14720  0.63610  Biso   1.000  N
  C37      1.0000 0.44470  0.16660  0.78940  Biso   1.000  C
  C38      1.0000 0.59810  0.19670  0.65080  Biso   1.000  C
  N20      1.0000 0.06820  0.64720  0.13610  Biso   1.000  N
  C39      1.0000 0.94470  0.66660  0.28940  Biso   1.000  C
  C40      1.0000 0.09810  0.69670  0.15080  Biso   1.000  C
  N21      1.0000 0.43180  0.85280  0.63610  Biso   1.000  N
  C41      1.0000 0.55530  0.83340  0.78940  Biso   1.000  C
  C42      1.0000 0.40190  0.80330  0.65080  Biso   1.000  C
  N22      1.0000 0.93180  0.35280  0.13610  Biso   1.000  N
  C43      1.0000 0.05530  0.33340  0.28940  Biso   1.000  C
  C44      1.0000 0.90190  0.30330  0.15080  Biso   1.000  C
  N23      1.0000 0.56820  0.85280  0.36390  Biso   1.000  N
  C45      1.0000 0.44470  0.83340  0.21060  Biso   1.000  C
  C46      1.0000 0.59810  0.80330  0.34920  Biso   1.000  C
  N24      1.0000 0.06820  0.35280  0.86390  Biso   1.000  N
  C47      1.0000 0.94470  0.33340  0.71060  Biso   1.000  C
  C48      1.0000 0.09810  0.30330  0.84920  Biso   1.000  C
  N25      1.0000 0.43180  0.36390  0.85280  Biso   1.000  N
  C49      1.0000 0.55530  0.21060  0.83340  Biso   1.000  C
  C50      1.0000 0.40190  0.34920  0.80330  Biso   1.000  C
  N26      1.0000 0.93180  0.86390  0.35280  Biso   1.000  N
  C51      1.0000 0.05530  0.71060  0.33340  Biso   1.000  C
  C52      1.0000 0.90190  0.84920  0.30330  Biso   1.000  C
  N27      1.0000 0.56820  0.63610  0.85280  Biso   1.000  N
  C53      1.0000 0.44470  0.78940  0.83340  Biso   1.000  C
  C54      1.0000 0.59810  0.65080  0.80330  Biso   1.000  C
  N28      1.0000 0.06820  0.13610  0.35280  Biso   1.000  N
  C55      1.0000 0.94470  0.28940  0.33340  Biso   1.000  C
  C56      1.0000 0.09810  0.15080  0.30330  Biso   1.000  C
  N29      1.0000 0.43180  0.63610  0.14720  Biso   1.000  N
  C57      1.0000 0.55530  0.78940  0.16660  Biso   1.000  C
  C58      1.0000 0.40190  0.65080  0.19670  Biso   1.000  C
  N30      1.0000 0.93180  0.13610  0.64720  Biso   1.000  N
  C59      1.0000 0.05530  0.28940  0.66660  Biso   1.000  C
  C60      1.0000 0.90190  0.15080  0.69670  Biso   1.000  C
  N31      1.0000 0.56820  0.36390  0.14720  Biso   1.000  N
  C61      1.0000 0.44470  0.21060  0.16660  Biso   1.000  C
  C62      1.0000 0.59810  0.34920  0.19670  Biso   1.000  C
  N32      1.0000 0.06820  0.86390  0.64720  Biso   1.000  N
  C63      1.0000 0.94470  0.71060  0.66660  Biso   1.000  C
  C64      1.0000 0.09810  0.84920  0.69670  Biso   1.000  C
  N33      1.0000 0.36390  0.14720  0.56820  Biso   1.000  N
  C65      1.0000 0.21060  0.16660  0.44470  Biso   1.000  C
  C66      1.0000 0.34920  0.19670  0.59810  Biso   1.000  C
  N34      1.0000 0.86390  0.64720  0.06820  Biso   1.000  N
  C67      1.0000 0.71060  0.66660  0.94470  Biso   1.000  C
  C68      1.0000 0.84920  0.69670  0.09810  Biso   1.000  C
  N35      1.0000 0.63610  0.14720  0.43180  Biso   1.000  N
  C69      1.0000 0.78940  0.16660  0.55530  Biso   1.000  C
  C70      1.0000 0.65080  0.19670  0.40190  Biso   1.000  C
  N36      1.0000 0.13610  0.64720  0.93180  Biso   1.000  N
  C71      1.0000 0.28940  0.66660  0.05530  Biso   1.000  C
  C72      1.0000 0.15080  0.69670  0.90190  Biso   1.000  C
  N37      1.0000 0.63610  0.85280  0.56820  Biso   1.000  N
  C73      1.0000 0.78940  0.83340  0.44470  Biso   1.000  C
  C74      1.0000 0.65080  0.80330  0.59810  Biso   1.000  C
  N38      1.0000 0.13610  0.35280  0.06820  Biso   1.000  N
  C75      1.0000 0.28940  0.33340  0.94470  Biso   1.000  C
  C76      1.0000 0.15080  0.30330  0.09810  Biso   1.000  C
  N39      1.0000 0.36390  0.85280  0.43180  Biso   1.000  N
  C77      1.0000 0.21060  0.83340  0.55530  Biso   1.000  C
  C78      1.0000 0.34920  0.80330  0.40190  Biso   1.000  C
  N40      1.0000 0.86390  0.35280  0.93180  Biso   1.000  N
  C79      1.0000 0.71060  0.33340  0.05530  Biso   1.000  C
  C80      1.0000 0.84920  0.30330  0.90190  Biso   1.000  C
  N41      1.0000 0.14720  0.43180  0.63610  Biso   1.000  N
  C81      1.0000 0.16660  0.55530  0.78940  Biso   1.000  C
  C82      1.0000 0.19670  0.40190  0.65080  Biso   1.000  C
  N42      1.0000 0.64720  0.93180  0.13610  Biso   1.000  N
  C83      1.0000 0.66660  0.05530  0.28940  Biso   1.000  C
  C84      1.0000 0.69670  0.90190  0.15080  Biso   1.000  C
  N43      1.0000 0.14720  0.56820  0.36390  Biso   1.000  N
  C85      1.0000 0.16660  0.44470  0.21060  Biso   1.000  C
  C86      1.0000 0.19670  0.59810  0.34920  Biso   1.000  C
  N44      1.0000 0.64720  0.06820  0.86390  Biso   1.000  N
  C87      1.0000 0.66660  0.94470  0.71060  Biso   1.000  C
  C88      1.0000 0.69670  0.09810  0.84920  Biso   1.000  C
  N45      1.0000 0.85280  0.43180  0.36390  Biso   1.000  N
  C89      1.0000 0.83340  0.55530  0.21060  Biso   1.000  C
  C90      1.0000 0.80330  0.40190  0.34920  Biso   1.000  C
  N46      1.0000 0.35280  0.93180  0.86390  Biso   1.000  N
  C91      1.0000 0.33340  0.05530  0.71060  Biso   1.000  C
  C92      1.0000 0.30330  0.90190  0.84920  Biso   1.000  C
  N47      1.0000 0.85280  0.56820  0.63610  Biso   1.000  N
  C93      1.0000 0.83340  0.44470  0.78940  Biso   1.000  C
  C94      1.0000 0.80330  0.59810  0.65080  Biso   1.000  C
  N48      1.0000 0.35280  0.06820  0.13610  Biso   1.000  N
  C95      1.0000 0.33340  0.94470  0.28940  Biso   1.000  C
  C96      1.0000 0.30330  0.09810  0.15080  Biso   1.000  C
  N49      1.0000 0.63610  0.56820  0.85280  Biso   1.000  N
  C97      1.0000 0.78940  0.44470  0.83340  Biso   1.000  C
  C98      1.0000 0.65080  0.59810  0.80330  Biso   1.000  C
  N50      1.0000 0.13610  0.06820  0.35280  Biso   1.000  N
  C99      1.0000 0.28940  0.94470  0.33340  Biso   1.000  C
  C100     1.0000 0.15080  0.09810  0.30330  Biso   1.000  C
  N51      1.0000 0.36390  0.43180  0.85280  Biso   1.000  N
  C101     1.0000 0.21060  0.55530  0.83340  Biso   1.000  C
  C102     1.0000 0.34920  0.40190  0.80330  Biso   1.000  C
  N52      1.0000 0.86390  0.93180  0.35280  Biso   1.000  N
  C103     1.0000 0.71060  0.05530  0.33340  Biso   1.000  C
  C104     1.0000 0.84920  0.90190  0.30330  Biso   1.000  C
  N53      1.0000 0.36390  0.56820  0.14720  Biso   1.000  N
  C105     1.0000 0.21060  0.44470  0.16660  Biso   1.000  C
  C106     1.0000 0.34920  0.59810  0.19670  Biso   1.000  C
  N54      1.0000 0.86390  0.06820  0.64720  Biso   1.000  N
  C107     1.0000 0.71060  0.94470  0.66660  Biso   1.000  C
  C108     1.0000 0.84920  0.09810  0.69670  Biso   1.000  C
  N55      1.0000 0.63610  0.43180  0.14720  Biso   1.000  N
  C109     1.0000 0.78940  0.55530  0.16660  Biso   1.000  C
  C110     1.0000 0.65080  0.40190  0.19670  Biso   1.000  C
  N56      1.0000 0.13610  0.93180  0.64720  Biso   1.000  N
  C111     1.0000 0.28940  0.05530  0.66660  Biso   1.000  C
  C112     1.0000 0.15080  0.90190  0.69670  Biso   1.000  C
  N57      1.0000 0.85280  0.63610  0.56820  Biso   1.000  N
  C113     1.0000 0.83340  0.78940  0.44470  Biso   1.000  C
  C114     1.0000 0.80330  0.65080  0.59810  Biso   1.000  C
  N58      1.0000 0.35280  0.13610  0.06820  Biso   1.000  N
  C115     1.0000 0.33340  0.28940  0.94470  Biso   1.000  C
  C116     1.0000 0.30330  0.15080  0.09810  Biso   1.000  C
  N59      1.0000 0.85280  0.36390  0.43180  Biso   1.000  N
  C117     1.0000 0.83340  0.21060  0.55530  Biso   1.000  C
  C118     1.0000 0.80330  0.34920  0.40190  Biso   1.000  C
  N60      1.0000 0.35280  0.86390  0.93180  Biso   1.000  N
  C119     1.0000 0.33340  0.71060  0.05530  Biso   1.000  C
  C120     1.0000 0.30330  0.84920  0.90190  Biso   1.000  C
  N61      1.0000 0.14720  0.36390  0.56820  Biso   1.000  N
  C121     1.0000 0.16660  0.21060  0.44470  Biso   1.000  C
  C122     1.0000 0.19670  0.34920  0.59810  Biso   1.000  C
  N62      1.0000 0.64720  0.86390  0.06820  Biso   1.000  N
  C123     1.0000 0.66660  0.71060  0.94470  Biso   1.000  C
  C124     1.0000 0.69670  0.84920  0.09810  Biso   1.000  C
  N63      1.0000 0.14720  0.63610  0.43180  Biso   1.000  N
  C125     1.0000 0.16660  0.78940  0.55530  Biso   1.000  C
  C126     1.0000 0.19670  0.65080  0.40190  Biso   1.000  C
  N64      1.0000 0.64720  0.13610  0.93180  Biso   1.000  N
  C127     1.0000 0.66660  0.28940  0.05530  Biso   1.000  C
  C128     1.0000 0.69670  0.15080  0.90190  Biso   1.000  C
  N65      1.0000 0.56820  0.85280  0.63610  Biso   1.000  N
  C129     1.0000 0.44470  0.83340  0.78940  Biso   1.000  C
  C130     1.0000 0.59810  0.80330  0.65080  Biso   1.000  C
  N66      1.0000 0.06820  0.35280  0.13610  Biso   1.000  N
  C131     1.0000 0.94470  0.33340  0.28940  Biso   1.000  C
  C132     1.0000 0.09810  0.30330  0.15080  Biso   1.000  C
  N67      1.0000 0.43180  0.85280  0.36390  Biso   1.000  N
  C133     1.0000 0.55530  0.83340  0.21060  Biso   1.000  C
  C134     1.0000 0.40190  0.80330  0.34920  Biso   1.000  C
  N68      1.0000 0.93180  0.35280  0.86390  Biso   1.000  N
  C135     1.0000 0.05530  0.33340  0.71060  Biso   1.000  C
  C136     1.0000 0.90190  0.30330  0.84920  Biso   1.000  C
  N69      1.0000 0.56820  0.14720  0.36390  Biso   1.000  N
  C137     1.0000 0.44470  0.16660  0.21060  Biso   1.000  C
  C138     1.0000 0.59810  0.19670  0.34920  Biso   1.000  C
  N70      1.0000 0.06820  0.64720  0.86390  Biso   1.000  N
  C139     1.0000 0.94470  0.66660  0.71060  Biso   1.000  C
  C140     1.0000 0.09810  0.69670  0.84920  Biso   1.000  C
  N71      1.0000 0.43180  0.14720  0.63610  Biso   1.000  N
  C141     1.0000 0.55530  0.16660  0.78940  Biso   1.000  C
  C142     1.0000 0.40190  0.19670  0.65080  Biso   1.000  C
  N72      1.0000 0.93180  0.64720  0.13610  Biso   1.000  N
  C143     1.0000 0.05530  0.66660  0.28940  Biso   1.000  C
  C144     1.0000 0.90190  0.69670  0.15080  Biso   1.000  C
  N73      1.0000 0.56820  0.63610  0.14720  Biso   1.000  N
  C145     1.0000 0.44470  0.78940  0.16660  Biso   1.000  C
  C146     1.0000 0.59810  0.65080  0.19670  Biso   1.000  C
  N74      1.0000 0.06820  0.13610  0.64720  Biso   1.000  N
  C147     1.0000 0.94470  0.28940  0.66660  Biso   1.000  C
  C148     1.0000 0.09810  0.15080  0.69670  Biso   1.000  C
  N75      1.0000 0.43180  0.36390  0.14720  Biso   1.000  N
  C149     1.0000 0.55530  0.21060  0.16660  Biso   1.000  C
  C150     1.0000 0.40190  0.34920  0.19670  Biso   1.000  C
  N76      1.0000 0.93180  0.86390  0.64720  Biso   1.000  N
  C151     1.0000 0.05530  0.71060  0.66660  Biso   1.000  C
  C152     1.0000 0.90190  0.84920  0.69670  Biso   1.000  C
  N77      1.0000 0.56820  0.36390  0.85280  Biso   1.000  N
  C153     1.0000 0.44470  0.21060  0.83340  Biso   1.000  C
  C154     1.0000 0.59810  0.34920  0.80330  Biso   1.000  C
  N78      1.0000 0.06820  0.86390  0.35280  Biso   1.000  N
  C155     1.0000 0.94470  0.71060  0.33340  Biso   1.000  C
  C156     1.0000 0.09810  0.84920  0.30330  Biso   1.000  C
  N79      1.0000 0.43180  0.63610  0.85280  Biso   1.000  N
  C157     1.0000 0.55530  0.78940  0.83340  Biso   1.000  C
  C158     1.0000 0.40190  0.65080  0.80330  Biso   1.000  C
  N80      1.0000 0.93180  0.13610  0.35280  Biso   1.000  N
  C159     1.0000 0.05530  0.28940  0.33340  Biso   1.000  C
  C160     1.0000 0.90190  0.15080  0.30330  Biso   1.000  C
  N81      1.0000 0.63610  0.85280  0.43180  Biso   1.000  N
  C161     1.0000 0.78940  0.83340  0.55530  Biso   1.000  C
  C162     1.0000 0.65080  0.80330  0.40190  Biso   1.000  C
  N82      1.0000 0.13610  0.35280  0.93180  Biso   1.000  N
  C163     1.0000 0.28940  0.33340  0.05530  Biso   1.000  C
  C164     1.0000 0.15080  0.30330  0.90190  Biso   1.000  C
  N83      1.0000 0.36390  0.85280  0.56820  Biso   1.000  N
  C165     1.0000 0.21060  0.83340  0.44470  Biso   1.000  C
  C166     1.0000 0.34920  0.80330  0.59810  Biso   1.000  C
  N84      1.0000 0.86390  0.35280  0.06820  Biso   1.000  N
  C167     1.0000 0.71060  0.33340  0.94470  Biso   1.000  C
  C168     1.0000 0.84920  0.30330  0.09810  Biso   1.000  C
  N85      1.0000 0.36390  0.14720  0.43180  Biso   1.000  N
  C169     1.0000 0.21060  0.16660  0.55530  Biso   1.000  C
  C170     1.0000 0.34920  0.19670  0.40190  Biso   1.000  C
  N86      1.0000 0.86390  0.64720  0.93180  Biso   1.000  N
  C171     1.0000 0.71060  0.66660  0.05530  Biso   1.000  C
  C172     1.0000 0.84920  0.69670  0.90190  Biso   1.000  C
  N87      1.0000 0.63610  0.14720  0.56820  Biso   1.000  N
  C173     1.0000 0.78940  0.16660  0.44470  Biso   1.000  C
  C174     1.0000 0.65080  0.19670  0.59810  Biso   1.000  C
  N88      1.0000 0.13610  0.64720  0.06820  Biso   1.000  N
  C175     1.0000 0.28940  0.66660  0.94470  Biso   1.000  C
  C176     1.0000 0.15080  0.69670  0.09810  Biso   1.000  C
  N89      1.0000 0.85280  0.56820  0.36390  Biso   1.000  N
  C177     1.0000 0.83340  0.44470  0.21060  Biso   1.000  C
  C178     1.0000 0.80330  0.59810  0.34920  Biso   1.000  C
  N90      1.0000 0.35280  0.06820  0.86390  Biso   1.000  N
  C179     1.0000 0.33340  0.94470  0.71060  Biso   1.000  C
  C180     1.0000 0.30330  0.09810  0.84920  Biso   1.000  C
  N91      1.0000 0.85280  0.43180  0.63610  Biso   1.000  N
  C181     1.0000 0.83340  0.55530  0.78940  Biso   1.000  C
  C182     1.0000 0.80330  0.40190  0.65080  Biso   1.000  C
  N92      1.0000 0.35280  0.93180  0.13610  Biso   1.000  N
  C183     1.0000 0.33340  0.05530  0.28940  Biso   1.000  C
  C184     1.0000 0.30330  0.90190  0.15080  Biso   1.000  C
  N93      1.0000 0.14720  0.56820  0.63610  Biso   1.000  N
  C185     1.0000 0.16660  0.44470  0.78940  Biso   1.000  C
  C186     1.0000 0.19670  0.59810  0.65080  Biso   1.000  C
  N94      1.0000 0.64720  0.06820  0.13610  Biso   1.000  N
  C187     1.0000 0.66660  0.94470  0.28940  Biso   1.000  C
  C188     1.0000 0.69670  0.09810  0.15080  Biso   1.000  C
  N95      1.0000 0.14720  0.43180  0.36390  Biso   1.000  N
  C189     1.0000 0.16660  0.55530  0.21060  Biso   1.000  C
  C190     1.0000 0.19670  0.40190  0.34920  Biso   1.000  C
  N96      1.0000 0.64720  0.93180  0.86390  Biso   1.000  N
  C191     1.0000 0.66660  0.05530  0.71060  Biso   1.000  C
  C192     1.0000 0.69670  0.90190  0.84920  Biso   1.000  C
  Mo1      1.0000 0.25000  0.50000  0.00000  Biso   1.000  Mo
  Mo2      1.0000 0.75000  0.50000  0.00000  Biso   1.000  Mo
  Mo3      1.0000 0.00000  0.25000  0.50000  Biso   1.000  Mo
  Mo4      1.0000 0.00000  0.75000  0.50000  Biso   1.000  Mo
  Mo5      1.0000 0.50000  0.25000  0.00000  Biso   1.000  Mo
  Mo6      1.0000 0.50000  0.00000  0.25000  Biso   1.000  Mo
  Mo7      1.0000 0.50000  0.00000  0.75000  Biso   1.000  Mo
  Mo8      1.0000 0.50000  0.75000  0.00000  Biso   1.000  Mo
  Mo9      1.0000 0.25000  0.00000  0.50000  Biso   1.000  Mo
  Mo10     1.0000 0.75000  0.00000  0.50000  Biso   1.000  Mo
  Mo11     1.0000 0.00000  0.50000  0.75000  Biso   1.000  Mo
  Mo12     1.0000 0.00000  0.50000  0.25000  Biso   1.000  Mo
  Zn1      1.0000 0.31945  0.50000  0.13771  Biso   1.000  Zn
  N97      1.0000 0.24990  0.50000  0.18470  Biso   1.000  N
  O1       1.0000 0.29230  0.50000  0.05910  Biso   1.000  O
  Zn2      1.0000 0.81945  0.00000  0.63771  Biso   1.000  Zn
  N98      1.0000 0.74990  0.00000  0.68470  Biso   1.000  N
  O2       1.0000 0.79230  0.00000  0.55910  Biso   1.000  O
  Zn3      1.0000 0.68055  0.50000  0.13771  Biso   1.000  Zn
  N99      1.0000 0.75010  0.50000  0.18470  Biso   1.000  N
  O3       1.0000 0.70770  0.50000  0.05910  Biso   1.000  O
  Zn4      1.0000 0.18055  0.00000  0.63771  Biso   1.000  Zn
  N100     1.0000 0.25010  0.00000  0.68470  Biso   1.000  N
  O4       1.0000 0.20770  0.00000  0.55910  Biso   1.000  O
  Zn5      1.0000 0.68055  0.50000  0.86229  Biso   1.000  Zn
  N101     1.0000 0.75010  0.50000  0.81530  Biso   1.000  N
  O5       1.0000 0.70770  0.50000  0.94090  Biso   1.000  O
  Zn6      1.0000 0.18055  0.00000  0.36229  Biso   1.000  Zn
  N102     1.0000 0.25010  0.00000  0.31530  Biso   1.000  N
  O6       1.0000 0.20770  0.00000  0.44090  Biso   1.000  O
  Zn7      1.0000 0.31945  0.50000  0.86229  Biso   1.000  Zn
  N103     1.0000 0.24990  0.50000  0.81530  Biso   1.000  N
  O7       1.0000 0.29230  0.50000  0.94090  Biso   1.000  O
  Zn8      1.0000 0.81945  0.00000  0.36229  Biso   1.000  Zn
  N104     1.0000 0.74990  0.00000  0.31530  Biso   1.000  N
  O8       1.0000 0.79230  0.00000  0.44090  Biso   1.000  O
  Zn9      1.0000 0.13771  0.31945  0.50000  Biso   1.000  Zn
  N105     1.0000 0.18470  0.24990  0.50000  Biso   1.000  N
  O9       1.0000 0.05910  0.29230  0.50000  Biso   1.000  O
  Zn10     1.0000 0.63771  0.81945  0.00000  Biso   1.000  Zn
  N106     1.0000 0.68470  0.74990  0.00000  Biso   1.000  N
  O10      1.0000 0.55910  0.79230  0.00000  Biso   1.000  O
  Zn11     1.0000 0.13771  0.68055  0.50000  Biso   1.000  Zn
  N107     1.0000 0.18470  0.75010  0.50000  Biso   1.000  N
  O11      1.0000 0.05910  0.70770  0.50000  Biso   1.000  O
  Zn12     1.0000 0.63771  0.18055  0.00000  Biso   1.000  Zn
  N108     1.0000 0.68470  0.25010  0.00000  Biso   1.000  N
  O12      1.0000 0.55910  0.20770  0.00000  Biso   1.000  O
  Zn13     1.0000 0.86229  0.68055  0.50000  Biso   1.000  Zn
  N109     1.0000 0.81530  0.75010  0.50000  Biso   1.000  N
  O13      1.0000 0.94090  0.70770  0.50000  Biso   1.000  O
  Zn14     1.0000 0.36229  0.18055  0.00000  Biso   1.000  Zn
  N110     1.0000 0.31530  0.25010  0.00000  Biso   1.000  N
  O14      1.0000 0.44090  0.20770  0.00000  Biso   1.000  O
  Zn15     1.0000 0.86229  0.31945  0.50000  Biso   1.000  Zn
  N111     1.0000 0.81530  0.24990  0.50000  Biso   1.000  N
  O15      1.0000 0.94090  0.29230  0.50000  Biso   1.000  O
  Zn16     1.0000 0.36229  0.81945  0.00000  Biso   1.000  Zn
  N112     1.0000 0.31530  0.74990  0.00000  Biso   1.000  N
  O16      1.0000 0.44090  0.79230  0.00000  Biso   1.000  O
  Zn17     1.0000 0.50000  0.13771  0.31945  Biso   1.000  Zn
  N113     1.0000 0.50000  0.18470  0.24990  Biso   1.000  N
  O17      1.0000 0.50000  0.05910  0.29230  Biso   1.000  O
  Zn18     1.0000 0.00000  0.63771  0.81945  Biso   1.000  Zn
  N114     1.0000 0.00000  0.68470  0.74990  Biso   1.000  N
  O18      1.0000 0.00000  0.55910  0.79230  Biso   1.000  O
  Zn19     1.0000 0.50000  0.13771  0.68055  Biso   1.000  Zn
  N115     1.0000 0.50000  0.18470  0.75010  Biso   1.000  N
  O19      1.0000 0.50000  0.05910  0.70770  Biso   1.000  O
  Zn20     1.0000 0.00000  0.63771  0.18055  Biso   1.000  Zn
  N116     1.0000 0.00000  0.68470  0.25010  Biso   1.000  N
  O20      1.0000 0.00000  0.55910  0.20770  Biso   1.000  O
  Zn21     1.0000 0.50000  0.86229  0.68055  Biso   1.000  Zn
  N117     1.0000 0.50000  0.81530  0.75010  Biso   1.000  N
  O21      1.0000 0.50000  0.94090  0.70770  Biso   1.000  O
  Zn22     1.0000 0.00000  0.36229  0.18055  Biso   1.000  Zn
  N118     1.0000 0.00000  0.31530  0.25010  Biso   1.000  N
  O22      1.0000 0.00000  0.44090  0.20770  Biso   1.000  O
  Zn23     1.0000 0.50000  0.86229  0.31945  Biso   1.000  Zn
  N119     1.0000 0.50000  0.81530  0.24990  Biso   1.000  N
  O23      1.0000 0.50000  0.94090  0.29230  Biso   1.000  O
  Zn24     1.0000 0.00000  0.36229  0.81945  Biso   1.000  Zn
  N120     1.0000 0.00000  0.31530  0.74990  Biso   1.000  N
  O24      1.0000 0.00000  0.44090  0.79230  Biso   1.000  O
  Zn25     1.0000 0.50000  0.31945  0.86229  Biso   1.000  Zn
  N121     1.0000 0.50000  0.24990  0.81530  Biso   1.000  N
  O25      1.0000 0.50000  0.29230  0.94090  Biso   1.000  O
  Zn26     1.0000 0.00000  0.81945  0.36229  Biso   1.000  Zn
  N122     1.0000 0.00000  0.74990  0.31530  Biso   1.000  N
  O26      1.0000 0.00000  0.79230  0.44090  Biso   1.000  O
  Zn27     1.0000 0.50000  0.68055  0.86229  Biso   1.000  Zn
  N123     1.0000 0.50000  0.75010  0.81530  Biso   1.000  N
  O27      1.0000 0.50000  0.70770  0.94090  Biso   1.000  O
  Zn28     1.0000 0.00000  0.18055  0.36229  Biso   1.000  Zn
  N124     1.0000 0.00000  0.25010  0.31530  Biso   1.000  N
  O28      1.0000 0.00000  0.20770  0.44090  Biso   1.000  O
  Zn29     1.0000 0.50000  0.68055  0.13771  Biso   1.000  Zn
  N125     1.0000 0.50000  0.75010  0.18470  Biso   1.000  N
  O29      1.0000 0.50000  0.70770  0.05910  Biso   1.000  O
  Zn30     1.0000 0.00000  0.18055  0.63771  Biso   1.000  Zn
  N126     1.0000 0.00000  0.25010  0.68470  Biso   1.000  N
  O30      1.0000 0.00000  0.20770  0.55910  Biso   1.000  O
  Zn31     1.0000 0.50000  0.31945  0.13771  Biso   1.000  Zn
  N127     1.0000 0.50000  0.24990  0.18470  Biso   1.000  N
  O31      1.0000 0.50000  0.29230  0.05910  Biso   1.000  O
  Zn32     1.0000 0.00000  0.81945  0.63771  Biso   1.000  Zn
  N128     1.0000 0.00000  0.74990  0.68470  Biso   1.000  N
  O32      1.0000 0.00000  0.79230  0.55910  Biso   1.000  O
  Zn33     1.0000 0.31945  0.13771  0.50000  Biso   1.000  Zn
  N129     1.0000 0.24990  0.18470  0.50000  Biso   1.000  N
  O33      1.0000 0.29230  0.05910  0.50000  Biso   1.000  O
  Zn34     1.0000 0.81945  0.63771  0.00000  Biso   1.000  Zn
  N130     1.0000 0.74990  0.68470  0.00000  Biso   1.000  N
  O34      1.0000 0.79230  0.55910  0.00000  Biso   1.000  O
  Zn35     1.0000 0.68055  0.13771  0.50000  Biso   1.000  Zn
  N131     1.0000 0.75010  0.18470  0.50000  Biso   1.000  N
  O35      1.0000 0.70770  0.05910  0.50000  Biso   1.000  O
  Zn36     1.0000 0.18055  0.63771  0.00000  Biso   1.000  Zn
  N132     1.0000 0.25010  0.68470  0.00000  Biso   1.000  N
  O36      1.0000 0.20770  0.55910  0.00000  Biso   1.000  O
  Zn37     1.0000 0.68055  0.86229  0.50000  Biso   1.000  Zn
  N133     1.0000 0.75010  0.81530  0.50000  Biso   1.000  N
  O37      1.0000 0.70770  0.94090  0.50000  Biso   1.000  O
  Zn38     1.0000 0.18055  0.36229  0.00000  Biso   1.000  Zn
  N134     1.0000 0.25010  0.31530  0.00000  Biso   1.000  N
  O38      1.0000 0.20770  0.44090  0.00000  Biso   1.000  O
  Zn39     1.0000 0.31945  0.86229  0.50000  Biso   1.000  Zn
  N135     1.0000 0.24990  0.81530  0.50000  Biso   1.000  N
  O39      1.0000 0.29230  0.94090  0.50000  Biso   1.000  O
  Zn40     1.0000 0.81945  0.36229  0.00000  Biso   1.000  Zn
  N136     1.0000 0.74990  0.31530  0.00000  Biso   1.000  N
  O40      1.0000 0.79230  0.44090  0.00000  Biso   1.000  O
  Zn41     1.0000 0.13771  0.50000  0.68055  Biso   1.000  Zn
  N137     1.0000 0.18470  0.50000  0.75010  Biso   1.000  N
  O41      1.0000 0.05910  0.50000  0.70770  Biso   1.000  O
  Zn42     1.0000 0.63771  0.00000  0.18055  Biso   1.000  Zn
  N138     1.0000 0.68470  0.00000  0.25010  Biso   1.000  N
  O42      1.0000 0.55910  0.00000  0.20770  Biso   1.000  O
  Zn43     1.0000 0.13771  0.50000  0.31945  Biso   1.000  Zn
  N139     1.0000 0.18470  0.50000  0.24990  Biso   1.000  N
  O43      1.0000 0.05910  0.50000  0.29230  Biso   1.000  O
  Zn44     1.0000 0.63771  0.00000  0.81945  Biso   1.000  Zn
  N140     1.0000 0.68470  0.00000  0.74990  Biso   1.000  N
  O44      1.0000 0.55910  0.00000  0.79230  Biso   1.000  O
  Zn45     1.0000 0.86229  0.50000  0.31945  Biso   1.000  Zn
  N141     1.0000 0.81530  0.50000  0.24990  Biso   1.000  N
  O45      1.0000 0.94090  0.50000  0.29230  Biso   1.000  O
  Zn46     1.0000 0.36229  0.00000  0.81945  Biso   1.000  Zn
  N142     1.0000 0.31530  0.00000  0.74990  Biso   1.000  N
  O46      1.0000 0.44090  0.00000  0.79230  Biso   1.000  O
  Zn47     1.0000 0.86229  0.50000  0.68055  Biso   1.000  Zn
  N143     1.0000 0.81530  0.50000  0.75010  Biso   1.000  N
  O47      1.0000 0.94090  0.50000  0.70770  Biso   1.000  O
  Zn48     1.0000 0.36229  0.00000  0.18055  Biso   1.000  Zn
  N144     1.0000 0.31530  0.00000  0.25010  Biso   1.000  N
  O48      1.0000 0.44090  0.00000  0.20770  Biso   1.000  O
  C193     1.0000 0.22560  0.50000  0.22560  Biso   1.000  C
  C194     1.0000 0.72560  0.00000  0.72560  Biso   1.000  C
  C195     1.0000 0.77440  0.50000  0.22560  Biso   1.000  C
  C196     1.0000 0.27440  0.00000  0.72560  Biso   1.000  C
  C197     1.0000 0.77440  0.50000  0.77440  Biso   1.000  C
  C198     1.0000 0.27440  0.00000  0.27440  Biso   1.000  C
  C199     1.0000 0.22560  0.50000  0.77440  Biso   1.000  C
  C200     1.0000 0.72560  0.00000  0.27440  Biso   1.000  C
  C201     1.0000 0.22560  0.22560  0.50000  Biso   1.000  C
  C202     1.0000 0.72560  0.72560  0.00000  Biso   1.000  C
  C203     1.0000 0.22560  0.77440  0.50000  Biso   1.000  C
  C204     1.0000 0.72560  0.27440  0.00000  Biso   1.000  C
  C205     1.0000 0.77440  0.77440  0.50000  Biso   1.000  C
  C206     1.0000 0.27440  0.27440  0.00000  Biso   1.000  C
  C207     1.0000 0.77440  0.22560  0.50000  Biso   1.000  C
  C208     1.0000 0.27440  0.72560  0.00000  Biso   1.000  C
  C209     1.0000 0.50000  0.22560  0.22560  Biso   1.000  C
  C210     1.0000 0.00000  0.72560  0.72560  Biso   1.000  C
  C211     1.0000 0.50000  0.22560  0.77440  Biso   1.000  C
  C212     1.0000 0.00000  0.72560  0.27440  Biso   1.000  C
  C213     1.0000 0.50000  0.77440  0.77440  Biso   1.000  C
  C214     1.0000 0.00000  0.27440  0.27440  Biso   1.000  C
  C215     1.0000 0.50000  0.77440  0.22560  Biso   1.000  C
  C216     1.0000 0.00000  0.27440  0.72560  Biso   1.000  C
  C217     1.0000 0.40570  0.40570  0.13440  Biso   1.000  C
  C218     1.0000 0.90570  0.90570  0.63440  Biso   1.000  C
  C219     1.0000 0.59430  0.59430  0.13440  Biso   1.000  C
  C220     1.0000 0.09430  0.09430  0.63440  Biso   1.000  C
  C221     1.0000 0.59430  0.40570  0.86560  Biso   1.000  C
  C222     1.0000 0.09430  0.90570  0.36560  Biso   1.000  C
  C223     1.0000 0.40570  0.59430  0.86560  Biso   1.000  C
  C224     1.0000 0.90570  0.09430  0.36560  Biso   1.000  C
  C225     1.0000 0.13440  0.40570  0.40570  Biso   1.000  C
  C226     1.0000 0.63440  0.90570  0.90570  Biso   1.000  C
  C227     1.0000 0.13440  0.59430  0.59430  Biso   1.000  C
  C228     1.0000 0.63440  0.09430  0.09430  Biso   1.000  C
  C229     1.0000 0.86560  0.59430  0.40570  Biso   1.000  C
  C230     1.0000 0.36560  0.09430  0.90570  Biso   1.000  C
  C231     1.0000 0.86560  0.40570  0.59430  Biso   1.000  C
  C232     1.0000 0.36560  0.90570  0.09430  Biso   1.000  C
  C233     1.0000 0.40570  0.13440  0.40570  Biso   1.000  C
  C234     1.0000 0.90570  0.63440  0.90570  Biso   1.000  C
  C235     1.0000 0.59430  0.13440  0.59430  Biso   1.000  C
  C236     1.0000 0.09430  0.63440  0.09430  Biso   1.000  C
  C237     1.0000 0.40570  0.86560  0.59430  Biso   1.000  C
  C238     1.0000 0.90570  0.36560  0.09430  Biso   1.000  C
  C239     1.0000 0.59430  0.86560  0.40570  Biso   1.000  C
  C240     1.0000 0.09430  0.36560  0.90570  Biso   1.000  C
  C241     1.0000 0.40570  0.40570  0.86560  Biso   1.000  C
  C242     1.0000 0.90570  0.90570  0.36560  Biso   1.000  C
  C243     1.0000 0.59430  0.59430  0.86560  Biso   1.000  C
  C244     1.0000 0.09430  0.09430  0.36560  Biso   1.000  C
  C245     1.0000 0.40570  0.59430  0.13440  Biso   1.000  C
  C246     1.0000 0.90570  0.09430  0.63440  Biso   1.000  C
  C247     1.0000 0.59430  0.40570  0.13440  Biso   1.000  C
  C248     1.0000 0.09430  0.90570  0.63440  Biso   1.000  C
  C249     1.0000 0.40570  0.13440  0.59430  Biso   1.000  C
  C250     1.0000 0.90570  0.63440  0.09430  Biso   1.000  C
  C251     1.0000 0.59430  0.13440  0.40570  Biso   1.000  C
  C252     1.0000 0.09430  0.63440  0.90570  Biso   1.000  C
  C253     1.0000 0.59430  0.86560  0.59430  Biso   1.000  C
  C254     1.0000 0.09430  0.36560  0.09430  Biso   1.000  C
  C255     1.0000 0.40570  0.86560  0.40570  Biso   1.000  C
  C256     1.0000 0.90570  0.36560  0.90570  Biso   1.000  C
  C257     1.0000 0.13440  0.40570  0.59430  Biso   1.000  C
  C258     1.0000 0.63440  0.90570  0.09430  Biso   1.000  C
  C259     1.0000 0.13440  0.59430  0.40570  Biso   1.000  C
  C260     1.0000 0.63440  0.09430  0.90570  Biso   1.000  C
  C261     1.0000 0.86560  0.40570  0.40570  Biso   1.000  C
  C262     1.0000 0.36560  0.90570  0.90570  Biso   1.000  C
  C263     1.0000 0.86560  0.59430  0.59430  Biso   1.000  C
  C264     1.0000 0.36560  0.09430  0.09430  Biso   1.000  C
