data_image0
_cell_length_a       11.9869
_cell_length_b       17.717
_cell_length_c       12.6414
_cell_angle_alpha    90
_cell_angle_beta     103.65
_cell_angle_gamma    90

_symmetry_space_group_name_H-M    "P 1"
_symmetry_int_tables_number       1

loop_
  _symmetry_equiv_pos_as_xyz
  'x, y, z'

loop_
  _atom_site_label
  _atom_site_occupancy
  _atom_site_fract_x
  _atom_site_fract_y
  _atom_site_fract_z
  _atom_site_thermal_displace_type
  _atom_site_B_iso_or_equiv
  _atom_site_type_symbol
  Cd1      1.0000 0.76625  0.43524  0.95578  Biso   1.000  Cd
  O1       1.0000 0.64350  0.52420  0.73660  Biso   1.000  O
  O2       1.0000 0.58910  0.43680  0.84020  Biso   1.000  O
  O3       1.0000 0.22500  0.94695  0.51640  Biso   1.000  O
  O4       1.0000 0.36720  0.95061  0.43410  Biso   1.000  O
  N1       1.0000 0.30580  0.54900  0.56450  Biso   1.000  N
  N2       1.0000 0.86350  0.36210  0.85790  Biso   1.000  N
  N3       1.0000 0.17490  0.14220  0.55790  Biso   1.000  N
  C1       1.0000 0.41650  0.53920  0.61670  Biso   1.000  C
  H1       1.0000 0.47430  0.55750  0.58580  Biso   1.000  H
  C2       1.0000 0.44500  0.50260  0.71490  Biso   1.000  C
  C3       1.0000 0.35810  0.47950  0.76340  Biso   1.000  C
  H2       1.0000 0.37600  0.45500  0.83030  Biso   1.000  H
  C4       1.0000 0.24480  0.49320  0.71180  Biso   1.000  C
  H3       1.0000 0.18610  0.48020  0.74500  Biso   1.000  H
  C5       1.0000 0.22060  0.52610  0.61100  Biso   1.000  C
  H4       1.0000 0.14450  0.53290  0.57390  Biso   1.000  H
  C6       1.0000 0.57120  0.48780  0.76630  Biso   1.000  C
  C7       1.0000 0.27720  0.58670  0.45690  Biso   1.000  C
  H5       1.0000 0.19910  0.57420  0.41950  Biso   1.000  H
  H6       1.0000 0.32790  0.56830  0.41310  Biso   1.000  H
  C8       1.0000 0.28920  0.67240  0.46840  Biso   1.000  C
  C9       1.0000 0.23980  0.71190  0.53870  Biso   1.000  C
  H7       1.0000 0.20230  0.68590  0.58410  Biso   1.000  H
  C10      1.0000 0.24510  0.78950  0.54320  Biso   1.000  C
  H8       1.0000 0.21050  0.81550  0.59090  Biso   1.000  H
  C11      1.0000 0.30130  0.82870  0.47720  Biso   1.000  C
  C12      1.0000 0.35080  0.79020  0.40680  Biso   1.000  C
  H9       1.0000 0.38830  0.81640  0.36160  Biso   1.000  H
  C13      1.0000 0.34560  0.71120  0.40210  Biso   1.000  C
  H10      1.0000 0.38010  0.68510  0.35450  Biso   1.000  H
  C14      1.0000 0.29770  0.91420  0.47620  Biso   1.000  C
  C15      1.0000 0.85850  0.28610  0.85750  Biso   1.000  C
  H11      1.0000 0.81140  0.26270  0.89660  Biso   1.000  H
  C16      1.0000 0.91940  0.24120  0.80250  Biso   1.000  C
  H12      1.0000 0.91390  0.18890  0.80530  Biso   1.000  H
  C17      1.0000 0.98940  0.27510  0.74260  Biso   1.000  C
  C18      1.0000 0.99300  0.35300  0.74260  Biso   1.000  C
  H13      1.0000 0.03860  0.37780  0.70340  Biso   1.000  H
  C19      1.0000 0.93050  0.39390  0.79940  Biso   1.000  C
  H14      1.0000 0.93460  0.44630  0.79740  Biso   1.000  H
  C20      1.0000 0.06880  0.12390  0.56660  Biso   1.000  C
  H15      1.0000 0.03430  0.08140  0.52960  Biso   1.000  H
  C21      1.0000 0.00880  0.16390  0.62610  Biso   1.000  C
  H16      1.0000 0.93640  0.14740  0.63070  Biso   1.000  H
  C22      1.0000 0.05440  0.22920  0.68050  Biso   1.000  C
  C23      1.0000 0.16430  0.24880  0.67130  Biso   1.000  C
  H17      1.0000 0.19950  0.29190  0.70590  Biso   1.000  H
  C24      1.0000 0.22080  0.20480  0.61120  Biso   1.000  C
  H18      1.0000 0.29440  0.21890  0.60710  Biso   1.000  H
  Cd2      1.0000 0.26625  0.06476  0.45578  Biso   1.000  Cd
  O5       1.0000 0.14350  0.97580  0.23660  Biso   1.000  O
  O6       1.0000 0.08910  0.06320  0.34020  Biso   1.000  O
  O7       1.0000 0.72500  0.55305  0.01640  Biso   1.000  O
  O8       1.0000 0.86720  0.54939  0.93410  Biso   1.000  O
  N4       1.0000 0.80580  0.95100  0.06450  Biso   1.000  N
  N5       1.0000 0.36350  0.13790  0.35790  Biso   1.000  N
  N6       1.0000 0.67490  0.35780  0.05790  Biso   1.000  N
  C25      1.0000 0.91650  0.96080  0.11670  Biso   1.000  C
  H19      1.0000 0.97430  0.94250  0.08580  Biso   1.000  H
  C26      1.0000 0.94500  0.99740  0.21490  Biso   1.000  C
  C27      1.0000 0.85810  0.02050  0.26340  Biso   1.000  C
  H20      1.0000 0.87600  0.04500  0.33030  Biso   1.000  H
  C28      1.0000 0.74480  0.00680  0.21180  Biso   1.000  C
  H21      1.0000 0.68610  0.01980  0.24500  Biso   1.000  H
  C29      1.0000 0.72060  0.97390  0.11100  Biso   1.000  C
  H22      1.0000 0.64450  0.96710  0.07390  Biso   1.000  H
  C30      1.0000 0.07120  0.01220  0.26630  Biso   1.000  C
  C31      1.0000 0.77720  0.91330  0.95690  Biso   1.000  C
  H23      1.0000 0.69910  0.92580  0.91950  Biso   1.000  H
  H24      1.0000 0.82790  0.93170  0.91310  Biso   1.000  H
  C32      1.0000 0.78920  0.82760  0.96840  Biso   1.000  C
  C33      1.0000 0.73980  0.78810  0.03870  Biso   1.000  C
  H25      1.0000 0.70230  0.81410  0.08410  Biso   1.000  H
  C34      1.0000 0.74510  0.71050  0.04320  Biso   1.000  C
  H26      1.0000 0.71050  0.68450  0.09090  Biso   1.000  H
  C35      1.0000 0.80130  0.67130  0.97720  Biso   1.000  C
  C36      1.0000 0.85080  0.70980  0.90680  Biso   1.000  C
  H27      1.0000 0.88830  0.68360  0.86160  Biso   1.000  H
  C37      1.0000 0.84560  0.78880  0.90210  Biso   1.000  C
  H28      1.0000 0.88010  0.81490  0.85450  Biso   1.000  H
  C38      1.0000 0.79770  0.58580  0.97620  Biso   1.000  C
  C39      1.0000 0.35850  0.21390  0.35750  Biso   1.000  C
  H29      1.0000 0.31140  0.23730  0.39660  Biso   1.000  H
  C40      1.0000 0.41940  0.25880  0.30250  Biso   1.000  C
  H30      1.0000 0.41390  0.31110  0.30530  Biso   1.000  H
  C41      1.0000 0.48940  0.22490  0.24260  Biso   1.000  C
  C42      1.0000 0.49300  0.14700  0.24260  Biso   1.000  C
  H31      1.0000 0.53860  0.12220  0.20340  Biso   1.000  H
  C43      1.0000 0.43050  0.10610  0.29940  Biso   1.000  C
  H32      1.0000 0.43460  0.05370  0.29740  Biso   1.000  H
  C44      1.0000 0.56880  0.37610  0.06660  Biso   1.000  C
  H33      1.0000 0.53430  0.41860  0.02960  Biso   1.000  H
  C45      1.0000 0.50880  0.33610  0.12610  Biso   1.000  C
  H34      1.0000 0.43640  0.35260  0.13070  Biso   1.000  H
  C46      1.0000 0.55440  0.27080  0.18050  Biso   1.000  C
  C47      1.0000 0.66430  0.25120  0.17130  Biso   1.000  C
  H35      1.0000 0.69950  0.20810  0.20590  Biso   1.000  H
  C48      1.0000 0.72080  0.29520  0.11120  Biso   1.000  C
  H36      1.0000 0.79440  0.28110  0.10710  Biso   1.000  H
  Cd3      1.0000 0.73375  0.93524  0.54422  Biso   1.000  Cd
  O9       1.0000 0.85650  0.02420  0.76340  Biso   1.000  O
  O10      1.0000 0.91090  0.93680  0.65980  Biso   1.000  O
  O11      1.0000 0.27500  0.44695  0.98360  Biso   1.000  O
  O12      1.0000 0.13280  0.45061  0.06590  Biso   1.000  O
  N7       1.0000 0.19420  0.04900  0.93550  Biso   1.000  N
  N8       1.0000 0.63650  0.86210  0.64210  Biso   1.000  N
  N9       1.0000 0.32510  0.64220  0.94210  Biso   1.000  N
  C49      1.0000 0.08350  0.03920  0.88330  Biso   1.000  C
  H37      1.0000 0.02570  0.05750  0.91420  Biso   1.000  H
  C50      1.0000 0.05500  0.00260  0.78510  Biso   1.000  C
  C51      1.0000 0.14190  0.97950  0.73660  Biso   1.000  C
  H38      1.0000 0.12400  0.95500  0.66970  Biso   1.000  H
  C52      1.0000 0.25520  0.99320  0.78820  Biso   1.000  C
  H39      1.0000 0.31390  0.98020  0.75500  Biso   1.000  H
  C53      1.0000 0.27940  0.02610  0.88900  Biso   1.000  C
  H40      1.0000 0.35550  0.03290  0.92610  Biso   1.000  H
  C54      1.0000 0.92880  0.98780  0.73370  Biso   1.000  C
  C55      1.0000 0.22280  0.08670  0.04310  Biso   1.000  C
  H41      1.0000 0.30090  0.07420  0.08050  Biso   1.000  H
  H42      1.0000 0.17210  0.06830  0.08690  Biso   1.000  H
  C56      1.0000 0.21080  0.17240  0.03160  Biso   1.000  C
  C57      1.0000 0.26020  0.21190  0.96130  Biso   1.000  C
  H43      1.0000 0.29770  0.18590  0.91590  Biso   1.000  H
  C58      1.0000 0.25490  0.28950  0.95680  Biso   1.000  C
  H44      1.0000 0.28950  0.31550  0.90910  Biso   1.000  H
  C59      1.0000 0.19870  0.32870  0.02280  Biso   1.000  C
  C60      1.0000 0.14920  0.29020  0.09320  Biso   1.000  C
  H45      1.0000 0.11170  0.31640  0.13840  Biso   1.000  H
  C61      1.0000 0.15440  0.21120  0.09790  Biso   1.000  C
  H46      1.0000 0.11990  0.18510  0.14550  Biso   1.000  H
  C62      1.0000 0.20230  0.41420  0.02380  Biso   1.000  C
  C63      1.0000 0.64150  0.78610  0.64250  Biso   1.000  C
  H47      1.0000 0.68860  0.76270  0.60340  Biso   1.000  H
  C64      1.0000 0.58060  0.74120  0.69750  Biso   1.000  C
  H48      1.0000 0.58610  0.68890  0.69470  Biso   1.000  H
  C65      1.0000 0.51060  0.77510  0.75740  Biso   1.000  C
  C66      1.0000 0.50700  0.85300  0.75740  Biso   1.000  C
  H49      1.0000 0.46140  0.87780  0.79660  Biso   1.000  H
  C67      1.0000 0.56950  0.89390  0.70060  Biso   1.000  C
  H50      1.0000 0.56540  0.94630  0.70260  Biso   1.000  H
  C68      1.0000 0.43120  0.62390  0.93340  Biso   1.000  C
  H51      1.0000 0.46570  0.58140  0.97040  Biso   1.000  H
  C69      1.0000 0.49120  0.66390  0.87390  Biso   1.000  C
  H52      1.0000 0.56360  0.64740  0.86930  Biso   1.000  H
  C70      1.0000 0.44560  0.72920  0.81950  Biso   1.000  C
  C71      1.0000 0.33570  0.74880  0.82870  Biso   1.000  C
  H53      1.0000 0.30050  0.79190  0.79410  Biso   1.000  H
  C72      1.0000 0.27920  0.70480  0.88880  Biso   1.000  C
  H54      1.0000 0.20560  0.71890  0.89290  Biso   1.000  H
  Cd4      1.0000 0.23375  0.56476  0.04422  Biso   1.000  Cd
  O13      1.0000 0.35650  0.47580  0.26340  Biso   1.000  O
  O14      1.0000 0.41090  0.56320  0.15980  Biso   1.000  O
  O15      1.0000 0.77500  0.05305  0.48360  Biso   1.000  O
  O16      1.0000 0.63280  0.04939  0.56590  Biso   1.000  O
  N10      1.0000 0.69420  0.45100  0.43550  Biso   1.000  N
  N11      1.0000 0.13650  0.63790  0.14210  Biso   1.000  N
  N12      1.0000 0.82510  0.85780  0.44210  Biso   1.000  N
  C73      1.0000 0.58350  0.46080  0.38330  Biso   1.000  C
  H55      1.0000 0.52570  0.44250  0.41420  Biso   1.000  H
  C74      1.0000 0.55500  0.49740  0.28510  Biso   1.000  C
  C75      1.0000 0.64190  0.52050  0.23660  Biso   1.000  C
  H56      1.0000 0.62400  0.54500  0.16970  Biso   1.000  H
  C76      1.0000 0.75520  0.50680  0.28820  Biso   1.000  C
  H57      1.0000 0.81390  0.51980  0.25500  Biso   1.000  H
  C77      1.0000 0.77940  0.47390  0.38900  Biso   1.000  C
  H58      1.0000 0.85550  0.46710  0.42610  Biso   1.000  H
  C78      1.0000 0.42880  0.51220  0.23370  Biso   1.000  C
  C79      1.0000 0.72280  0.41330  0.54310  Biso   1.000  C
  H59      1.0000 0.80090  0.42580  0.58050  Biso   1.000  H
  H60      1.0000 0.67210  0.43170  0.58690  Biso   1.000  H
  C80      1.0000 0.71080  0.32760  0.53160  Biso   1.000  C
  C81      1.0000 0.76020  0.28810  0.46130  Biso   1.000  C
  H61      1.0000 0.79770  0.31410  0.41590  Biso   1.000  H
  C82      1.0000 0.75490  0.21050  0.45680  Biso   1.000  C
  H62      1.0000 0.78950  0.18450  0.40910  Biso   1.000  H
  C83      1.0000 0.69870  0.17130  0.52280  Biso   1.000  C
  C84      1.0000 0.64920  0.20980  0.59320  Biso   1.000  C
  H63      1.0000 0.61170  0.18360  0.63840  Biso   1.000  H
  C85      1.0000 0.65440  0.28880  0.59790  Biso   1.000  C
  H64      1.0000 0.61990  0.31490  0.64550  Biso   1.000  H
  C86      1.0000 0.70230  0.08580  0.52380  Biso   1.000  C
  C87      1.0000 0.14150  0.71390  0.14250  Biso   1.000  C
  H65      1.0000 0.18860  0.73730  0.10340  Biso   1.000  H
  C88      1.0000 0.08060  0.75880  0.19750  Biso   1.000  C
  H66      1.0000 0.08610  0.81110  0.19470  Biso   1.000  H
  C89      1.0000 0.01060  0.72490  0.25740  Biso   1.000  C
  C90      1.0000 0.00700  0.64700  0.25740  Biso   1.000  C
  H67      1.0000 0.96140  0.62220  0.29660  Biso   1.000  H
  C91      1.0000 0.06950  0.60610  0.20060  Biso   1.000  C
  H68      1.0000 0.06540  0.55370  0.20260  Biso   1.000  H
  C92      1.0000 0.93120  0.87610  0.43340  Biso   1.000  C
  H69      1.0000 0.96570  0.91860  0.47040  Biso   1.000  H
  C93      1.0000 0.99120  0.83610  0.37390  Biso   1.000  C
  H70      1.0000 0.06360  0.85260  0.36930  Biso   1.000  H
  C94      1.0000 0.94560  0.77080  0.31950  Biso   1.000  C
  C95      1.0000 0.83570  0.75120  0.32870  Biso   1.000  C
  H71      1.0000 0.80050  0.70810  0.29410  Biso   1.000  H
  C96      1.0000 0.77920  0.79520  0.38880  Biso   1.000  C
  H72      1.0000 0.70560  0.78110  0.39290  Biso   1.000  H
