data_ALIXOJ_clean
_audit_creation_date              2014-07-02
_audit_creation_method            'Materials Studio'
_symmetry_space_group_name_H-M    'P1'
_symmetry_Int_Tables_number       1
_symmetry_cell_setting            triclinic
loop_
_symmetry_equiv_pos_as_xyz
  x,y,z
_cell_length_a                    10.2470
_cell_length_b                    15.2500
_cell_length_c                    20.9460
_cell_angle_alpha                 90.0000
_cell_angle_beta                  99.9100
_cell_angle_gamma                 90.0000
loop_
_atom_site_label
_atom_site_type_symbol
_atom_site_fract_x
_atom_site_fract_y
_atom_site_fract_z
_atom_site_U_iso_or_equiv
_atom_site_adp_type
_atom_site_occupancy
Ni1    Ni    0.74673   0.73819   0.66873   0.01267  Uiso   1.00
Ni2    Ni    0.79705   0.85709   0.81426   0.01267  Uiso   1.00
Ni3    Ni    0.25327   0.23819   0.83127   0.01267  Uiso   1.00
Ni4    Ni    0.20295   0.35709   0.68574   0.01267  Uiso   1.00
Ni5    Ni    0.25327   0.26181   0.33127   0.01267  Uiso   1.00
Ni6    Ni    0.20295   0.14291   0.18574   0.01267  Uiso   1.00
Ni7    Ni    0.74673   0.76181   0.16873   0.01267  Uiso   1.00
Ni8    Ni    0.79705   0.64291   0.31426   0.01267  Uiso   1.00
H1     H     0.47080   0.92010   0.57400   0.01267  Uiso   1.00
H2     H     0.26340   0.13850   0.58970   0.01267  Uiso   1.00
H3     H     0.52850   0.05440   0.74150   0.01267  Uiso   1.00
H4     H     0.23380   0.06510   0.48720   0.01267  Uiso   1.00
H5     H     0.33790   0.99440   0.47510   0.01267  Uiso   1.00
H6     H     0.16740   0.90510   0.40810   0.01267  Uiso   1.00
H7     H     0.91960   0.76160   0.49630   0.01267  Uiso   1.00
H8     H     0.14280   0.95090   0.59420   0.01267  Uiso   1.00
H9     H     0.97820   0.77770   0.29890   0.01267  Uiso   1.00
H10    H     0.95400   0.81900   0.72900   0.01267  Uiso   1.00
H11    H     0.52920   0.42010   0.92600   0.01267  Uiso   1.00
H12    H     0.73660   0.63850   0.91030   0.01267  Uiso   1.00
H13    H     0.47150   0.55440   0.75850   0.01267  Uiso   1.00
H14    H     0.76620   0.56510   0.01280   0.01267  Uiso   1.00
H15    H     0.66210   0.49440   0.02490   0.01267  Uiso   1.00
H16    H     0.83260   0.40510   0.09190   0.01267  Uiso   1.00
H17    H     0.08040   0.26160   0.00370   0.01267  Uiso   1.00
H18    H     0.85720   0.45090   0.90580   0.01267  Uiso   1.00
H19    H     0.02180   0.27770   0.20110   0.01267  Uiso   1.00
H20    H     0.04600   0.31900   0.77100   0.01267  Uiso   1.00
H21    H     0.52920   0.07990   0.42600   0.01267  Uiso   1.00
H22    H     0.73660   0.86150   0.41030   0.01267  Uiso   1.00
H23    H     0.47150   0.94560   0.25850   0.01267  Uiso   1.00
H24    H     0.76620   0.93490   0.51280   0.01267  Uiso   1.00
H25    H     0.66210   0.00560   0.52490   0.01267  Uiso   1.00
H26    H     0.83260   0.09490   0.59190   0.01267  Uiso   1.00
H27    H     0.08040   0.23840   0.50370   0.01267  Uiso   1.00
H28    H     0.85720   0.04910   0.40580   0.01267  Uiso   1.00
H29    H     0.02180   0.22230   0.70110   0.01267  Uiso   1.00
H30    H     0.04600   0.18100   0.27100   0.01267  Uiso   1.00
H31    H     0.47080   0.57990   0.07400   0.01267  Uiso   1.00
H32    H     0.26340   0.36150   0.08970   0.01267  Uiso   1.00
H33    H     0.52850   0.44560   0.24150   0.01267  Uiso   1.00
H34    H     0.23380   0.43490   0.98720   0.01267  Uiso   1.00
H35    H     0.33790   0.50560   0.97510   0.01267  Uiso   1.00
H36    H     0.16740   0.59490   0.90810   0.01267  Uiso   1.00
H37    H     0.91960   0.73840   0.99630   0.01267  Uiso   1.00
H38    H     0.14280   0.54910   0.09420   0.01267  Uiso   1.00
H39    H     0.97820   0.72230   0.79890   0.01267  Uiso   1.00
H40    H     0.95400   0.68100   0.22900   0.01267  Uiso   1.00
C1     C     0.51700   0.97830   0.66200   0.01267  Uiso   1.00
C2     C     0.45040   0.96770   0.59830   0.01267  Uiso   1.00
C3     C     0.35400   0.02720   0.57070   0.01267  Uiso   1.00
C4     C     0.32630   0.09750   0.60780   0.01267  Uiso   1.00
C5     C     0.39010   0.10830   0.67130   0.01267  Uiso   1.00
C6     C     0.48600   0.04780   0.69880   0.01267  Uiso   1.00
C7     C     0.27690   0.01100   0.50370   0.01267  Uiso   1.00
C8     C     0.17130   0.93870   0.50240   0.01267  Uiso   1.00
C9     C     0.13120   0.89210   0.44480   0.01267  Uiso   1.00
C10    C     0.03540   0.82530   0.44280   0.01267  Uiso   1.00
C11    C     0.98170   0.80640   0.49740   0.01267  Uiso   1.00
C12    C     0.02080   0.85460   0.55460   0.01267  Uiso   1.00
C13    C     0.11590   0.91960   0.55610   0.01267  Uiso   1.00
C14    C     0.61810   0.91140   0.69120   0.01267  Uiso   1.00
C15    C     0.98850   0.77600   0.38130   0.01267  Uiso   1.00
C16    C     0.95570   0.83470   0.61220   0.01267  Uiso   1.00
C17    C     0.35140   0.18430   0.71050   0.01267  Uiso   1.00
C18    C     0.48300   0.47830   0.83800   0.01267  Uiso   1.00
C19    C     0.54960   0.46770   0.90170   0.01267  Uiso   1.00
C20    C     0.64600   0.52720   0.92930   0.01267  Uiso   1.00
C21    C     0.67370   0.59750   0.89220   0.01267  Uiso   1.00
C22    C     0.60990   0.60830   0.82870   0.01267  Uiso   1.00
C23    C     0.51400   0.54780   0.80120   0.01267  Uiso   1.00
C24    C     0.72310   0.51100   0.99630   0.01267  Uiso   1.00
C25    C     0.82870   0.43870   0.99760   0.01267  Uiso   1.00
C26    C     0.86880   0.39210   0.05520   0.01267  Uiso   1.00
C27    C     0.96460   0.32530   0.05720   0.01267  Uiso   1.00
C28    C     0.01830   0.30640   0.00260   0.01267  Uiso   1.00
C29    C     0.97920   0.35460   0.94540   0.01267  Uiso   1.00
C30    C     0.88410   0.41960   0.94390   0.01267  Uiso   1.00
C31    C     0.38190   0.41140   0.80880   0.01267  Uiso   1.00
C32    C     0.01150   0.27600   0.11870   0.01267  Uiso   1.00
C33    C     0.04430   0.33470   0.88780   0.01267  Uiso   1.00
C34    C     0.64860   0.68430   0.78950   0.01267  Uiso   1.00
C35    C     0.48300   0.02170   0.33800   0.01267  Uiso   1.00
C36    C     0.54960   0.03230   0.40170   0.01267  Uiso   1.00
C37    C     0.64600   0.97280   0.42930   0.01267  Uiso   1.00
C38    C     0.67370   0.90250   0.39220   0.01267  Uiso   1.00
C39    C     0.60990   0.89170   0.32870   0.01267  Uiso   1.00
C40    C     0.51400   0.95220   0.30120   0.01267  Uiso   1.00
C41    C     0.72310   0.98900   0.49630   0.01267  Uiso   1.00
C42    C     0.82870   0.06130   0.49760   0.01267  Uiso   1.00
C43    C     0.86880   0.10790   0.55520   0.01267  Uiso   1.00
C44    C     0.96460   0.17470   0.55720   0.01267  Uiso   1.00
C45    C     0.01830   0.19360   0.50260   0.01267  Uiso   1.00
C46    C     0.97920   0.14540   0.44540   0.01267  Uiso   1.00
C47    C     0.88410   0.08040   0.44390   0.01267  Uiso   1.00
C48    C     0.38190   0.08860   0.30880   0.01267  Uiso   1.00
C49    C     0.01150   0.22400   0.61870   0.01267  Uiso   1.00
C50    C     0.04430   0.16530   0.38780   0.01267  Uiso   1.00
C51    C     0.64860   0.81570   0.28950   0.01267  Uiso   1.00
C52    C     0.51700   0.52170   0.16200   0.01267  Uiso   1.00
C53    C     0.45040   0.53230   0.09830   0.01267  Uiso   1.00
C54    C     0.35400   0.47280   0.07070   0.01267  Uiso   1.00
C55    C     0.32630   0.40250   0.10780   0.01267  Uiso   1.00
C56    C     0.39010   0.39170   0.17130   0.01267  Uiso   1.00
C57    C     0.48600   0.45220   0.19880   0.01267  Uiso   1.00
C58    C     0.27690   0.48900   0.00370   0.01267  Uiso   1.00
C59    C     0.17130   0.56130   0.00240   0.01267  Uiso   1.00
C60    C     0.13120   0.60790   0.94480   0.01267  Uiso   1.00
C61    C     0.03540   0.67470   0.94280   0.01267  Uiso   1.00
C62    C     0.98170   0.69360   0.99740   0.01267  Uiso   1.00
C63    C     0.02080   0.64540   0.05460   0.01267  Uiso   1.00
C64    C     0.11590   0.58040   0.05610   0.01267  Uiso   1.00
C65    C     0.61810   0.58860   0.19120   0.01267  Uiso   1.00
C66    C     0.98850   0.72400   0.88130   0.01267  Uiso   1.00
C67    C     0.95570   0.66530   0.11220   0.01267  Uiso   1.00
C68    C     0.35140   0.31570   0.21050   0.01267  Uiso   1.00
O1     O     0.67040   0.92520   0.74980   0.01267  Uiso   1.00
O2     O     0.63560   0.84700   0.65690   0.01267  Uiso   1.00
O3     O     0.00800   0.80990   0.32930   0.01267  Uiso   1.00
O4     O     0.93060   0.70400   0.38630   0.01267  Uiso   1.00
O5     O     0.85780   0.78490   0.60320   0.01267  Uiso   1.00
O6     O     0.00770   0.86910   0.66560   0.01267  Uiso   1.00
O7     O     0.32070   0.25280   0.67910   0.01267  Uiso   1.00
O8     O     0.35260   0.17200   0.76990   0.01267  Uiso   1.00
O9     O     0.88130   0.79230   0.74440   0.01267  Uiso   1.00
O10    O     0.32960   0.42520   0.75020   0.01267  Uiso   1.00
O11    O     0.36440   0.34700   0.84310   0.01267  Uiso   1.00
O12    O     0.99200   0.30990   0.17070   0.01267  Uiso   1.00
O13    O     0.06940   0.20400   0.11370   0.01267  Uiso   1.00
O14    O     0.14220   0.28490   0.89680   0.01267  Uiso   1.00
O15    O     0.99230   0.36910   0.83440   0.01267  Uiso   1.00
O16    O     0.67930   0.75280   0.82090   0.01267  Uiso   1.00
O17    O     0.64740   0.67200   0.73010   0.01267  Uiso   1.00
O18    O     0.11870   0.29230   0.75560   0.01267  Uiso   1.00
O19    O     0.32960   0.07480   0.25020   0.01267  Uiso   1.00
O20    O     0.36440   0.15300   0.34310   0.01267  Uiso   1.00
O21    O     0.99200   0.19010   0.67070   0.01267  Uiso   1.00
O22    O     0.06940   0.29600   0.61370   0.01267  Uiso   1.00
O23    O     0.14220   0.21510   0.39680   0.01267  Uiso   1.00
O24    O     0.99230   0.13090   0.33440   0.01267  Uiso   1.00
O25    O     0.67930   0.74720   0.32090   0.01267  Uiso   1.00
O26    O     0.64740   0.82800   0.23010   0.01267  Uiso   1.00
O27    O     0.11870   0.20770   0.25560   0.01267  Uiso   1.00
O28    O     0.67040   0.57480   0.24980   0.01267  Uiso   1.00
O29    O     0.63560   0.65300   0.15690   0.01267  Uiso   1.00
O30    O     0.00800   0.69010   0.82930   0.01267  Uiso   1.00
O31    O     0.93060   0.79600   0.88630   0.01267  Uiso   1.00
O32    O     0.85780   0.71510   0.10320   0.01267  Uiso   1.00
O33    O     0.00770   0.63090   0.16560   0.01267  Uiso   1.00
O34    O     0.32070   0.24720   0.17910   0.01267  Uiso   1.00
O35    O     0.35260   0.32800   0.26990   0.01267  Uiso   1.00
O36    O     0.88130   0.70770   0.24440   0.01267  Uiso   1.00
