data_ALOLES_ion_b
_audit_creation_date              2014-07-02
_audit_creation_method            'Materials Studio'
_symmetry_space_group_name_H-M    'P1'
_symmetry_Int_Tables_number       1
_symmetry_cell_setting            triclinic
loop_
_symmetry_equiv_pos_as_xyz
  x,y,z
_cell_length_a                    15.2561
_cell_length_b                    15.2561
_cell_length_c                    28.0860
_cell_angle_alpha                 91.1105
_cell_angle_beta                  91.1105
_cell_angle_gamma                 36.6965
loop_
_atom_site_label
_atom_site_type_symbol
_atom_site_fract_x
_atom_site_fract_y
_atom_site_fract_z
_atom_site_U_iso_or_equiv
_atom_site_adp_type
_atom_site_occupancy
Bi1    Bi    0.56274   0.62944   0.03869   0.00000  Uiso   1.00
Bi2    Bi    0.75792   0.67495   0.01576   0.00000  Uiso   1.00
Bi3    Bi    0.44929   0.61663   0.14446   0.00000  Uiso   1.00
O4     O     0.64527   0.95430   0.03030   0.00000  Uiso   1.00
O5     O     0.55631   0.88883   0.04350   0.00000  Uiso   1.00
O6     O     0.18470   1.24936   0.10334   0.00000  Uiso   1.00
O7     O     0.12726   0.35236   0.03261   0.00000  Uiso   1.00
O8     O     0.03724   0.55701   0.11302   0.00000  Uiso   1.00
O9     O     1.15887   0.58267   0.10743   0.00000  Uiso   1.00
O10    O     0.36899   0.26378   0.03767   0.00000  Uiso   1.00
O11    O     0.62793   0.54183   0.11045   0.00000  Uiso   1.00
O12    O     0.70068   0.62532   0.12247   0.00000  Uiso   1.00
O13    O     0.38640   0.76046   0.20062   0.00000  Uiso   1.00
O14    O     0.49380   0.78533   0.24273   0.00000  Uiso   1.00
O15    O     0.54608   0.57455   0.34724   0.00000  Uiso   1.00
O16    O     0.54321   0.48657   0.28770   0.00000  Uiso   1.00
O17    O     0.59681   0.49786   0.20426   0.00000  Uiso   1.00
O18    O     0.74780   0.54374   1.00614   0.00000  Uiso   1.00
O19    O     0.98116   0.34634   0.97946   0.00000  Uiso   1.00
O20    O     0.55790   0.56371   0.96831   0.00000  Uiso   1.00
O21    O     0.73753   0.35803   0.92332   0.00000  Uiso   1.00
O22    O     0.64007   0.26740   0.95514   0.00000  Uiso   1.00
O23    O     0.66365   0.19528   0.02581   0.00000  Uiso   1.00
O24    O     0.66621   0.42012   0.04409   0.00000  Uiso   1.00
O25    O     0.65228   0.38556   0.14396   0.00000  Uiso   1.00
C26    C     0.56533   0.97148   0.05357   0.00000  Uiso   1.00
C27    C     0.48175   1.07740   0.09464   0.00000  Uiso   1.00
H28    H     0.55774   0.06165   0.11410   0.00000  Uiso   1.00
H29    H     0.45595   1.04555   0.12016   0.00000  Uiso   1.00
C30    C     0.34045   0.24017   0.07955   0.00000  Uiso   1.00
C31    C     0.21585   0.27636   0.07243   0.00000  Uiso   1.00
C32    C     0.30091   0.33841   0.11998   0.00000  Uiso   1.00
H33    H     0.29409   0.30973   0.15454   0.00000  Uiso   1.00
H34    H     0.39077   0.31547   0.12358   0.00000  Uiso   1.00
C35    C     0.15873   0.50034   0.11230   0.00000  Uiso   1.00
C36    C     0.69163   0.55883   0.13833   0.00000  Uiso   1.00
C37    C     0.75338   0.49288   0.18769   0.00000  Uiso   1.00
H38    H     0.79710   0.52011   0.20341   0.00000  Uiso   1.00
H39    H     0.84694   0.37155   0.18404   0.00000  Uiso   1.00
C40    C     0.63917   0.54583   0.22160   0.00000  Uiso   1.00
C41    C     0.50427   0.70552   0.22261   0.00000  Uiso   1.00
C42    C     0.69924   0.48514   0.27287   0.00000  Uiso   1.00
H43    H     0.71896   0.53367   0.29099   0.00000  Uiso   1.00
H44    H     0.80589   0.36449   0.27106   0.00000  Uiso   1.00
C45    C     0.59508   0.51423   0.30206   0.00000  Uiso   1.00
C46    C     0.88050   0.39219   1.00036   0.00000  Uiso   1.00
C47    C     0.90076   0.28347   1.01735   0.00000  Uiso   1.00
H48    H     0.92296   0.26856   0.05632   0.00000  Uiso   1.00
H49    H     1.00145   0.17542   1.00042   0.00000  Uiso   1.00
C50    C     0.76783   0.32847   1.00730   0.00000  Uiso   1.00
C51    C     0.68881   0.41448   0.96271   0.00000  Uiso   1.00
C52    C     0.82221   0.18863   1.00560   0.00000  Uiso   1.00
H53    H     0.90416   0.11729   0.97693   0.00000  Uiso   1.00
H54    H     0.87427   0.13198   0.04037   0.00000  Uiso   1.00
C55    C     0.70765   0.21244   0.99453   0.00000  Uiso   1.00
O56    O     0.23192   0.95700   0.87784   0.00000  Uiso   1.00
K57    K     0.37849   0.71587   0.89500   0.00000  Uiso   1.00
N58    N     0.93804  -0.00349   0.86353   0.00000  Uiso   1.00
Bi59   Bi    0.36564   0.47210   0.45275   0.00000  Uiso   1.00
Bi60   Bi    0.20409   0.44376   0.52114   0.00000  Uiso   1.00
Bi61   Bi    0.40957   0.56865   0.34727   0.00000  Uiso   1.00
O62    O     0.20762   0.34259   0.42344   0.00000  Uiso   1.00
O63    O     0.04013   0.50369   0.48196   0.00000  Uiso   1.00
O64    O    -0.22373   0.79992   0.40284   0.00000  Uiso   1.00
O65    O     0.71505   0.81751   0.47800   0.00000  Uiso   1.00
O66    O     0.49113   0.93040   0.39011   0.00000  Uiso   1.00
O67    O     0.46025  -0.18685   0.39338   0.00000  Uiso   1.00
O68    O     0.80187   0.57687   0.46297   0.00000  Uiso   1.00
O69    O     0.40932   0.43742   0.37612   0.00000  Uiso   1.00
O70    O     0.21113   0.50507   0.36978   0.00000  Uiso   1.00
O71    O     0.22564   0.72294   0.29942   0.00000  Uiso   1.00
O72    O     0.09623   0.72650   0.25638   0.00000  Uiso   1.00
O73    O     0.53044   0.42629   0.16755   0.00000  Uiso   1.00
O74    O     0.30695   0.63774   0.17808   0.00000  Uiso   1.00
O75    O     0.46845   0.44512   0.28483   0.00000  Uiso   1.00
O76    O     0.38761   0.32204   0.47590   0.00000  Uiso   1.00
O77    O     0.54640   0.10964   0.51772   0.00000  Uiso   1.00
O78    O     0.42977   0.46702   0.52479   0.00000  Uiso   1.00
O79    O     0.60948   0.26894   0.57212   0.00000  Uiso   1.00
O80    O     0.74213   0.33188   0.54055   0.00000  Uiso   1.00
O81    O     0.85418   0.26626   0.47333   0.00000  Uiso   1.00
O82    O     0.58835   0.33237   0.45147   0.00000  Uiso   1.00
O83    O     0.61907   0.34626   0.36085   0.00000  Uiso   1.00
C84    C     0.08041   0.44060   0.43660   0.00000  Uiso   1.00
C85    C    -0.03263   0.49297   0.40316   0.00000  Uiso   1.00
H86    H     0.99759   0.39930   0.39547   0.00000  Uiso   1.00
H87    H    -0.02565   0.52317   0.36909   0.00000  Uiso   1.00
C88    C     0.80836   0.62451   0.42226   0.00000  Uiso   1.00
C89    C     0.76665   0.75201   0.43340   0.00000  Uiso   1.00
C90    C     0.70657   0.66680   0.38261   0.00000  Uiso   1.00
H91    H     0.73357   0.67406   0.34768   0.00000  Uiso   1.00
H92    H     0.72838   0.57774   0.37913   0.00000  Uiso   1.00
C93    C     0.54520   0.81031   0.39015   0.00000  Uiso   1.00
C94    C     0.31542   0.45551   0.35024   0.00000  Uiso   1.00
C95    C     0.34054   0.41481   0.29814   0.00000  Uiso   1.00
H96    H     0.25158   0.44269   0.28407   0.00000  Uiso   1.00
H97    H     0.44550   0.29399   0.29494   0.00000  Uiso   1.00
C98    C     0.34871   0.49159   0.26834   0.00000  Uiso   1.00
C99    C     0.21362   0.65453   0.27404   0.00000  Uiso   1.00
C100   C     0.37239   0.44909   0.21490   0.00000  Uiso   1.00
H101   H     0.27666   0.48905   0.20026   0.00000  Uiso   1.00
H102   H     0.47021   0.32758   0.21134   0.00000  Uiso   1.00
C103   C     0.39779   0.50913   0.18566   0.00000  Uiso   1.00
C104   C     0.52981   0.18507   0.49154   0.00000  Uiso   1.00
C105   C     0.66545   0.12703   0.47680   0.00000  Uiso   1.00
H106   H     0.68083   0.10481   0.43786   0.00000  Uiso   1.00
H107   H     0.76300   0.01970   0.49456   0.00000  Uiso   1.00
C108   C     0.65804   0.23300   0.48886   0.00000  Uiso   1.00
C109   C     0.56787   0.32220   0.53240   0.00000  Uiso   1.00
C110   C     0.81362   0.14782   0.49491   0.00000  Uiso   1.00
H111   H     0.87112   0.07008   0.52502   0.00000  Uiso   1.00
H112   H     0.87618   0.08380   0.46179   0.00000  Uiso   1.00
C113   C     0.80938   0.24889   0.50416   0.00000  Uiso   1.00
O114   O     0.04354   0.75797   0.61130   0.00000  Uiso   1.00
K115   K     0.27502   0.63821   0.59861   0.00000  Uiso   1.00
N116   N     1.02284   0.10224   0.62170   0.00000  Uiso   1.00
Bi117  Bi    0.42496   0.39025   0.95336   0.00000  Uiso   1.00
Bi118  Bi    0.22404   0.35031   0.97859   0.00000  Uiso   1.00
Bi119  Bi    0.54148   0.40144   0.84620   0.00000  Uiso   1.00
O120   O     0.32023   0.08079   0.96711   0.00000  Uiso   1.00
O121   O     0.42225   0.13202   0.95276   0.00000  Uiso   1.00
O122   O     0.76623  -0.19507   0.89145   0.00000  Uiso   1.00
O123   O     0.83890   0.69094   0.96111   0.00000  Uiso   1.00
O124   O     0.93827   0.48280   0.88195   0.00000  Uiso   1.00
O125   O    -0.16773   0.43944   0.88690   0.00000  Uiso   1.00
O126   O     0.60853   0.76183   0.95849   0.00000  Uiso   1.00
O127   O     0.36799   0.46771   0.88037   0.00000  Uiso   1.00
O128   O     0.30944   0.37022   0.86968   0.00000  Uiso   1.00
O129   O     0.63202   0.24080   0.79199   0.00000  Uiso   1.00
O130   O     0.54823   0.18067   0.75874   0.00000  Uiso   1.00
O131   O     0.38127   0.57461   0.67341   0.00000  Uiso   1.00
O132   O     0.55293   0.34363   0.67534   0.00000  Uiso   1.00
O133   O     0.41336   0.49439   0.78140   0.00000  Uiso   1.00
O134   O     0.23774   0.47883  -0.01420   0.00000  Uiso   1.00
O135   O     0.00507   0.67605   0.01318   0.00000  Uiso   1.00
O136   O     0.42964   0.45717   0.02273   0.00000  Uiso   1.00
O137   O     0.25165   0.66185   0.06817   0.00000  Uiso   1.00
O138   O     0.34529   0.75708   0.03698   0.00000  Uiso   1.00
O139   O     0.33410   0.81145   0.96451   0.00000  Uiso   1.00
O140   O     0.31848   0.60115   0.94689   0.00000  Uiso   1.00
O141   O     0.33205   0.62993   0.84374   0.00000  Uiso   1.00
C142   C     0.40332   0.05774   0.94309   0.00000  Uiso   1.00
C143   C     0.48112  -0.04737   0.90193   0.00000  Uiso   1.00
H144   H     0.40648   0.96155   0.88654   0.00000  Uiso   1.00
H145   H     0.49643  -0.01086   0.87348   0.00000  Uiso   1.00
C146   C     0.62918   0.79179   0.91622   0.00000  Uiso   1.00
C147   C     0.74551   0.76766   0.92233   0.00000  Uiso   1.00
C148   C     0.67410   0.69041   0.87594   0.00000  Uiso   1.00
H149   H     0.67443   0.72395   0.84119   0.00000  Uiso   1.00
H150   H     0.59005   0.70502   0.87332   0.00000  Uiso   1.00
C151   C     0.82212   0.52999   0.88280   0.00000  Uiso   1.00
C152   C     0.31664   0.43718   0.85244   0.00000  Uiso   1.00
C153   C     0.26511   0.48923   0.80135   0.00000  Uiso   1.00
H154   H     0.22781   0.45451   0.78672   0.00000  Uiso   1.00
H155   H     0.16827   0.61115   0.80157   0.00000  Uiso   1.00
C156   C     0.38307   0.43206   0.76810   0.00000  Uiso   1.00
C157   C     0.52410   0.27481   0.77289   0.00000  Uiso   1.00
C158   C     0.33384   0.46992   0.71510   0.00000  Uiso   1.00
H159   H     0.33809   0.39928   0.69926   0.00000  Uiso   1.00
H160   H     0.21820   0.58542   0.71280   0.00000  Uiso   1.00
C161   C     0.42648   0.45703   0.68637   0.00000  Uiso   1.00
C162   C     0.10537   0.63036  -0.00800   0.00000  Uiso   1.00
C163   C     0.08479   0.73923  -0.02492   0.00000  Uiso   1.00
H164   H     0.06021   0.75598   0.93626   0.00000  Uiso   1.00
H165   H    -0.01452   0.84661  -0.00734   0.00000  Uiso   1.00
C166   C     0.21884   0.69261  -0.01577   0.00000  Uiso   1.00
C167   C     0.29904   0.60608   0.02864   0.00000  Uiso   1.00
C168   C     0.16616   0.83139  -0.01404   0.00000  Uiso   1.00
H169   H     0.08468   0.90315   0.01473   0.00000  Uiso   1.00
H170   H     0.11387   0.88862   0.95129   0.00000  Uiso   1.00
C171   C     0.28238   0.80532  -0.00324   0.00000  Uiso   1.00
O172   O     0.71701   0.07766   0.11543   0.00000  Uiso   1.00
K173   K     0.59883   0.30458   0.09522   0.00000  Uiso   1.00
N174   N     0.03991   1.00366   0.12888   0.00000  Uiso   1.00
Bi175  Bi    0.63909   0.53778   0.54388   0.00000  Uiso   1.00
Bi176  Bi    0.71799   0.70880   0.52591   0.00000  Uiso   1.00
Bi177  Bi    0.59631   0.43919   0.64947   0.00000  Uiso   1.00
O178   O     0.89403   0.64220   0.60951   0.00000  Uiso   1.00
O179   O     0.93053   0.50332   0.55444   0.00000  Uiso   1.00
O180   O     1.29613   0.12120   0.56461   0.00000  Uiso   1.00
O181   O     0.28483   0.24758   0.51728   0.00000  Uiso   1.00
O182   O     0.61525  -0.04432   0.61968   0.00000  Uiso   1.00
O183   O     0.54518   1.14934   0.62490   0.00000  Uiso   1.00
O184   O     0.24693   0.38409   0.59480   0.00000  Uiso   1.00
O185   O     0.57780   0.58398   0.61875   0.00000  Uiso   1.00
O186   O     0.73776   0.56941   0.62938   0.00000  Uiso   1.00
O187   O     0.76480   0.31423   0.70451   0.00000  Uiso   1.00
O188   O     0.88367   0.33637   0.73705   0.00000  Uiso   1.00
O189   O     0.44709   0.59752   0.82179   0.00000  Uiso   1.00
O190   O     0.67856   0.39823   0.82320   0.00000  Uiso   1.00
O191   O     0.52803   0.56029   0.71489   0.00000  Uiso   1.00
O192   O     0.57494   0.71412   0.51430   0.00000  Uiso   1.00
O193   O     0.39399   0.94749   0.48734   0.00000  Uiso   1.00
O194   O     0.55455   0.55092   0.47720   0.00000  Uiso   1.00
O195   O     0.35879   0.74733   0.43206   0.00000  Uiso   1.00
O196   O     0.22343   0.69573   0.45667   0.00000  Uiso   1.00
O197   O     0.17516   0.69658   0.52874   0.00000  Uiso   1.00
O198   O     0.41526   0.67265   0.55249   0.00000  Uiso   1.00
O199   O     0.37896   0.66343   0.65102   0.00000  Uiso   1.00
C200   C     0.96737   0.52055   0.59634   0.00000  Uiso   1.00
C201   C     1.09590   0.38988   0.62631   0.00000  Uiso   1.00
H202   H     0.08440   0.43059   0.66220   0.00000  Uiso   1.00
H203   H     1.08968   0.32290   0.63159   0.00000  Uiso   1.00
C204   C     0.24638   0.29483   0.60534   0.00000  Uiso   1.00
C205   C     0.27787   0.21477   0.56151   0.00000  Uiso   1.00
C206   C     0.36652   0.18252   0.64358   0.00000  Uiso   1.00
H207   H     0.37000   0.10892   0.65239   0.00000  Uiso   1.00
H208   H     0.33930   0.24056   0.67709   0.00000  Uiso   1.00
C209   C     0.51616   0.09156   0.62835   0.00000  Uiso   1.00
C210   C     0.64448   0.59728   0.64664   0.00000  Uiso   1.00
C211   C     0.60173   0.64811   0.69786   0.00000  Uiso   1.00
H212   H     0.66650   0.65224   0.71282   0.00000  Uiso   1.00
H213   H     0.48428   0.76171   0.69865   0.00000  Uiso   1.00
C214   C     0.62467   0.54927   0.72928   0.00000  Uiso   1.00
C215   C     0.76933   0.39381   0.72345   0.00000  Uiso   1.00
C216   C     0.59889   0.59224   0.78260   0.00000  Uiso   1.00
H217   H     0.69085   0.55826   0.79745   0.00000  Uiso   1.00
H218   H     0.49710   0.71339   0.78640   0.00000  Uiso   1.00
C219   C     0.58039   0.52500   0.81090   0.00000  Uiso   1.00
C220   C     0.42661   0.85470   0.50836   0.00000  Uiso   1.00
C221   C     0.30508   0.89441   0.52597   0.00000  Uiso   1.00
H222   H     0.29511   0.91381   0.56499   0.00000  Uiso   1.00
H223   H     0.20019   1.00087   0.50974   0.00000  Uiso   1.00
C224   C     0.32869   0.77622   0.51581   0.00000  Uiso   1.00
C225   C     0.41183   0.69316   0.47138   0.00000  Uiso   1.00
C226   C     0.17765   0.84984   0.51346   0.00000  Uiso   1.00
H227   H     0.10702   0.94031   0.48736   0.00000  Uiso   1.00
H228   H     0.12457   0.89821   0.54888   0.00000  Uiso   1.00
C229   C     0.18428   0.74915   0.49841   0.00000  Uiso   1.00
O230   O     0.93592   0.26743   0.37948   0.00000  Uiso   1.00
K231   K     0.70838   0.39712   0.40720   0.00000  Uiso   1.00
N232   N    -0.04317   0.91141   0.37894   0.00000  Uiso   1.00
N233   N     0.17118   0.97067   0.30178   0.00000  Uiso   1.00
N234   N     0.84026   0.13747   0.24596   0.00000  Uiso   1.00
N235   N     0.89081  -0.02016   0.71063   0.00000  Uiso   1.00
N236   N     0.17447   0.89353   0.75112   0.00000  Uiso   1.00
H237   H     0.85343   0.18116   0.22429   0.00000  Uiso   1.00
H238   H     0.74206   0.18442   0.23714   0.00000  Uiso   1.00
H239   H     0.83774   0.16018   0.28160   0.00000  Uiso   1.00
H240   H     0.15246   0.95660   0.26833   0.00000  Uiso   1.00
H241   H     0.14428   1.05871   0.30070   0.00000  Uiso   1.00
H242   H     0.28169   0.87535   0.31102   0.00000  Uiso   1.00
H243   H    -0.01476   0.84276   0.35253   0.00000  Uiso   1.00
H244   H     0.03590   0.89751   0.38081   0.00000  Uiso   1.00
H245   H    -0.04877   0.88479   0.41167   0.00000  Uiso   1.00
H246   H     1.02178   0.12613   0.58694   0.00000  Uiso   1.00
H247   H     0.99567   0.17525   0.64519   0.00000  Uiso   1.00
H248   H     1.12729  -0.00497   0.63008   0.00000  Uiso   1.00
H249   H     0.92141  -0.08576   0.73831   0.00000  Uiso   1.00
H250   H     0.80790   0.01643   0.69026   0.00000  Uiso   1.00
H251   H     0.98149  -0.08119   0.68913   0.00000  Uiso   1.00
H252   H     0.20223   0.80580   0.74439   0.00000  Uiso   1.00
H253   H     0.08196   0.98414   0.73108   0.00000  Uiso   1.00
H254   H     0.26171   0.86385   0.74167   0.00000  Uiso   1.00
H255   H     0.92129   0.07743   0.86106   0.00000  Uiso   1.00
H256   H     0.87833   0.02051   0.89212   0.00000  Uiso   1.00
H257   H     1.04945  -0.10525   0.86887   0.00000  Uiso   1.00
H258   H    -0.05026   1.11816   0.12911   0.00000  Uiso   1.00
H259   H     0.08640   0.96496   0.16293   0.00000  Uiso   1.00
H260   H     0.11746   0.96383   0.10476   0.00000  Uiso   1.00
H261   H     0.15213   0.92049   0.78730   0.00000  Uiso   1.00
H262   H     0.85249   0.06999   0.72479   0.00000  Uiso   1.00
H263   H     0.90339  -0.00696   0.83203   0.00000  Uiso   1.00
H264   H     0.94662   0.11264   0.62454   0.00000  Uiso   1.00
H265   H    -0.14506   1.02048   0.37078   0.00000  Uiso   1.00
H266   H     0.92789   0.02406   0.24078   0.00000  Uiso   1.00
H267   H     0.10635   0.99196   0.32706   0.00000  Uiso   1.00
H268   H     0.00605   0.96775   0.11869   0.00000  Uiso   1.00
loop_
_geom_bond_atom_site_label_1
_geom_bond_atom_site_label_2
_geom_bond_distance
_geom_bond_site_symmetry_2
_ccdc_geom_bond_type
Bi1    O11     2.175   .     S
Bi1    O24     2.154   .     S
Bi1    O138    2.107   .     S
Bi1    O18     2.156   1_554 S
Bi1    O20     2.226   1_554 S
Bi2    O5      2.148   .     S
Bi2    O18     2.139   1_554 S
Bi2    O123    2.124   1_554 S
Bi2    O126    2.153   1_554 S
Bi3    O11     2.171   .     S
Bi3    O13     2.184   .     S
Bi3    O17     2.145   .     S
Bi3    O25     2.124   .     S
Bi3    O73     2.159   .     S
Bi3    O74     2.158   .     S
O4     C26     1.223   .     D
O5     C26     1.397   .     S
O6     C31     1.222   1_565 S
O7     C31     1.379   .     S
O7     Bi118   2.120   1_554 S
O8     C35     1.271   .     D
O9     C35     1.268   1_655 S
O10    C30     1.411   .     S
O10    Bi118   2.156   1_554 S
O11    C36     1.411   .     S
O12    C36     1.221   .     D
O13    C41     1.370   .     S
O14    C41     1.222   .     D
O15    C45     1.380   .     S
O15    Bi61    2.155   .     S
O15    K231    2.358   .     S
O16    C45     1.218   .     D
O16    Bi61    2.117   .     S
O17    C40     1.387   .     S
O18    C46     1.401   .     S
O18    Bi1     2.156   1_556 S
O18    Bi2     2.139   1_556 S
O19    C46     1.220   .     D
O20    C51     1.380   .     S
O20    K57     2.626   .     S
O20    Bi1     2.226   1_556 S
O21    C51     1.219   .     D
O22    C55     1.263   .     D
O22    Bi117   2.102   .     S
O23    K173    2.205   .     S
O23    C55     1.267   1_554 S
O24    C50     1.399   1_554 D
O25    K173    2.360   .     S
C26    C27     1.499   .     S
C27    H29     1.112   .     S
C27    H28     1.111   1_565 S
C27    C30     1.554   1_565 S
H28    C27     1.111   1_545 S
C30    C31     1.505   .     S
C30    C32     1.553   .     S
C30    C27     1.554   1_545 S
C31    O6      1.222   1_545 S
C32    H33     1.113   .     S
C32    H34     1.113   .     S
C32    C35     1.505   .     S
C35    O9      1.268   1_455 S
C36    C37     1.518   .     S
C37    H38     1.113   .     S
C37    H39     1.112   .     S
C37    C40     1.540   .     S
C40    C41     1.460   .     S
C40    C42     1.553   .     S
C42    H43     1.111   .     S
C42    H44     1.111   .     S
C42    C45     1.516   .     S
C46    C47     1.509   .     S
C47    H49     1.114   .     S
C47    C50     1.554   .     S
C47    H48     1.112   1_556 S
H48    C47     1.112   1_554 S
C50    C51     1.487   .     S
C50    C52     1.550   .     S
C50    O24     1.399   1_556 D
C52    H53     1.104   .     S
C52    C55     1.499   .     S
C52    H54     1.111   1_556 S
H54    C52     1.111   1_554 S
C55    O23     1.267   1_556 S
O56    K57     2.367   .     S
K57    O139    2.180   .     S
K57    O141    2.381   .     S
K57    O189    2.344   .     S
N58    H255    1.044   .     S
N58    H256    1.044   .     S
N58    H257    1.044   .     S
N58    H263    1.044   .     S
Bi59   O69     2.191   .     S
Bi59   O76     2.144   .     S
Bi59   O78     2.206   .     S
Bi59   O82     2.116   .     S
Bi59   O196    2.117   .     S
Bi60   O63     2.137   .     S
Bi60   O76     2.147   .     S
Bi60   O181    2.137   .     S
Bi60   O184    2.145   .     S
Bi61   O69     2.177   .     S
Bi61   O71     2.146   .     S
Bi61   O75     2.157   .     S
Bi61   O83     2.118   .     S
O62    C84     1.221   .     D
O63    C84     1.400   .     S
O64    C89     1.222   1_455 D
O65    C89     1.384   .     S
O65    Bi176   2.128   .     S
O66    C93     1.270   .     D
O67    C93     1.267   1_545 S
O68    C88     1.413   .     S
O68    Bi176   2.152   .     S
O69    C94     1.411   .     S
O70    C94     1.222   .     D
O71    C99     1.380   .     S
O72    C99     1.222   .     D
O73    C103    1.366   .     S
O73    K173    2.344   .     S
O74    C103    1.208   .     D
O75    C98     1.399   .     S
O76    C104    1.412   .     S
O77    C104    1.220   .     D
O78    C109    1.379   .     S
O78    K115    2.605   .     S
O79    C109    1.220   .     D
O80    C113    1.268   .     S
O80    Bi175   2.103   .     S
O81    C113    1.269   .     D
O81    K231    2.290   .     S
O82    C108    1.402   .     S
O83    K231    2.396   .     S
C84    C85     1.500   .     S
C85    H87     1.113   .     S
C85    H86     1.112   1_455 S
C85    C88     1.550   1_455 D
H86    C85     1.112   1_655 S
C88    C89     1.512   .     S
C88    C90     1.556   .     S
C88    C85     1.550   1_655 D
C89    O64     1.222   1_655 D
C90    H91     1.112   .     S
C90    H92     1.112   .     S
C90    C93     1.503   .     S
C93    O67     1.267   1_565 S
C94    C95     1.509   .     S
C95    H96     1.113   .     S
C95    H97     1.112   .     S
C95    C98     1.538   .     S
C98    C99     1.495   .     S
C98    C100    1.553   .     S
C100   H101    1.110   .     S
C100   H102    1.112   .     S
C100   C103    1.508   .     S
C104   C105    1.523   .     S
C105   H106    1.111   .     S
C105   H107    1.113   .     S
C105   C108    1.558   .     S
C108   C109    1.496   .     S
C108   C110    1.549   .     S
C110   H111    1.110   .     S
C110   H112    1.111   .     S
C110   C113    1.508   .     S
O114   K115    2.369   .     S
K115   O131    2.325   .     S
K115   O197    2.177   .     S
K115   O199    2.386   .     S
N116   H246    1.044   .     S
N116   H247    1.044   .     S
N116   H248    1.044   .     S
N116   H264    1.044   .     S
Bi117  O127    2.175   .     S
Bi117  O140    2.157   .     S
Bi117  O134    2.163   1_556 S
Bi117  O136    2.209   1_556 S
Bi118  O121    2.146   .     S
Bi118  O7      2.120   1_556 S
Bi118  O10     2.156   1_556 S
Bi118  O134    2.138   1_556 S
Bi119  O127    2.172   .     S
Bi119  O129    2.177   .     S
Bi119  O133    2.159   .     S
Bi119  O141    2.122   .     S
Bi119  O189    2.151   .     S
Bi119  O190    2.163   .     S
O120   C142    1.223   .     D
O121   C142    1.397   .     S
O122   C147    1.222   1_545 S
O123   C147    1.379   .     S
O123   Bi2     2.124   1_556 S
O124   C151    1.270   .     D
O125   C151    1.268   1_455 S
O126   C146    1.409   .     S
O126   Bi2     2.153   1_556 S
O127   C152    1.412   .     S
O128   C152    1.221   .     D
O129   C157    1.369   .     S
O130   C157    1.221   .     D
O131   C161    1.363   .     S
O131   Bi177   2.155   .     S
O132   C161    1.209   .     D
O132   Bi177   2.168   .     S
O133   C156    1.393   .     S
O134   C162    1.402   .     S
O134   Bi117   2.163   1_554 S
O134   Bi118   2.138   1_554 S
O135   C162    1.221   .     D
O136   C167    1.378   .     S
O136   K173    2.563   .     S
O136   Bi117   2.209   1_554 S
O137   C167    1.220   .     D
O138   C171    1.263   .     S
O139   C171    1.265   1_556 S
O140   C166    1.400   1_556 S
C142   C143    1.499   .     S
C143   H145    1.112   .     S
C143   H144    1.112   1_545 S
C143   C146    1.549   1_545 S
H144   C143    1.112   1_565 S
C146   C147    1.503   .     S
C146   C148    1.551   .     S
C146   C143    1.549   1_565 S
C147   O122    1.222   1_565 S
C148   H149    1.113   .     S
C148   H150    1.113   .     S
C148   C151    1.505   .     S
C151   O125    1.268   1_655 S
C152   C153    1.519   .     S
C153   H154    1.113   .     S
C153   H155    1.112   .     S
C153   C156    1.545   .     S
C156   C157    1.458   .     S
C156   C158    1.552   .     S
C158   H159    1.111   .     S
C158   H160    1.112   .     S
C158   C161    1.510   .     S
C162   C163    1.507   .     S
C163   H165    1.114   .     S
C163   C166    1.552   .     S
C163   H164    1.112   1_554 S
H164   C163    1.112   1_556 S
C166   C167    1.487   .     S
C166   C168    1.549   .     S
C166   O140    1.400   1_554 S
C168   H169    1.104   .     S
C168   C171    1.499   .     S
C168   H170    1.110   1_554 S
H170   C168    1.110   1_556 S
C171   O139    1.265   1_554 S
O172   K173    2.363   .     S
N174   H258    1.044   .     S
N174   H259    1.044   .     S
N174   H260    1.044   .     S
N174   H268    1.044   .     S
Bi175  O185    2.181   .     S
Bi175  O192    2.172   .     S
Bi175  O194    2.172   .     S
Bi175  O198    2.168   .     S
Bi176  O179    2.163   .     S
Bi176  O192    2.137   .     S
Bi177  O185    2.183   .     S
Bi177  O187    2.176   .     S
Bi177  O191    2.175   .     S
Bi177  O199    2.123   .     S
O178   C200    1.222   .     D
O179   C200    1.403   .     S
O180   C205    1.220   1_655 S
O181   C205    1.385   .     S
O182   C209    1.269   .     D
O183   C209    1.270   1_565 S
O184   C204    1.406   .     S
O185   C210    1.408   .     S
O186   C210    1.220   .     D
O187   C215    1.367   .     S
O188   C215    1.222   .     D
O189   C219    1.362   .     S
O190   C219    1.210   .     D
O191   C214    1.395   .     S
O192   C220    1.402   .     S
O193   C220    1.221   .     D
O194   C225    1.378   .     S
O194   K231    2.459   .     S
O195   C225    1.219   .     D
O196   C229    1.267   .     D
O197   C229    1.264   .     S
O198   C224    1.402   .     S
C200   C201    1.503   .     S
C201   H203    1.112   .     S
C201   H202    1.114   1_655 S
C201   C204    1.549   1_655 S
H202   C201    1.114   1_455 S
C204   C205    1.504   .     S
C204   C206    1.552   .     S
C204   C201    1.549   1_455 S
C205   O180    1.220   1_455 S
C206   H207    1.113   .     S
C206   H208    1.112   .     S
C206   C209    1.502   .     S
C209   O183    1.270   1_545 S
C210   C211    1.509   .     S
C211   H212    1.113   .     S
C211   H213    1.111   .     S
C211   C214    1.539   .     S
C214   C215    1.459   .     S
C214   C216    1.549   .     S
C216   H217    1.109   .     S
C216   H218    1.111   .     S
C216   C219    1.506   .     S
C220   C221    1.507   .     S
C221   H222    1.111   .     S
C221   H223    1.113   .     S
C221   C224    1.551   .     S
C224   C225    1.481   .     S
C224   C226    1.556   .     S
C226   H227    1.108   .     S
C226   H228    1.111   .     S
C226   C229    1.509   .     S
O230   K231    2.367   .     S
N232   H243    1.044   .     S
N232   H244    1.044   .     S
N232   H245    1.044   .     S
N232   H265    1.044   .     S
N233   H240    1.044   .     S
N233   H241    1.044   .     S
N233   H242    1.044   .     S
N233   H267    1.044   .     S
N234   H237    1.044   .     S
N234   H238    1.044   .     S
N234   H239    1.044   .     S
N234   H266    1.044   .     S
N235   H249    1.044   .     S
N235   H250    1.044   .     S
N235   H251    1.044   .     S
N235   H262    1.044   .     S
N236   H252    1.044   .     S
N236   H253    1.044   .     S
N236   H254    1.044   .     S
N236   H261    1.044   .     S
