data_image0
_cell_length_a       23.113
_cell_length_b       7.3954
_cell_length_c       29.657
_cell_angle_alpha    90
_cell_angle_beta     93.037
_cell_angle_gamma    90

_symmetry_space_group_name_H-M    "P 1"
_symmetry_int_tables_number       1

loop_
  _symmetry_equiv_pos_as_xyz
  'x, y, z'

loop_
  _atom_site_label
  _atom_site_occupancy
  _atom_site_fract_x
  _atom_site_fract_y
  _atom_site_fract_z
  _atom_site_thermal_displace_type
  _atom_site_B_iso_or_equiv
  _atom_site_type_symbol
  Mn1      1.0000 0.97577  0.53603  0.35671  Biso   1.000  Mn
  C1       1.0000 0.08670  0.47450  0.31020  Biso   1.000  C
  C2       1.0000 0.14950  0.42310  0.31093  Biso   1.000  C
  C3       1.0000 0.17840  0.37790  0.35127  Biso   1.000  C
  H1       1.0000 0.15910  0.38480  0.37790  Biso   1.000  H
  C4       1.0000 0.23540  0.32290  0.35271  Biso   1.000  C
  C5       1.0000 0.26460  0.31710  0.31241  Biso   1.000  C
  H2       1.0000 0.30320  0.28080  0.31310  Biso   1.000  H
  C6       1.0000 0.23680  0.36440  0.27182  Biso   1.000  C
  C7       1.0000 0.17890  0.41460  0.27134  Biso   1.000  C
  H3       1.0000 0.15940  0.44300  0.24400  Biso   1.000  H
  C8       1.0000 0.26870  0.36400  0.22935  Biso   1.000  C
  C9       1.0000 0.24170  0.31060  0.18841  Biso   1.000  C
  H4       1.0000 0.20360  0.26980  0.18770  Biso   1.000  H
  C10      1.0000 0.27090  0.31700  0.14832  Biso   1.000  C
  C11      1.0000 0.32800  0.38010  0.14976  Biso   1.000  C
  H5       1.0000 0.34780  0.38620  0.12330  Biso   1.000  H
  C12      1.0000 0.35550  0.43400  0.19064  Biso   1.000  C
  C13      1.0000 0.32530  0.42370  0.22956  Biso   1.000  C
  H6       1.0000 0.34380  0.45810  0.25680  Biso   1.000  H
  C14      1.0000 0.24080  0.26060  0.10471  Biso   1.000  C
  C15      1.0000 0.41530  0.51050  0.19181  Biso   1.000  C
  C16      1.0000 0.26450  0.26990  0.39707  Biso   1.000  C
  O1       1.0000 0.05762  0.46370  0.27259  Biso   1.000  O
  O2       1.0000 0.06597  0.52030  0.34689  Biso   1.000  O
  O3       1.0000 0.23189  0.25520  0.42985  Biso   1.000  O
  O4       1.0000 0.31796  0.24770  0.40000  Biso   1.000  O
  O5       1.0000 0.43884  0.54620  0.23021  Biso   1.000  O
  O6       1.0000 0.43935  0.54260  0.15551  Biso   1.000  O
  O7       1.0000 0.27134  0.23740  0.07094  Biso   1.000  O
  O8       1.0000 0.18721  0.23570  0.10330  Biso   1.000  O
  O9       1.0000 0.97132  0.25710  0.32206  Biso   1.000  O
  H7       1.0000 0.99970  0.20610  0.33390  Biso   1.000  H
  H8       1.0000 0.94320  0.19260  0.32620  Biso   1.000  H
  Mn2      1.0000 0.47577  0.03603  0.35671  Biso   1.000  Mn
  C17      1.0000 0.58670  0.97450  0.31020  Biso   1.000  C
  C18      1.0000 0.64950  0.92310  0.31093  Biso   1.000  C
  C19      1.0000 0.67840  0.87790  0.35127  Biso   1.000  C
  H9       1.0000 0.65910  0.88480  0.37790  Biso   1.000  H
  C20      1.0000 0.73540  0.82290  0.35271  Biso   1.000  C
  C21      1.0000 0.76460  0.81710  0.31241  Biso   1.000  C
  H10      1.0000 0.80320  0.78080  0.31310  Biso   1.000  H
  C22      1.0000 0.73680  0.86440  0.27182  Biso   1.000  C
  C23      1.0000 0.67890  0.91460  0.27134  Biso   1.000  C
  H11      1.0000 0.65940  0.94300  0.24400  Biso   1.000  H
  C24      1.0000 0.76870  0.86400  0.22935  Biso   1.000  C
  C25      1.0000 0.74170  0.81060  0.18841  Biso   1.000  C
  H12      1.0000 0.70360  0.76980  0.18770  Biso   1.000  H
  C26      1.0000 0.77090  0.81700  0.14832  Biso   1.000  C
  C27      1.0000 0.82800  0.88010  0.14976  Biso   1.000  C
  H13      1.0000 0.84780  0.88620  0.12330  Biso   1.000  H
  C28      1.0000 0.85550  0.93400  0.19064  Biso   1.000  C
  C29      1.0000 0.82530  0.92370  0.22956  Biso   1.000  C
  H14      1.0000 0.84380  0.95810  0.25680  Biso   1.000  H
  C30      1.0000 0.74080  0.76060  0.10471  Biso   1.000  C
  C31      1.0000 0.91530  0.01050  0.19181  Biso   1.000  C
  C32      1.0000 0.76450  0.76990  0.39707  Biso   1.000  C
  O10      1.0000 0.55762  0.96370  0.27259  Biso   1.000  O
  O11      1.0000 0.56597  0.02030  0.34689  Biso   1.000  O
  O12      1.0000 0.73189  0.75520  0.42985  Biso   1.000  O
  O13      1.0000 0.81796  0.74770  0.40000  Biso   1.000  O
  O14      1.0000 0.93884  0.04620  0.23021  Biso   1.000  O
  O15      1.0000 0.93935  0.04260  0.15551  Biso   1.000  O
  O16      1.0000 0.77134  0.73740  0.07094  Biso   1.000  O
  O17      1.0000 0.68721  0.73570  0.10330  Biso   1.000  O
  O18      1.0000 0.47132  0.75710  0.32206  Biso   1.000  O
  H15      1.0000 0.49970  0.70610  0.33390  Biso   1.000  H
  H16      1.0000 0.44320  0.69260  0.32620  Biso   1.000  H
  Mn3      1.0000 0.02423  0.53603  0.14329  Biso   1.000  Mn
  C33      1.0000 0.91330  0.47450  0.18980  Biso   1.000  C
  C34      1.0000 0.85050  0.42310  0.18907  Biso   1.000  C
  C35      1.0000 0.82160  0.37790  0.14873  Biso   1.000  C
  H17      1.0000 0.84090  0.38480  0.12210  Biso   1.000  H
  C36      1.0000 0.76460  0.32290  0.14729  Biso   1.000  C
  C37      1.0000 0.73540  0.31710  0.18759  Biso   1.000  C
  H18      1.0000 0.69680  0.28080  0.18690  Biso   1.000  H
  C38      1.0000 0.76320  0.36440  0.22818  Biso   1.000  C
  C39      1.0000 0.82110  0.41460  0.22866  Biso   1.000  C
  H19      1.0000 0.84060  0.44300  0.25600  Biso   1.000  H
  C40      1.0000 0.73130  0.36400  0.27065  Biso   1.000  C
  C41      1.0000 0.75830  0.31060  0.31159  Biso   1.000  C
  H20      1.0000 0.79640  0.26980  0.31230  Biso   1.000  H
  C42      1.0000 0.72910  0.31700  0.35168  Biso   1.000  C
  C43      1.0000 0.67200  0.38010  0.35024  Biso   1.000  C
  H21      1.0000 0.65220  0.38620  0.37670  Biso   1.000  H
  C44      1.0000 0.64450  0.43400  0.30936  Biso   1.000  C
  C45      1.0000 0.67470  0.42370  0.27044  Biso   1.000  C
  H22      1.0000 0.65620  0.45810  0.24320  Biso   1.000  H
  C46      1.0000 0.75920  0.26060  0.39529  Biso   1.000  C
  C47      1.0000 0.58470  0.51050  0.30819  Biso   1.000  C
  C48      1.0000 0.73550  0.26990  0.10293  Biso   1.000  C
  O19      1.0000 0.94238  0.46370  0.22741  Biso   1.000  O
  O20      1.0000 0.93403  0.52030  0.15311  Biso   1.000  O
  O21      1.0000 0.76811  0.25520  0.07015  Biso   1.000  O
  O22      1.0000 0.68204  0.24770  0.10000  Biso   1.000  O
  O23      1.0000 0.56116  0.54620  0.26979  Biso   1.000  O
  O24      1.0000 0.56065  0.54260  0.34449  Biso   1.000  O
  O25      1.0000 0.72866  0.23740  0.42906  Biso   1.000  O
  O26      1.0000 0.81279  0.23570  0.39670  Biso   1.000  O
  O27      1.0000 0.02868  0.25710  0.17794  Biso   1.000  O
  H23      1.0000 0.00030  0.20610  0.16610  Biso   1.000  H
  H24      1.0000 0.05680  0.19260  0.17380  Biso   1.000  H
  Mn4      1.0000 0.52423  0.03603  0.14329  Biso   1.000  Mn
  C49      1.0000 0.41330  0.97450  0.18980  Biso   1.000  C
  C50      1.0000 0.35050  0.92310  0.18907  Biso   1.000  C
  C51      1.0000 0.32160  0.87790  0.14873  Biso   1.000  C
  H25      1.0000 0.34090  0.88480  0.12210  Biso   1.000  H
  C52      1.0000 0.26460  0.82290  0.14729  Biso   1.000  C
  C53      1.0000 0.23540  0.81710  0.18759  Biso   1.000  C
  H26      1.0000 0.19680  0.78080  0.18690  Biso   1.000  H
  C54      1.0000 0.26320  0.86440  0.22818  Biso   1.000  C
  C55      1.0000 0.32110  0.91460  0.22866  Biso   1.000  C
  H27      1.0000 0.34060  0.94300  0.25600  Biso   1.000  H
  C56      1.0000 0.23130  0.86400  0.27065  Biso   1.000  C
  C57      1.0000 0.25830  0.81060  0.31159  Biso   1.000  C
  H28      1.0000 0.29640  0.76980  0.31230  Biso   1.000  H
  C58      1.0000 0.22910  0.81700  0.35168  Biso   1.000  C
  C59      1.0000 0.17200  0.88010  0.35024  Biso   1.000  C
  H29      1.0000 0.15220  0.88620  0.37670  Biso   1.000  H
  C60      1.0000 0.14450  0.93400  0.30936  Biso   1.000  C
  C61      1.0000 0.17470  0.92370  0.27044  Biso   1.000  C
  H30      1.0000 0.15620  0.95810  0.24320  Biso   1.000  H
  C62      1.0000 0.25920  0.76060  0.39529  Biso   1.000  C
  C63      1.0000 0.08470  0.01050  0.30819  Biso   1.000  C
  C64      1.0000 0.23550  0.76990  0.10293  Biso   1.000  C
  O28      1.0000 0.44238  0.96370  0.22741  Biso   1.000  O
  O29      1.0000 0.43403  0.02030  0.15311  Biso   1.000  O
  O30      1.0000 0.26811  0.75520  0.07015  Biso   1.000  O
  O31      1.0000 0.18204  0.74770  0.10000  Biso   1.000  O
  O32      1.0000 0.06116  0.04620  0.26979  Biso   1.000  O
  O33      1.0000 0.06065  0.04260  0.34449  Biso   1.000  O
  O34      1.0000 0.22866  0.73740  0.42906  Biso   1.000  O
  O35      1.0000 0.31279  0.73570  0.39670  Biso   1.000  O
  O36      1.0000 0.52868  0.75710  0.17794  Biso   1.000  O
  H31      1.0000 0.50030  0.70610  0.16610  Biso   1.000  H
  H32      1.0000 0.55680  0.69260  0.17380  Biso   1.000  H
  Mn5      1.0000 0.02423  0.46397  0.64329  Biso   1.000  Mn
  C65      1.0000 0.91330  0.52550  0.68980  Biso   1.000  C
  C66      1.0000 0.85050  0.57690  0.68907  Biso   1.000  C
  C67      1.0000 0.82160  0.62210  0.64873  Biso   1.000  C
  H33      1.0000 0.84090  0.61520  0.62210  Biso   1.000  H
  C68      1.0000 0.76460  0.67710  0.64729  Biso   1.000  C
  C69      1.0000 0.73540  0.68290  0.68759  Biso   1.000  C
  H34      1.0000 0.69680  0.71920  0.68690  Biso   1.000  H
  C70      1.0000 0.76320  0.63560  0.72818  Biso   1.000  C
  C71      1.0000 0.82110  0.58540  0.72866  Biso   1.000  C
  H35      1.0000 0.84060  0.55700  0.75600  Biso   1.000  H
  C72      1.0000 0.73130  0.63600  0.77065  Biso   1.000  C
  C73      1.0000 0.75830  0.68940  0.81159  Biso   1.000  C
  H36      1.0000 0.79640  0.73020  0.81230  Biso   1.000  H
  C74      1.0000 0.72910  0.68300  0.85168  Biso   1.000  C
  C75      1.0000 0.67200  0.61990  0.85024  Biso   1.000  C
  H37      1.0000 0.65220  0.61380  0.87670  Biso   1.000  H
  C76      1.0000 0.64450  0.56600  0.80936  Biso   1.000  C
  C77      1.0000 0.67470  0.57630  0.77044  Biso   1.000  C
  H38      1.0000 0.65620  0.54190  0.74320  Biso   1.000  H
  C78      1.0000 0.75920  0.73940  0.89529  Biso   1.000  C
  C79      1.0000 0.58470  0.48950  0.80819  Biso   1.000  C
  C80      1.0000 0.73550  0.73010  0.60293  Biso   1.000  C
  O37      1.0000 0.94238  0.53630  0.72741  Biso   1.000  O
  O38      1.0000 0.93403  0.47970  0.65311  Biso   1.000  O
  O39      1.0000 0.76811  0.74480  0.57015  Biso   1.000  O
  O40      1.0000 0.68204  0.75230  0.60000  Biso   1.000  O
  O41      1.0000 0.56116  0.45380  0.76979  Biso   1.000  O
  O42      1.0000 0.56065  0.45740  0.84449  Biso   1.000  O
  O43      1.0000 0.72866  0.76260  0.92906  Biso   1.000  O
  O44      1.0000 0.81279  0.76430  0.89670  Biso   1.000  O
  O45      1.0000 0.02868  0.74290  0.67794  Biso   1.000  O
  H39      1.0000 0.00030  0.79390  0.66610  Biso   1.000  H
  H40      1.0000 0.05680  0.80740  0.67380  Biso   1.000  H
  Mn6      1.0000 0.52423  0.96397  0.64329  Biso   1.000  Mn
  C81      1.0000 0.41330  0.02550  0.68980  Biso   1.000  C
  C82      1.0000 0.35050  0.07690  0.68907  Biso   1.000  C
  C83      1.0000 0.32160  0.12210  0.64873  Biso   1.000  C
  H41      1.0000 0.34090  0.11520  0.62210  Biso   1.000  H
  C84      1.0000 0.26460  0.17710  0.64729  Biso   1.000  C
  C85      1.0000 0.23540  0.18290  0.68759  Biso   1.000  C
  H42      1.0000 0.19680  0.21920  0.68690  Biso   1.000  H
  C86      1.0000 0.26320  0.13560  0.72818  Biso   1.000  C
  C87      1.0000 0.32110  0.08540  0.72866  Biso   1.000  C
  H43      1.0000 0.34060  0.05700  0.75600  Biso   1.000  H
  C88      1.0000 0.23130  0.13600  0.77065  Biso   1.000  C
  C89      1.0000 0.25830  0.18940  0.81159  Biso   1.000  C
  H44      1.0000 0.29640  0.23020  0.81230  Biso   1.000  H
  C90      1.0000 0.22910  0.18300  0.85168  Biso   1.000  C
  C91      1.0000 0.17200  0.11990  0.85024  Biso   1.000  C
  H45      1.0000 0.15220  0.11380  0.87670  Biso   1.000  H
  C92      1.0000 0.14450  0.06600  0.80936  Biso   1.000  C
  C93      1.0000 0.17470  0.07630  0.77044  Biso   1.000  C
  H46      1.0000 0.15620  0.04190  0.74320  Biso   1.000  H
  C94      1.0000 0.25920  0.23940  0.89529  Biso   1.000  C
  C95      1.0000 0.08470  0.98950  0.80819  Biso   1.000  C
  C96      1.0000 0.23550  0.23010  0.60293  Biso   1.000  C
  O46      1.0000 0.44238  0.03630  0.72741  Biso   1.000  O
  O47      1.0000 0.43403  0.97970  0.65311  Biso   1.000  O
  O48      1.0000 0.26811  0.24480  0.57015  Biso   1.000  O
  O49      1.0000 0.18204  0.25230  0.60000  Biso   1.000  O
  O50      1.0000 0.06116  0.95380  0.76979  Biso   1.000  O
  O51      1.0000 0.06065  0.95740  0.84449  Biso   1.000  O
  O52      1.0000 0.22866  0.26260  0.92906  Biso   1.000  O
  O53      1.0000 0.31279  0.26430  0.89670  Biso   1.000  O
  O54      1.0000 0.52868  0.24290  0.67794  Biso   1.000  O
  H47      1.0000 0.50030  0.29390  0.66610  Biso   1.000  H
  H48      1.0000 0.55680  0.30740  0.67380  Biso   1.000  H
  Mn7      1.0000 0.97577  0.46397  0.85671  Biso   1.000  Mn
  C97      1.0000 0.08670  0.52550  0.81020  Biso   1.000  C
  C98      1.0000 0.14950  0.57690  0.81093  Biso   1.000  C
  C99      1.0000 0.17840  0.62210  0.85127  Biso   1.000  C
  H49      1.0000 0.15910  0.61520  0.87790  Biso   1.000  H
  C100     1.0000 0.23540  0.67710  0.85271  Biso   1.000  C
  C101     1.0000 0.26460  0.68290  0.81241  Biso   1.000  C
  H50      1.0000 0.30320  0.71920  0.81310  Biso   1.000  H
  C102     1.0000 0.23680  0.63560  0.77182  Biso   1.000  C
  C103     1.0000 0.17890  0.58540  0.77134  Biso   1.000  C
  H51      1.0000 0.15940  0.55700  0.74400  Biso   1.000  H
  C104     1.0000 0.26870  0.63600  0.72935  Biso   1.000  C
  C105     1.0000 0.24170  0.68940  0.68841  Biso   1.000  C
  H52      1.0000 0.20360  0.73020  0.68770  Biso   1.000  H
  C106     1.0000 0.27090  0.68300  0.64832  Biso   1.000  C
  C107     1.0000 0.32800  0.61990  0.64976  Biso   1.000  C
  H53      1.0000 0.34780  0.61380  0.62330  Biso   1.000  H
  C108     1.0000 0.35550  0.56600  0.69064  Biso   1.000  C
  C109     1.0000 0.32530  0.57630  0.72956  Biso   1.000  C
  H54      1.0000 0.34380  0.54190  0.75680  Biso   1.000  H
  C110     1.0000 0.24080  0.73940  0.60471  Biso   1.000  C
  C111     1.0000 0.41530  0.48950  0.69181  Biso   1.000  C
  C112     1.0000 0.26450  0.73010  0.89707  Biso   1.000  C
  O55      1.0000 0.05762  0.53630  0.77259  Biso   1.000  O
  O56      1.0000 0.06597  0.47970  0.84689  Biso   1.000  O
  O57      1.0000 0.23189  0.74480  0.92985  Biso   1.000  O
  O58      1.0000 0.31796  0.75230  0.90000  Biso   1.000  O
  O59      1.0000 0.43884  0.45380  0.73021  Biso   1.000  O
  O60      1.0000 0.43935  0.45740  0.65551  Biso   1.000  O
  O61      1.0000 0.27134  0.76260  0.57094  Biso   1.000  O
  O62      1.0000 0.18721  0.76430  0.60330  Biso   1.000  O
  O63      1.0000 0.97132  0.74290  0.82206  Biso   1.000  O
  H55      1.0000 0.99970  0.79390  0.83390  Biso   1.000  H
  H56      1.0000 0.94320  0.80740  0.82620  Biso   1.000  H
  Mn8      1.0000 0.47577  0.96397  0.85671  Biso   1.000  Mn
  C113     1.0000 0.58670  0.02550  0.81020  Biso   1.000  C
  C114     1.0000 0.64950  0.07690  0.81093  Biso   1.000  C
  C115     1.0000 0.67840  0.12210  0.85127  Biso   1.000  C
  H57      1.0000 0.65910  0.11520  0.87790  Biso   1.000  H
  C116     1.0000 0.73540  0.17710  0.85271  Biso   1.000  C
  C117     1.0000 0.76460  0.18290  0.81241  Biso   1.000  C
  H58      1.0000 0.80320  0.21920  0.81310  Biso   1.000  H
  C118     1.0000 0.73680  0.13560  0.77182  Biso   1.000  C
  C119     1.0000 0.67890  0.08540  0.77134  Biso   1.000  C
  H59      1.0000 0.65940  0.05700  0.74400  Biso   1.000  H
  C120     1.0000 0.76870  0.13600  0.72935  Biso   1.000  C
  C121     1.0000 0.74170  0.18940  0.68841  Biso   1.000  C
  H60      1.0000 0.70360  0.23020  0.68770  Biso   1.000  H
  C122     1.0000 0.77090  0.18300  0.64832  Biso   1.000  C
  C123     1.0000 0.82800  0.11990  0.64976  Biso   1.000  C
  H61      1.0000 0.84780  0.11380  0.62330  Biso   1.000  H
  C124     1.0000 0.85550  0.06600  0.69064  Biso   1.000  C
  C125     1.0000 0.82530  0.07630  0.72956  Biso   1.000  C
  H62      1.0000 0.84380  0.04190  0.75680  Biso   1.000  H
  C126     1.0000 0.74080  0.23940  0.60471  Biso   1.000  C
  C127     1.0000 0.91530  0.98950  0.69181  Biso   1.000  C
  C128     1.0000 0.76450  0.23010  0.89707  Biso   1.000  C
  O64      1.0000 0.55762  0.03630  0.77259  Biso   1.000  O
  O65      1.0000 0.56597  0.97970  0.84689  Biso   1.000  O
  O66      1.0000 0.73189  0.24480  0.92985  Biso   1.000  O
  O67      1.0000 0.81796  0.25230  0.90000  Biso   1.000  O
  O68      1.0000 0.93884  0.95380  0.73021  Biso   1.000  O
  O69      1.0000 0.93935  0.95740  0.65551  Biso   1.000  O
  O70      1.0000 0.77134  0.26260  0.57094  Biso   1.000  O
  O71      1.0000 0.68721  0.26430  0.60330  Biso   1.000  O
  O72      1.0000 0.47132  0.24290  0.82206  Biso   1.000  O
  H63      1.0000 0.49970  0.29390  0.83390  Biso   1.000  H
  H64      1.0000 0.44320  0.30740  0.82620  Biso   1.000  H
  Mn9      1.0000 0.00000  0.24979  0.25000  Biso   1.000  Mn
  Mn10     1.0000 0.50000  0.74979  0.25000  Biso   1.000  Mn
  Mn11     1.0000 0.00000  0.75021  0.75000  Biso   1.000  Mn
  Mn12     1.0000 0.50000  0.25021  0.75000  Biso   1.000  Mn
  Mn13     1.0000 0.25000  0.25000  0.50000  Biso   1.000  Mn
  Mn14     1.0000 0.75000  0.25000  0.00000  Biso   1.000  Mn
  Mn15     1.0000 0.75000  0.75000  0.50000  Biso   1.000  Mn
  Mn16     1.0000 0.25000  0.75000  0.00000  Biso   1.000  Mn
