data_ALUJEX_clean
_audit_creation_date              2014-07-02
_audit_creation_method            'Materials Studio'
_symmetry_space_group_name_H-M    'P1'
_symmetry_Int_Tables_number       1
_symmetry_cell_setting            triclinic
loop_
_symmetry_equiv_pos_as_xyz
  x,y,z
_cell_length_a                    11.1068
_cell_length_b                    17.7727
_cell_length_c                    29.2280
_cell_angle_alpha                 86.6240
_cell_angle_beta                  79.6890
_cell_angle_gamma                 73.2750
loop_
_atom_site_label
_atom_site_type_symbol
_atom_site_fract_x
_atom_site_fract_y
_atom_site_fract_z
_atom_site_U_iso_or_equiv
_atom_site_adp_type
_atom_site_occupancy
La1    La    0.24423   0.28904   0.62053   0.01267  Uiso   1.00
La2    La    0.56055   0.39015   0.96487   0.01267  Uiso   1.00
La3    La    0.11608   0.50470   0.69072   0.01267  Uiso   1.00
La4    La    0.54628   0.11015   0.96415   0.01267  Uiso   1.00
La5    La    0.10755   0.79470   0.71050   0.01267  Uiso   1.00
La6    La    0.19843   0.01372   0.64335   0.01267  Uiso   1.00
La7    La    0.75577   0.71096   0.37947   0.01267  Uiso   1.00
La8    La    0.43945   0.60985   0.03513   0.01267  Uiso   1.00
La9    La    0.88392   0.49530   0.30928   0.01267  Uiso   1.00
La10   La    0.45372   0.88985   0.03585   0.01267  Uiso   1.00
La11   La    0.89245   0.20530   0.28950   0.01267  Uiso   1.00
La12   La    0.80157   0.98628   0.35665   0.01267  Uiso   1.00
H1     H     0.98970   0.26370   0.95030   0.01267  Uiso   1.00
H2     H     0.18430   0.20830   0.97390   0.01267  Uiso   1.00
H3     H     0.05010   0.03770   0.04000   0.01267  Uiso   1.00
H4     H     0.85580   0.09290   0.01590   0.01267  Uiso   1.00
H5     H     0.49810   0.00410   0.69490   0.01267  Uiso   1.00
H6     H     0.68280   0.94600   0.72250   0.01267  Uiso   1.00
H7     H     0.85590   0.08630   0.64210   0.01267  Uiso   1.00
H8     H     0.67110   0.14520   0.61420   0.01267  Uiso   1.00
H9     H     0.69050   0.62290   0.70620   0.01267  Uiso   1.00
H10    H     0.49100   0.68060   0.68720   0.01267  Uiso   1.00
H11    H     0.59600   0.87370   0.64470   0.01267  Uiso   1.00
H12    H     0.79330   0.81760   0.66680   0.01267  Uiso   1.00
H13    H     0.25420   0.84230   0.82940   0.01267  Uiso   1.00
H14    H     0.31020   0.86050   0.89980   0.01267  Uiso   1.00
H15    H     0.41070   0.05130   0.84760   0.01267  Uiso   1.00
H16    H     0.34920   0.03500   0.77860   0.01267  Uiso   1.00
H17    H     0.03800   0.23430   0.42150   0.01267  Uiso   1.00
H18    H     0.09510   0.25560   0.49100   0.01267  Uiso   1.00
H19    H     0.96650   0.07750   0.54920   0.01267  Uiso   1.00
H20    H     0.90850   0.05750   0.48080   0.01267  Uiso   1.00
H21    H     0.61880   0.28330   0.64270   0.01267  Uiso   1.00
H22    H     0.82410   0.26660   0.65600   0.01267  Uiso   1.00
H23    H     0.74390   0.49830   0.67190   0.01267  Uiso   1.00
H24    H     0.53900   0.51380   0.65980   0.01267  Uiso   1.00
H25    H     0.59950   0.29780   0.13060   0.01267  Uiso   1.00
H26    H     0.68520   0.50170   0.10430   0.01267  Uiso   1.00
H27    H     0.65120   0.29320   0.20330   0.01267  Uiso   1.00
H28    H     0.74850   0.49370   0.17620   0.01267  Uiso   1.00
H29    H     0.42670   0.38240   0.83420   0.01267  Uiso   1.00
H30    H     0.36780   0.39210   0.76190   0.01267  Uiso   1.00
H31    H     0.25930   0.19440   0.78930   0.01267  Uiso   1.00
H32    H     0.30890   0.19070   0.86300   0.01267  Uiso   1.00
H33    H     0.02900   0.60790   0.53140   0.01267  Uiso   1.00
H34    H     0.97160   0.61690   0.45900   0.01267  Uiso   1.00
H35    H     0.05620   0.60850   0.01660   0.01267  Uiso   1.00
H36    H     0.85280   0.62180   0.00470   0.01267  Uiso   1.00
H37    H     0.02300   0.14440   0.69470   0.01267  Uiso   1.00
H38    H     0.12580   0.12350   0.71830   0.01267  Uiso   1.00
H39    H     0.41150   0.29420   0.01200   0.01267  Uiso   1.00
H40    H     0.48870   0.23700   0.03590   0.01267  Uiso   1.00
H41    H     0.01030   0.73630   0.04970   0.01267  Uiso   1.00
H42    H     0.81570   0.79170   0.02610   0.01267  Uiso   1.00
H43    H     0.94990   0.96230   0.96000   0.01267  Uiso   1.00
H44    H     0.14420   0.90710   0.98410   0.01267  Uiso   1.00
H45    H     0.50190   0.99590   0.30510   0.01267  Uiso   1.00
H46    H     0.31720   0.05400   0.27750   0.01267  Uiso   1.00
H47    H     0.14410   0.91370   0.35790   0.01267  Uiso   1.00
H48    H     0.32890   0.85480   0.38580   0.01267  Uiso   1.00
H49    H     0.30950   0.37710   0.29380   0.01267  Uiso   1.00
H50    H     0.50900   0.31940   0.31280   0.01267  Uiso   1.00
H51    H     0.40400   0.12630   0.35530   0.01267  Uiso   1.00
H52    H     0.20670   0.18240   0.33320   0.01267  Uiso   1.00
H53    H     0.74580   0.15770   0.17060   0.01267  Uiso   1.00
H54    H     0.68980   0.13950   0.10020   0.01267  Uiso   1.00
H55    H     0.58930   0.94870   0.15240   0.01267  Uiso   1.00
H56    H     0.65080   0.96500   0.22140   0.01267  Uiso   1.00
H57    H     0.96200   0.76570   0.57850   0.01267  Uiso   1.00
H58    H     0.90490   0.74440   0.50900   0.01267  Uiso   1.00
H59    H     0.03350   0.92250   0.45080   0.01267  Uiso   1.00
H60    H     0.09150   0.94250   0.51920   0.01267  Uiso   1.00
H61    H     0.38120   0.71670   0.35730   0.01267  Uiso   1.00
H62    H     0.17590   0.73340   0.34400   0.01267  Uiso   1.00
H63    H     0.25610   0.50170   0.32810   0.01267  Uiso   1.00
H64    H     0.46100   0.48620   0.34020   0.01267  Uiso   1.00
H65    H     0.40050   0.70220   0.86940   0.01267  Uiso   1.00
H66    H     0.31480   0.49830   0.89570   0.01267  Uiso   1.00
H67    H     0.34880   0.70680   0.79670   0.01267  Uiso   1.00
H68    H     0.25150   0.50630   0.82380   0.01267  Uiso   1.00
H69    H     0.57330   0.61760   0.16580   0.01267  Uiso   1.00
H70    H     0.63220   0.60790   0.23810   0.01267  Uiso   1.00
H71    H     0.74070   0.80560   0.21070   0.01267  Uiso   1.00
H72    H     0.69110   0.80930   0.13700   0.01267  Uiso   1.00
H73    H     0.97100   0.39210   0.46860   0.01267  Uiso   1.00
H74    H     0.02840   0.38310   0.54100   0.01267  Uiso   1.00
H75    H     0.94380   0.39150   0.98340   0.01267  Uiso   1.00
H76    H     0.14720   0.37820   0.99530   0.01267  Uiso   1.00
H77    H     0.97700   0.85560   0.30530   0.01267  Uiso   1.00
H78    H     0.87420   0.87650   0.28170   0.01267  Uiso   1.00
H79    H     0.58850   0.70580   0.98800   0.01267  Uiso   1.00
H80    H     0.51130   0.76300   0.96410   0.01267  Uiso   1.00
C1     C     0.90570   0.18210   0.97959   0.01267  Uiso   1.00
C2     C     0.00260   0.21760   0.96790   0.01267  Uiso   1.00
C3     C     0.11850   0.18480   0.98230   0.01267  Uiso   1.00
C4     C     0.13680   0.11650   0.00940   0.01267  Uiso   1.00
C5     C     0.03850   0.08290   0.02170   0.01267  Uiso   1.00
C6     C     0.92220   0.11570   0.00710   0.01267  Uiso   1.00
C7     C     0.78410   0.21430   0.96020   0.01267  Uiso   1.00
C8     C     0.26420   0.07910   0.02380   0.01267  Uiso   1.00
C9     C     0.56550   0.08000   0.65110   0.01267  Uiso   1.00
C10    C     0.57040   0.02060   0.68400   0.01267  Uiso   1.00
C11    C     0.68040   0.98620   0.70050   0.01267  Uiso   1.00
C12    C     0.78780   0.00980   0.68510   0.01267  Uiso   1.00
C13    C     0.78350   0.06970   0.65260   0.01267  Uiso   1.00
C14    C     0.67360   0.10460   0.63590   0.01267  Uiso   1.00
C15    C     0.44570   0.11650   0.63080   0.01267  Uiso   1.00
C16    C     0.91070   0.96830   0.70230   0.01267  Uiso   1.00
C17    C     0.67070   0.67420   0.69490   0.01267  Uiso   1.00
C18    C     0.55170   0.70820   0.68280   0.01267  Uiso   1.00
C19    C     0.52340   0.78340   0.66430   0.01267  Uiso   1.00
C20    C     0.61400   0.82370   0.65790   0.01267  Uiso   1.00
C21    C     0.73260   0.78990   0.67100   0.01267  Uiso   1.00
C22    C     0.76010   0.71530   0.69025   0.01267  Uiso   1.00
C23    C     0.39330   0.82240   0.65220   0.01267  Uiso   1.00
C24    C     0.88560   0.68250   0.70668   0.01267  Uiso   1.00
C25    C     0.28420   0.88490   0.83320   0.01267  Uiso   1.00
C26    C     0.31900   0.89550   0.87530   0.01267  Uiso   1.00
C27    C     0.36690   0.95790   0.88110   0.01267  Uiso   1.00
C28    C     0.37820   0.00960   0.84440   0.01267  Uiso   1.00
C29    C     0.34170   0.99960   0.80290   0.01267  Uiso   1.00
C30    C     0.29420   0.93750   0.79733   0.01267  Uiso   1.00
C31    C     0.40690   0.96840   0.92620   0.01267  Uiso   1.00
C32    C     0.24960   0.92870   0.75290   0.01267  Uiso   1.00
C33    C     0.02420   0.20250   0.44720   0.01267  Uiso   1.00
C34    C     0.05900   0.21510   0.48880   0.01267  Uiso   1.00
C35    C     0.03970   0.16680   0.52730   0.01267  Uiso   1.00
C36    C     0.98200   0.10890   0.52350   0.01267  Uiso   1.00
C37    C     0.94720   0.09690   0.48260   0.01267  Uiso   1.00
C38    C     0.96900   0.14290   0.44390   0.01267  Uiso   1.00
C39    C     0.08680   0.17490   0.57090   0.01267  Uiso   1.00
C40    C     0.93260   0.12670   0.39920   0.01267  Uiso   1.00
C41    C     0.64420   0.32700   0.64840   0.01267  Uiso   1.00
C42    C     0.76760   0.31670   0.65630   0.01267  Uiso   1.00
C43    C     0.80590   0.38100   0.66470   0.01267  Uiso   1.00
C44    C     0.71930   0.45460   0.66590   0.01267  Uiso   1.00
C45    C     0.59680   0.46400   0.65840   0.01267  Uiso   1.00
C46    C     0.56000   0.39950   0.64880   0.01267  Uiso   1.00
C47    C     0.42770   0.40910   0.63880   0.01267  Uiso   1.00
C48    C     0.93840   0.37210   0.67340   0.01267  Uiso   1.00
C49    C     0.62750   0.33800   0.14000   0.01267  Uiso   1.00
C50    C     0.63600   0.39980   0.11014   0.01267  Uiso   1.00
C51    C     0.68000   0.45930   0.12400   0.01267  Uiso   1.00
C52    C     0.65950   0.33470   0.18330   0.01267  Uiso   1.00
C53    C     0.60150   0.40260   0.06280   0.01267  Uiso   1.00
C54    C     0.74460   0.38950   0.24360   0.01267  Uiso   1.00
C55    C     0.71620   0.45500   0.16740   0.01267  Uiso   1.00
C56    C     0.70470   0.39390   0.19740   0.01267  Uiso   1.00
C57    C     0.41340   0.28060   0.90261   0.01267  Uiso   1.00
C58    C     0.37330   0.28600   0.85611   0.01267  Uiso   1.00
C59    C     0.39120   0.34520   0.82540   0.01267  Uiso   1.00
C60    C     0.35760   0.35070   0.78180   0.01267  Uiso   1.00
C61    C     0.30840   0.29370   0.76780   0.01267  Uiso   1.00
C62    C     0.29140   0.23300   0.79840   0.01267  Uiso   1.00
C63    C     0.32250   0.23050   0.84240   0.01267  Uiso   1.00
C64    C     0.27440   0.29690   0.72040   0.01267  Uiso   1.00
C65    C     0.01720   0.56420   0.51880   0.01267  Uiso   1.00
C66    C     0.98310   0.56960   0.47540   0.01267  Uiso   1.00
C67    C     0.03390   0.49450   0.54400   0.01267  Uiso   1.00
C68    C     0.06760   0.49020   0.59150   0.01267  Uiso   1.00
C69    C     0.03370   0.56430   0.01000   0.01267  Uiso   1.00
C70    C     0.91210   0.57250   0.00260   0.01267  Uiso   1.00
C71    C     0.25510   0.48450   0.01750   0.01267  Uiso   1.00
C72    C     0.12270   0.49230   0.00792   0.01267  Uiso   1.00
C73    C     0.09430   0.81790   0.02041   0.01267  Uiso   1.00
C74    C     0.99740   0.78240   0.03210   0.01267  Uiso   1.00
C75    C     0.88150   0.81520   0.01770   0.01267  Uiso   1.00
C76    C     0.86320   0.88350   0.99060   0.01267  Uiso   1.00
C77    C     0.96150   0.91710   0.97830   0.01267  Uiso   1.00
C78    C     0.07780   0.88430   0.99290   0.01267  Uiso   1.00
C79    C     0.21590   0.78570   0.03980   0.01267  Uiso   1.00
C80    C     0.73580   0.92090   0.97620   0.01267  Uiso   1.00
C81    C     0.43450   0.92000   0.34890   0.01267  Uiso   1.00
C82    C     0.42960   0.97940   0.31600   0.01267  Uiso   1.00
C83    C     0.31960   0.01380   0.29950   0.01267  Uiso   1.00
C84    C     0.21220   0.99020   0.31490   0.01267  Uiso   1.00
C85    C     0.21650   0.93030   0.34740   0.01267  Uiso   1.00
C86    C     0.32640   0.89540   0.36410   0.01267  Uiso   1.00
C87    C     0.55430   0.88350   0.36920   0.01267  Uiso   1.00
C88    C     0.08930   0.03170   0.29770   0.01267  Uiso   1.00
C89    C     0.32930   0.32580   0.30510   0.01267  Uiso   1.00
C90    C     0.44830   0.29180   0.31720   0.01267  Uiso   1.00
C91    C     0.47660   0.21660   0.33570   0.01267  Uiso   1.00
C92    C     0.38600   0.17630   0.34210   0.01267  Uiso   1.00
C93    C     0.26740   0.21010   0.32900   0.01267  Uiso   1.00
C94    C     0.23990   0.28470   0.30975   0.01267  Uiso   1.00
C95    C     0.60670   0.17760   0.34780   0.01267  Uiso   1.00
C96    C     0.11440   0.31750   0.29332   0.01267  Uiso   1.00
C97    C     0.71580   0.11510   0.16680   0.01267  Uiso   1.00
C98    C     0.68100   0.10450   0.12470   0.01267  Uiso   1.00
C99    C     0.63310   0.04210   0.11890   0.01267  Uiso   1.00
C100   C     0.62180   0.99040   0.15560   0.01267  Uiso   1.00
C101   C     0.65830   0.00040   0.19710   0.01267  Uiso   1.00
C102   C     0.70580   0.06250   0.20267   0.01267  Uiso   1.00
C103   C     0.59310   0.03160   0.07380   0.01267  Uiso   1.00
C104   C     0.75040   0.07130   0.24710   0.01267  Uiso   1.00
C105   C     0.97580   0.79750   0.55280   0.01267  Uiso   1.00
C106   C     0.94100   0.78490   0.51120   0.01267  Uiso   1.00
C107   C     0.96030   0.83320   0.47270   0.01267  Uiso   1.00
C108   C     0.01800   0.89110   0.47650   0.01267  Uiso   1.00
C109   C     0.05280   0.90310   0.51740   0.01267  Uiso   1.00
C110   C     0.03100   0.85710   0.55610   0.01267  Uiso   1.00
C111   C     0.91320   0.82510   0.42910   0.01267  Uiso   1.00
C112   C     0.06740   0.87330   0.60080   0.01267  Uiso   1.00
C113   C     0.35580   0.67300   0.35160   0.01267  Uiso   1.00
C114   C     0.23240   0.68330   0.34370   0.01267  Uiso   1.00
C115   C     0.19410   0.61900   0.33530   0.01267  Uiso   1.00
C116   C     0.28070   0.54540   0.33410   0.01267  Uiso   1.00
C117   C     0.40320   0.53600   0.34160   0.01267  Uiso   1.00
C118   C     0.44000   0.60050   0.35120   0.01267  Uiso   1.00
C119   C     0.57230   0.59090   0.36120   0.01267  Uiso   1.00
C120   C     0.06160   0.62790   0.32660   0.01267  Uiso   1.00
C121   C     0.37250   0.66200   0.86000   0.01267  Uiso   1.00
C122   C     0.36400   0.60020   0.88986   0.01267  Uiso   1.00
C123   C     0.32000   0.54070   0.87600   0.01267  Uiso   1.00
C124   C     0.34050   0.66530   0.81670   0.01267  Uiso   1.00
C125   C     0.39850   0.59740   0.93720   0.01267  Uiso   1.00
C126   C     0.25540   0.61050   0.75640   0.01267  Uiso   1.00
C127   C     0.28380   0.54500   0.83260   0.01267  Uiso   1.00
C128   C     0.29530   0.60610   0.80260   0.01267  Uiso   1.00
C129   C     0.58660   0.71940   0.09739   0.01267  Uiso   1.00
C130   C     0.62670   0.71400   0.14389   0.01267  Uiso   1.00
C131   C     0.60880   0.65480   0.17460   0.01267  Uiso   1.00
C132   C     0.64240   0.64930   0.21820   0.01267  Uiso   1.00
C133   C     0.69160   0.70630   0.23220   0.01267  Uiso   1.00
C134   C     0.70860   0.76700   0.20160   0.01267  Uiso   1.00
C135   C     0.67750   0.76950   0.15760   0.01267  Uiso   1.00
C136   C     0.72560   0.70310   0.27960   0.01267  Uiso   1.00
C137   C     0.98280   0.43580   0.48120   0.01267  Uiso   1.00
C138   C     0.01690   0.43040   0.52460   0.01267  Uiso   1.00
C139   C     0.96610   0.50550   0.45600   0.01267  Uiso   1.00
C140   C     0.93240   0.50980   0.40850   0.01267  Uiso   1.00
C141   C     0.96630   0.43570   0.99000   0.01267  Uiso   1.00
C142   C     0.08790   0.42750   0.99740   0.01267  Uiso   1.00
C143   C     0.74490   0.51550   0.98250   0.01267  Uiso   1.00
C144   C     0.87730   0.50770   0.99208   0.01267  Uiso   1.00
O1     O     0.72010   0.16700   0.95799   0.01267  Uiso   1.00
O2     O     0.75580   0.28230   0.94517   0.01267  Uiso   1.00
O3     O     0.34520   0.11600   0.01491   0.01267  Uiso   1.00
O4     O     0.27920   0.01510   0.04455   0.01267  Uiso   1.00
O5     O     0.43840   0.17710   0.60670   0.01267  Uiso   1.00
O6     O     0.36090   0.08270   0.63911   0.01267  Uiso   1.00
O7     O     0.00450   0.99400   0.69029   0.01267  Uiso   1.00
O8     O     0.91390   0.90910   0.72805   0.01267  Uiso   1.00
O9     O     0.37330   0.89070   0.63597   0.01267  Uiso   1.00
O10    O     0.31230   0.78370   0.65925   0.01267  Uiso   1.00
O11    O     0.92090   0.61010   0.71425   0.01267  Uiso   1.00
O12    O     0.94420   0.72820   0.71476   0.01267  Uiso   1.00
O13    O     0.25770   0.97970   0.72145   0.01267  Uiso   1.00
O14    O     0.44940   0.02510   0.92917   0.01267  Uiso   1.00
O15    O     0.39380   0.91960   0.95803   0.01267  Uiso   1.00
O16    O     0.88510   0.07150   0.39906   0.01267  Uiso   1.00
O17    O     0.95320   0.17010   0.36533   0.01267  Uiso   1.00
O18    O     0.07180   0.12690   0.60290   0.01267  Uiso   1.00
O19    O     0.14100   0.22720   0.57268   0.01267  Uiso   1.00
O20    O     0.34410   0.47330   0.64976   0.01267  Uiso   1.00
O21    O     0.41110   0.35420   0.61907   0.01267  Uiso   1.00
O22    O     0.02220   0.30880   0.66395   0.01267  Uiso   1.00
O23    O     0.95450   0.43120   0.69101   0.01267  Uiso   1.00
O24    O     0.62690   0.34020   0.04174   0.01267  Uiso   1.00
O25    O     0.54810   0.46820   0.04585   0.01267  Uiso   1.00
O26    O     0.74550   0.32900   0.26805   0.01267  Uiso   1.00
O27    O     0.77600   0.44620   0.25597   0.01267  Uiso   1.00
O28    O     0.45540   0.33360   0.91365   0.01267  Uiso   1.00
O29    O     0.40210   0.22270   0.92789   0.01267  Uiso   1.00
O30    O     0.28970   0.23500   0.70038   0.01267  Uiso   1.00
O31    O     0.23090   0.36300   0.70201   0.01267  Uiso   1.00
O32    O     0.03550   0.55100   0.61495   0.01267  Uiso   1.00
O33    O     0.13070   0.42540   0.60634   0.01267  Uiso   1.00
O34    O     0.33760   0.42150   0.00734   0.01267  Uiso   1.00
O35    O     0.27050   0.54160   0.03544   0.01267  Uiso   1.00
O36    O     0.20830   0.87170   0.74936   0.01267  Uiso   1.00
O37    O     0.10390   0.13110   0.69159   0.01267  Uiso   1.00
O38    O     0.47700   0.25460   0.00884   0.01267  Uiso   1.00
O39    O     0.27990   0.83300   0.04201   0.01267  Uiso   1.00
O40    O     0.24420   0.71770   0.05483   0.01267  Uiso   1.00
O41    O     0.65480   0.88400   0.98509   0.01267  Uiso   1.00
O42    O     0.72080   0.98490   0.95545   0.01267  Uiso   1.00
O43    O     0.56160   0.82290   0.39330   0.01267  Uiso   1.00
O44    O     0.63910   0.91730   0.36089   0.01267  Uiso   1.00
O45    O     0.99550   0.00600   0.30971   0.01267  Uiso   1.00
O46    O     0.08610   0.09090   0.27195   0.01267  Uiso   1.00
O47    O     0.62670   0.10930   0.36403   0.01267  Uiso   1.00
O48    O     0.68770   0.21630   0.34075   0.01267  Uiso   1.00
O49    O     0.07910   0.38990   0.28575   0.01267  Uiso   1.00
O50    O     0.05580   0.27180   0.28524   0.01267  Uiso   1.00
O51    O     0.74230   0.02030   0.27855   0.01267  Uiso   1.00
O52    O     0.55060   0.97490   0.07083   0.01267  Uiso   1.00
O53    O     0.60620   0.08040   0.04197   0.01267  Uiso   1.00
O54    O     0.11490   0.92850   0.60094   0.01267  Uiso   1.00
O55    O     0.04680   0.82990   0.63467   0.01267  Uiso   1.00
O56    O     0.92820   0.87310   0.39710   0.01267  Uiso   1.00
O57    O     0.85900   0.77280   0.42732   0.01267  Uiso   1.00
O58    O     0.65590   0.52670   0.35024   0.01267  Uiso   1.00
O59    O     0.58890   0.64580   0.38093   0.01267  Uiso   1.00
O60    O     0.97780   0.69120   0.33605   0.01267  Uiso   1.00
O61    O     0.04550   0.56880   0.30899   0.01267  Uiso   1.00
O62    O     0.37310   0.65980   0.95826   0.01267  Uiso   1.00
O63    O     0.45190   0.53180   0.95415   0.01267  Uiso   1.00
O64    O     0.25450   0.67100   0.73195   0.01267  Uiso   1.00
O65    O     0.22400   0.55380   0.74403   0.01267  Uiso   1.00
O66    O     0.54460   0.66640   0.08635   0.01267  Uiso   1.00
O67    O     0.59790   0.77730   0.07211   0.01267  Uiso   1.00
O68    O     0.71030   0.76500   0.29962   0.01267  Uiso   1.00
O69    O     0.76910   0.63700   0.29799   0.01267  Uiso   1.00
O70    O     0.96450   0.44900   0.38505   0.01267  Uiso   1.00
O71    O     0.86930   0.57460   0.39366   0.01267  Uiso   1.00
O72    O     0.66240   0.57850   0.99266   0.01267  Uiso   1.00
O73    O     0.72950   0.45840   0.96456   0.01267  Uiso   1.00
O74    O     0.79170   0.12830   0.25064   0.01267  Uiso   1.00
O75    O     0.89610   0.86890   0.30841   0.01267  Uiso   1.00
O76    O     0.52300   0.74540   0.99116   0.01267  Uiso   1.00
