data_ALUJUN_clean
_audit_creation_date              2014-07-02
_audit_creation_method            'Materials Studio'
_symmetry_space_group_name_H-M    'P1'
_symmetry_Int_Tables_number       1
_symmetry_cell_setting            triclinic
loop_
_symmetry_equiv_pos_as_xyz
  x,y,z
_cell_length_a                    8.6130
_cell_length_b                    10.1220
_cell_length_c                    11.0950
_cell_angle_alpha                 65.2050
_cell_angle_beta                  71.6090
_cell_angle_gamma                 78.6170
loop_
_atom_site_label
_atom_site_type_symbol
_atom_site_fract_x
_atom_site_fract_y
_atom_site_fract_z
_atom_site_U_iso_or_equiv
_atom_site_adp_type
_atom_site_occupancy
Y1     Y     0.36688   0.06328   0.33869   0.01267  Uiso   1.00
Y2     Y     0.63312   0.93672   0.66131   0.01267  Uiso   1.00
H1     H     0.55380   0.72270   0.31400   0.01267  Uiso   1.00
H2     H     0.49480   0.47520   0.71840   0.01267  Uiso   1.00
H3     H     0.95840   0.15110   0.11580   0.01267  Uiso   1.00
H4     H     0.78100   0.88430   0.01320   0.01267  Uiso   1.00
H5     H     0.27580   0.44800   0.91610   0.01267  Uiso   1.00
H6     H     0.86580   0.37080   0.22920   0.01267  Uiso   1.00
H7     H     0.44620   0.27730   0.68600   0.01267  Uiso   1.00
H8     H     0.50520   0.52480   0.28160   0.01267  Uiso   1.00
H9     H     0.04160   0.84890   0.88420   0.01267  Uiso   1.00
H10    H     0.21900   0.11570   0.98680   0.01267  Uiso   1.00
H11    H     0.72420   0.55200   0.08390   0.01267  Uiso   1.00
H12    H     0.13420   0.62920   0.77080   0.01267  Uiso   1.00
C1     C     0.55690   0.74500   0.54370   0.01267  Uiso   1.00
C2     C     0.52840   0.61880   0.51960   0.01267  Uiso   1.00
C3     C     0.53220   0.63410   0.38800   0.01267  Uiso   1.00
C4     C     0.49660   0.48440   0.63100   0.01267  Uiso   1.00
C5     C     0.67410   0.04580   0.16100   0.01267  Uiso   1.00
C6     C     0.84340   0.02080   0.07870   0.01267  Uiso   1.00
C7     C     0.97670   0.08990   0.06860   0.01267  Uiso   1.00
C8     C     0.86750   0.93020   0.00840   0.01267  Uiso   1.00
C9     C     0.17690   0.27050   0.17980   0.01267  Uiso   1.00
C10    C     0.08340   0.39130   0.08840   0.01267  Uiso   1.00
C11    C     0.16440   0.46990   0.94900   0.01267  Uiso   1.00
C12    C     0.91960   0.42200   0.13810   0.01267  Uiso   1.00
C13    C     0.44310   0.25500   0.45630   0.01267  Uiso   1.00
C14    C     0.47160   0.38120   0.48040   0.01267  Uiso   1.00
C15    C     0.46780   0.36590   0.61200   0.01267  Uiso   1.00
C16    C     0.50340   0.51560   0.36900   0.01267  Uiso   1.00
C17    C     0.32590   0.95420   0.83900   0.01267  Uiso   1.00
C18    C     0.15660   0.97920   0.92130   0.01267  Uiso   1.00
C19    C     0.02330   0.91010   0.93140   0.01267  Uiso   1.00
C20    C     0.13250   0.06980   0.99160   0.01267  Uiso   1.00
C21    C     0.82310   0.72950   0.82020   0.01267  Uiso   1.00
C22    C     0.91660   0.60870   0.91160   0.01267  Uiso   1.00
C23    C     0.83560   0.53010   0.05100   0.01267  Uiso   1.00
C24    C     0.08040   0.57800   0.86190   0.01267  Uiso   1.00
O1     O     0.51840   0.87220   0.46840   0.01267  Uiso   1.00
O2     O     0.62230   0.72030   0.63860   0.01267  Uiso   1.00
O3     O     0.65540   0.12250   0.22970   0.01267  Uiso   1.00
O4     O     0.55260   0.98850   0.16440   0.01267  Uiso   1.00
O5     O     0.10500   0.19680   0.30580   0.01267  Uiso   1.00
O6     O     0.32630   0.24490   0.12680   0.01267  Uiso   1.00
O7     O     0.48160   0.12780   0.53160   0.01267  Uiso   1.00
O8     O     0.37770   0.27970   0.36140   0.01267  Uiso   1.00
O9     O     0.34460   0.87750   0.77030   0.01267  Uiso   1.00
O10    O     0.44740   0.01150   0.83560   0.01267  Uiso   1.00
O11    O     0.89500   0.80320   0.69420   0.01267  Uiso   1.00
O12    O     0.67370   0.75510   0.87320   0.01267  Uiso   1.00
