data_ALUKIC_clean
_audit_creation_date              2014-07-02
_audit_creation_method            'Materials Studio'
_symmetry_space_group_name_H-M    'P1'
_symmetry_Int_Tables_number       1
_symmetry_cell_setting            triclinic
loop_
_symmetry_equiv_pos_as_xyz
  x,y,z
_cell_length_a                    16.1035
_cell_length_b                    16.1035
_cell_length_c                    28.1280
_cell_angle_alpha                 79.3908
_cell_angle_beta                  79.3908
_cell_angle_gamma                 63.1772
loop_
_atom_site_label
_atom_site_type_symbol
_atom_site_fract_x
_atom_site_fract_y
_atom_site_fract_z
_atom_site_U_iso_or_equiv
_atom_site_adp_type
_atom_site_occupancy
Ce1    Ce    0.53122   0.06662   0.04610   0.01267  Uiso   1.00
Ce2    Ce    0.93338   0.46878   0.45390   0.01267  Uiso   1.00
Ce3    Ce    0.46878   0.93338   0.95390   0.01267  Uiso   1.00
Ce4    Ce    0.06662   0.53122   0.54610   0.01267  Uiso   1.00
H1     H     0.63380   0.06440   0.20340   0.01267  Uiso   1.00
H2     H     0.70690   0.10570   0.25350   0.01267  Uiso   1.00
H3     H     0.84220   0.19380   0.13350   0.01267  Uiso   1.00
H4     H     0.76030   0.16110   0.08570   0.01267  Uiso   1.00
H5     H     0.32530   0.82770   0.09000   0.01267  Uiso   1.00
H6     H     0.26230   0.76570   0.15910   0.01267  Uiso   1.00
H7     H     0.36620   0.86600   0.24220   0.01267  Uiso   1.00
H8     H     0.43040   0.93140   0.17050   0.01267  Uiso   1.00
H9     H     0.82390   0.78830   0.05600   0.01267  Uiso   1.00
H10    H     0.94920   0.64640   0.04260   0.01267  Uiso   1.00
H11    H     0.80750   0.58850   0.96090   0.01267  Uiso   1.00
H12    H     0.68240   0.73220   0.96880   0.01267  Uiso   1.00
H13    H     0.93560   0.36620   0.29660   0.01267  Uiso   1.00
H14    H     0.89430   0.29310   0.24650   0.01267  Uiso   1.00
H15    H     0.80620   0.15780   0.36650   0.01267  Uiso   1.00
H16    H     0.83890   0.23970   0.41430   0.01267  Uiso   1.00
H17    H     0.17230   0.67470   0.41000   0.01267  Uiso   1.00
H18    H     0.23430   0.73770   0.34090   0.01267  Uiso   1.00
H19    H     0.13400   0.63380   0.25780   0.01267  Uiso   1.00
H20    H     0.06860   0.56960   0.32950   0.01267  Uiso   1.00
H21    H     0.21170   0.17610   0.44400   0.01267  Uiso   1.00
H22    H     0.35360   0.05080   0.45740   0.01267  Uiso   1.00
H23    H     0.41150   0.19250   0.53910   0.01267  Uiso   1.00
H24    H     0.26780   0.31760   0.53120   0.01267  Uiso   1.00
H25    H     0.36620   0.93560   0.79660   0.01267  Uiso   1.00
H26    H     0.29310   0.89430   0.74650   0.01267  Uiso   1.00
H27    H     0.15780   0.80620   0.86650   0.01267  Uiso   1.00
H28    H     0.23970   0.83890   0.91430   0.01267  Uiso   1.00
H29    H     0.67470   0.17230   0.91000   0.01267  Uiso   1.00
H30    H     0.73770   0.23430   0.84090   0.01267  Uiso   1.00
H31    H     0.63380   0.13400   0.75780   0.01267  Uiso   1.00
H32    H     0.56960   0.06860   0.82950   0.01267  Uiso   1.00
H33    H     0.17610   0.21170   0.94400   0.01267  Uiso   1.00
H34    H     0.05080   0.35360   0.95740   0.01267  Uiso   1.00
H35    H     0.19250   0.41150   0.03910   0.01267  Uiso   1.00
H36    H     0.31760   0.26780   0.03120   0.01267  Uiso   1.00
H37    H     0.06440   0.63380   0.70340   0.01267  Uiso   1.00
H38    H     0.10570   0.70690   0.75350   0.01267  Uiso   1.00
H39    H     0.19380   0.84220   0.63350   0.01267  Uiso   1.00
H40    H     0.16110   0.76030   0.58570   0.01267  Uiso   1.00
H41    H     0.82770   0.32530   0.59000   0.01267  Uiso   1.00
H42    H     0.76570   0.26230   0.65910   0.01267  Uiso   1.00
H43    H     0.86600   0.36620   0.74220   0.01267  Uiso   1.00
H44    H     0.93140   0.43040   0.67050   0.01267  Uiso   1.00
H45    H     0.78830   0.82390   0.55600   0.01267  Uiso   1.00
H46    H     0.64640   0.94920   0.54260   0.01267  Uiso   1.00
H47    H     0.58850   0.80750   0.46090   0.01267  Uiso   1.00
H48    H     0.73220   0.68240   0.46880   0.01267  Uiso   1.00
C1     C     0.64537   0.07657   0.10996   0.01267  Uiso   1.00
C2     C     0.70470   0.09290   0.13889   0.01267  Uiso   1.00
C3     C     0.67819   0.08659   0.18993   0.01267  Uiso   1.00
C4     C     0.71977   0.11437   0.21978   0.01267  Uiso   1.00
C5     C     0.78000   0.15460   0.19905   0.01267  Uiso   1.00
C6     C     0.80038   0.16858   0.14755   0.01267  Uiso   1.00
C7     C     0.75586   0.14346   0.11917   0.01267  Uiso   1.00
C8     C     0.42105   0.92385   0.07698   0.01267  Uiso   1.00
C9     C     0.38140   0.88680   0.12306   0.01267  Uiso   1.00
C10    C     0.33281   0.83661   0.12041   0.01267  Uiso   1.00
C11    C     0.29532   0.79932   0.16129   0.01267  Uiso   1.00
C12    C     0.30756   0.81276   0.20473   0.01267  Uiso   1.00
C13    C     0.35806   0.86006   0.21131   0.01267  Uiso   1.00
C14    C     0.39623   0.89883   0.16853   0.01267  Uiso   1.00
C15    C     0.66490   0.87070   0.01912   0.01267  Uiso   1.00
C16    C     0.74092   0.77732   0.01256   0.01267  Uiso   1.00
C17    C     0.82112   0.74972   0.03603   0.01267  Uiso   1.00
C18    C     0.89479   0.66459   0.02854   0.01267  Uiso   1.00
C19    C     0.88958   0.60218   0.99911   0.01267  Uiso   1.00
C20    C     0.81128   0.62928   0.97901   0.01267  Uiso   1.00
C21    C     0.73562   0.71502   0.98379   0.01267  Uiso   1.00
C22    C     0.92343   0.35463   0.39004   0.01267  Uiso   1.00
C23    C     0.90710   0.29530   0.36111   0.01267  Uiso   1.00
C24    C     0.91341   0.32181   0.31007   0.01267  Uiso   1.00
C25    C     0.88563   0.28023   0.28022   0.01267  Uiso   1.00
C26    C     0.84540   0.22000   0.30095   0.01267  Uiso   1.00
C27    C     0.83142   0.19962   0.35245   0.01267  Uiso   1.00
C28    C     0.85654   0.24414   0.38083   0.01267  Uiso   1.00
C29    C     0.07615   0.57895   0.42302   0.01267  Uiso   1.00
C30    C     0.11320   0.61860   0.37694   0.01267  Uiso   1.00
C31    C     0.16339   0.66719   0.37959   0.01267  Uiso   1.00
C32    C     0.20068   0.70468   0.33871   0.01267  Uiso   1.00
C33    C     0.18724   0.69244   0.29527   0.01267  Uiso   1.00
C34    C     0.13994   0.64194   0.28869   0.01267  Uiso   1.00
C35    C     0.10117   0.60377   0.33147   0.01267  Uiso   1.00
C36    C     0.12930   0.33510   0.48088   0.01267  Uiso   1.00
C37    C     0.22268   0.25908   0.48744   0.01267  Uiso   1.00
C38    C     0.25028   0.17888   0.46397   0.01267  Uiso   1.00
C39    C     0.33541   0.10521   0.47146   0.01267  Uiso   1.00
C40    C     0.39782   0.11042   0.50089   0.01267  Uiso   1.00
C41    C     0.37072   0.18872   0.52099   0.01267  Uiso   1.00
C42    C     0.28498   0.26438   0.51621   0.01267  Uiso   1.00
C43    C     0.35463   0.92343   0.89004   0.01267  Uiso   1.00
C44    C     0.29530   0.90710   0.86111   0.01267  Uiso   1.00
C45    C     0.32181   0.91341   0.81007   0.01267  Uiso   1.00
C46    C     0.28023   0.88563   0.78022   0.01267  Uiso   1.00
C47    C     0.22000   0.84540   0.80095   0.01267  Uiso   1.00
C48    C     0.19962   0.83142   0.85245   0.01267  Uiso   1.00
C49    C     0.24414   0.85654   0.88083   0.01267  Uiso   1.00
C50    C     0.57895   0.07615   0.92302   0.01267  Uiso   1.00
C51    C     0.61860   0.11320   0.87694   0.01267  Uiso   1.00
C52    C     0.66719   0.16339   0.87959   0.01267  Uiso   1.00
C53    C     0.70468   0.20068   0.83871   0.01267  Uiso   1.00
C54    C     0.69244   0.18724   0.79527   0.01267  Uiso   1.00
C55    C     0.64194   0.13994   0.78869   0.01267  Uiso   1.00
C56    C     0.60377   0.10117   0.83147   0.01267  Uiso   1.00
C57    C     0.33510   0.12930   0.98088   0.01267  Uiso   1.00
C58    C     0.25908   0.22268   0.98744   0.01267  Uiso   1.00
C59    C     0.17888   0.25028   0.96397   0.01267  Uiso   1.00
C60    C     0.10521   0.33541   0.97146   0.01267  Uiso   1.00
C61    C     0.11042   0.39782   0.00089   0.01267  Uiso   1.00
C62    C     0.18872   0.37072   0.02099   0.01267  Uiso   1.00
C63    C     0.26438   0.28498   0.01621   0.01267  Uiso   1.00
C64    C     0.07657   0.64537   0.60996   0.01267  Uiso   1.00
C65    C     0.09290   0.70470   0.63889   0.01267  Uiso   1.00
C66    C     0.08659   0.67819   0.68993   0.01267  Uiso   1.00
C67    C     0.11437   0.71977   0.71978   0.01267  Uiso   1.00
C68    C     0.15460   0.78000   0.69905   0.01267  Uiso   1.00
C69    C     0.16858   0.80038   0.64755   0.01267  Uiso   1.00
C70    C     0.14346   0.75586   0.61917   0.01267  Uiso   1.00
C71    C     0.92385   0.42105   0.57698   0.01267  Uiso   1.00
C72    C     0.88680   0.38140   0.62306   0.01267  Uiso   1.00
C73    C     0.83661   0.33281   0.62041   0.01267  Uiso   1.00
C74    C     0.79932   0.29532   0.66129   0.01267  Uiso   1.00
C75    C     0.81276   0.30756   0.70473   0.01267  Uiso   1.00
C76    C     0.86006   0.35806   0.71131   0.01267  Uiso   1.00
C77    C     0.89883   0.39623   0.66853   0.01267  Uiso   1.00
C78    C     0.87070   0.66490   0.51912   0.01267  Uiso   1.00
C79    C     0.77732   0.74092   0.51256   0.01267  Uiso   1.00
C80    C     0.74972   0.82112   0.53603   0.01267  Uiso   1.00
C81    C     0.66459   0.89479   0.52854   0.01267  Uiso   1.00
C82    C     0.60218   0.88958   0.49911   0.01267  Uiso   1.00
C83    C     0.62928   0.81128   0.47901   0.01267  Uiso   1.00
C84    C     0.71502   0.73562   0.48379   0.01267  Uiso   1.00
N1     N     0.82003   0.19043   0.22509   0.01267  Uiso   1.00
N2     N     0.27596   0.77396   0.24918   0.01267  Uiso   1.00
N3     N     0.95558   0.51536   0.99474   0.01267  Uiso   1.00
N4     N     0.80957   0.17997   0.27491   0.01267  Uiso   1.00
N5     N     0.22604   0.72404   0.25082   0.01267  Uiso   1.00
N6     N     0.48464   0.04442   0.50526   0.01267  Uiso   1.00
N7     N     0.17997   0.80957   0.77491   0.01267  Uiso   1.00
N8     N     0.72404   0.22604   0.75082   0.01267  Uiso   1.00
N9     N     0.04442   0.48464   0.00526   0.01267  Uiso   1.00
N10    N     0.19043   0.82003   0.72509   0.01267  Uiso   1.00
N11    N     0.77396   0.27596   0.74918   0.01267  Uiso   1.00
N12    N     0.51536   0.95558   0.49474   0.01267  Uiso   1.00
O1     O     0.59068   0.04176   0.12603   0.01267  Uiso   1.00
O2     O     0.65646   0.10362   0.06344   0.01267  Uiso   1.00
O3     O     0.40755   0.91535   0.03519   0.01267  Uiso   1.00
O4     O     0.46928   0.96352   0.08620   0.01267  Uiso   1.00
O5     O     0.59706   0.89650   0.99714   0.01267  Uiso   1.00
O6     O     0.67496   0.92064   0.04606   0.01267  Uiso   1.00
O7     O     0.95824   0.40932   0.37397   0.01267  Uiso   1.00
O8     O     0.89638   0.34354   0.43656   0.01267  Uiso   1.00
O9     O     0.08465   0.59245   0.46481   0.01267  Uiso   1.00
O10    O     0.03648   0.53072   0.41380   0.01267  Uiso   1.00
O11    O     0.10350   0.40294   0.50286   0.01267  Uiso   1.00
O12    O     0.07936   0.32504   0.45394   0.01267  Uiso   1.00
O13    O     0.40932   0.95824   0.87397   0.01267  Uiso   1.00
O14    O     0.34354   0.89638   0.93656   0.01267  Uiso   1.00
O15    O     0.59245   0.08465   0.96481   0.01267  Uiso   1.00
O16    O     0.53072   0.03648   0.91380   0.01267  Uiso   1.00
O17    O     0.40294   0.10350   0.00286   0.01267  Uiso   1.00
O18    O     0.32504   0.07936   0.95394   0.01267  Uiso   1.00
O19    O     0.04176   0.59068   0.62603   0.01267  Uiso   1.00
O20    O     0.10362   0.65646   0.56344   0.01267  Uiso   1.00
O21    O     0.91535   0.40755   0.53519   0.01267  Uiso   1.00
O22    O     0.96352   0.46928   0.58620   0.01267  Uiso   1.00
O23    O     0.89650   0.59706   0.49714   0.01267  Uiso   1.00
O24    O     0.92064   0.67496   0.54606   0.01267  Uiso   1.00
