data_ALULAV_clean
_audit_creation_date              2014-07-02
_audit_creation_method            'Materials Studio'
_symmetry_space_group_name_H-M    'P1'
_symmetry_Int_Tables_number       1
_symmetry_cell_setting            triclinic
loop_
_symmetry_equiv_pos_as_xyz
  x,y,z
_cell_length_a                    16.0636
_cell_length_b                    16.0636
_cell_length_c                    27.9150
_cell_angle_alpha                 79.8902
_cell_angle_beta                  79.8902
_cell_angle_gamma                 63.1763
loop_
_atom_site_label
_atom_site_type_symbol
_atom_site_fract_x
_atom_site_fract_y
_atom_site_fract_z
_atom_site_U_iso_or_equiv
_atom_site_adp_type
_atom_site_occupancy
Gd1    Gd    0.53127   0.06657   0.04611   0.01267  Uiso   1.00
Gd2    Gd    0.93343   0.46873   0.45389   0.01267  Uiso   1.00
Gd3    Gd    0.46873   0.93343   0.95389   0.01267  Uiso   1.00
Gd4    Gd    0.06657   0.53127   0.54611   0.01267  Uiso   1.00
H1     H     0.63370   0.06490   0.20350   0.01267  Uiso   1.00
H2     H     0.70770   0.10650   0.25350   0.01267  Uiso   1.00
H3     H     0.84120   0.19480   0.13350   0.01267  Uiso   1.00
H4     H     0.76030   0.15990   0.08550   0.01267  Uiso   1.00
H5     H     0.67520   0.17240   0.91010   0.01267  Uiso   1.00
H6     H     0.73860   0.23340   0.84140   0.01267  Uiso   1.00
H7     H     0.63280   0.13400   0.75750   0.01267  Uiso   1.00
H8     H     0.56920   0.06780   0.82940   0.01267  Uiso   1.00
H9     H     0.17620   0.21080   0.94430   0.01267  Uiso   1.00
H10    H     0.05040   0.35380   0.95710   0.01267  Uiso   1.00
H11    H     0.19330   0.41190   0.03930   0.01267  Uiso   1.00
H12    H     0.31810   0.26750   0.03130   0.01267  Uiso   1.00
H13    H     0.93510   0.36630   0.29650   0.01267  Uiso   1.00
H14    H     0.89350   0.29230   0.24650   0.01267  Uiso   1.00
H15    H     0.80520   0.15880   0.36650   0.01267  Uiso   1.00
H16    H     0.84010   0.23970   0.41450   0.01267  Uiso   1.00
H17    H     0.82760   0.32480   0.58990   0.01267  Uiso   1.00
H18    H     0.76660   0.26140   0.65860   0.01267  Uiso   1.00
H19    H     0.86600   0.36720   0.74250   0.01267  Uiso   1.00
H20    H     0.93220   0.43080   0.67060   0.01267  Uiso   1.00
H21    H     0.78920   0.82380   0.55570   0.01267  Uiso   1.00
H22    H     0.64620   0.94960   0.54290   0.01267  Uiso   1.00
H23    H     0.58810   0.80670   0.46070   0.01267  Uiso   1.00
H24    H     0.73250   0.68190   0.46870   0.01267  Uiso   1.00
H25    H     0.36630   0.93510   0.79650   0.01267  Uiso   1.00
H26    H     0.29230   0.89350   0.74650   0.01267  Uiso   1.00
H27    H     0.15880   0.80520   0.86650   0.01267  Uiso   1.00
H28    H     0.23970   0.84010   0.91450   0.01267  Uiso   1.00
H29    H     0.32480   0.82760   0.08990   0.01267  Uiso   1.00
H30    H     0.26140   0.76660   0.15860   0.01267  Uiso   1.00
H31    H     0.36720   0.86600   0.24250   0.01267  Uiso   1.00
H32    H     0.43080   0.93220   0.17060   0.01267  Uiso   1.00
H33    H     0.82380   0.78920   0.05570   0.01267  Uiso   1.00
H34    H     0.94960   0.64620   0.04290   0.01267  Uiso   1.00
H35    H     0.80670   0.58810   0.96070   0.01267  Uiso   1.00
H36    H     0.68190   0.73250   0.96870   0.01267  Uiso   1.00
H37    H     0.06490   0.63370   0.70350   0.01267  Uiso   1.00
H38    H     0.10650   0.70770   0.75350   0.01267  Uiso   1.00
H39    H     0.19480   0.84120   0.63350   0.01267  Uiso   1.00
H40    H     0.15990   0.76030   0.58550   0.01267  Uiso   1.00
H41    H     0.17240   0.67520   0.41010   0.01267  Uiso   1.00
H42    H     0.23340   0.73860   0.34140   0.01267  Uiso   1.00
H43    H     0.13400   0.63280   0.25750   0.01267  Uiso   1.00
H44    H     0.06780   0.56920   0.32940   0.01267  Uiso   1.00
H45    H     0.21080   0.17620   0.44430   0.01267  Uiso   1.00
H46    H     0.35380   0.05040   0.45710   0.01267  Uiso   1.00
H47    H     0.41190   0.19330   0.53930   0.01267  Uiso   1.00
H48    H     0.26750   0.31810   0.53130   0.01267  Uiso   1.00
C1     C     0.64490   0.07650   0.10989   0.01267  Uiso   1.00
C2     C     0.70420   0.09280   0.13883   0.01267  Uiso   1.00
C3     C     0.67820   0.08700   0.18990   0.01267  Uiso   1.00
C4     C     0.72010   0.11470   0.21964   0.01267  Uiso   1.00
C5     C     0.78010   0.15450   0.19880   0.01267  Uiso   1.00
C6     C     0.80000   0.16900   0.14743   0.01267  Uiso   1.00
C7     C     0.75570   0.14310   0.11911   0.01267  Uiso   1.00
C8     C     0.57870   0.07590   0.92305   0.01267  Uiso   1.00
C9     C     0.61800   0.11300   0.87716   0.01267  Uiso   1.00
C10    C     0.66740   0.16320   0.87949   0.01267  Uiso   1.00
C11    C     0.70520   0.20020   0.83880   0.01267  Uiso   1.00
C12    C     0.69290   0.18730   0.79540   0.01267  Uiso   1.00
C13    C     0.64150   0.13970   0.78860   0.01267  Uiso   1.00
C14    C     0.60330   0.10070   0.83165   0.01267  Uiso   1.00
C15    C     0.33530   0.12970   0.98096   0.01267  Uiso   1.00
C16    C     0.25946   0.22306   0.98751   0.01267  Uiso   1.00
C17    C     0.17910   0.24990   0.96418   0.01267  Uiso   1.00
C18    C     0.10490   0.33570   0.97150   0.01267  Uiso   1.00
C19    C     0.11033   0.39773   0.00101   0.01267  Uiso   1.00
C20    C     0.18920   0.37080   0.02116   0.01267  Uiso   1.00
C21    C     0.26474   0.28474   0.01614   0.01267  Uiso   1.00
C22    C     0.92350   0.35510   0.39011   0.01267  Uiso   1.00
C23    C     0.90720   0.29580   0.36117   0.01267  Uiso   1.00
C24    C     0.91300   0.32180   0.31010   0.01267  Uiso   1.00
C25    C     0.88530   0.27990   0.28036   0.01267  Uiso   1.00
C26    C     0.84550   0.21990   0.30120   0.01267  Uiso   1.00
C27    C     0.83100   0.20000   0.35257   0.01267  Uiso   1.00
C28    C     0.85690   0.24430   0.38089   0.01267  Uiso   1.00
C29    C     0.92410   0.42130   0.57695   0.01267  Uiso   1.00
C30    C     0.88700   0.38200   0.62284   0.01267  Uiso   1.00
C31    C     0.83680   0.33260   0.62051   0.01267  Uiso   1.00
C32    C     0.79980   0.29480   0.66120   0.01267  Uiso   1.00
C33    C     0.81270   0.30710   0.70460   0.01267  Uiso   1.00
C34    C     0.86030   0.35850   0.71140   0.01267  Uiso   1.00
C35    C     0.89930   0.39670   0.66835   0.01267  Uiso   1.00
C36    C     0.87030   0.66470   0.51904   0.01267  Uiso   1.00
C37    C     0.77694   0.74054   0.51249   0.01267  Uiso   1.00
C38    C     0.75010   0.82090   0.53582   0.01267  Uiso   1.00
C39    C     0.66430   0.89510   0.52850   0.01267  Uiso   1.00
C40    C     0.60227   0.88967   0.49899   0.01267  Uiso   1.00
C41    C     0.62920   0.81080   0.47884   0.01267  Uiso   1.00
C42    C     0.71526   0.73526   0.48386   0.01267  Uiso   1.00
C43    C     0.35510   0.92350   0.89011   0.01267  Uiso   1.00
C44    C     0.29580   0.90720   0.86117   0.01267  Uiso   1.00
C45    C     0.32180   0.91300   0.81010   0.01267  Uiso   1.00
C46    C     0.27990   0.88530   0.78036   0.01267  Uiso   1.00
C47    C     0.21990   0.84550   0.80120   0.01267  Uiso   1.00
C48    C     0.20000   0.83100   0.85257   0.01267  Uiso   1.00
C49    C     0.24430   0.85690   0.88089   0.01267  Uiso   1.00
C50    C     0.42130   0.92410   0.07695   0.01267  Uiso   1.00
C51    C     0.38200   0.88700   0.12284   0.01267  Uiso   1.00
C52    C     0.33260   0.83680   0.12051   0.01267  Uiso   1.00
C53    C     0.29480   0.79980   0.16120   0.01267  Uiso   1.00
C54    C     0.30710   0.81270   0.20460   0.01267  Uiso   1.00
C55    C     0.35850   0.86030   0.21140   0.01267  Uiso   1.00
C56    C     0.39670   0.89930   0.16835   0.01267  Uiso   1.00
C57    C     0.66470   0.87030   0.01904   0.01267  Uiso   1.00
C58    C     0.74054   0.77694   0.01249   0.01267  Uiso   1.00
C59    C     0.82090   0.75010   0.03582   0.01267  Uiso   1.00
C60    C     0.89510   0.66430   0.02850   0.01267  Uiso   1.00
C61    C     0.88967   0.60227   0.99899   0.01267  Uiso   1.00
C62    C     0.81080   0.62920   0.97884   0.01267  Uiso   1.00
C63    C     0.73526   0.71526   0.98386   0.01267  Uiso   1.00
C64    C     0.07650   0.64490   0.60989   0.01267  Uiso   1.00
C65    C     0.09280   0.70420   0.63883   0.01267  Uiso   1.00
C66    C     0.08700   0.67820   0.68990   0.01267  Uiso   1.00
C67    C     0.11470   0.72010   0.71964   0.01267  Uiso   1.00
C68    C     0.15450   0.78010   0.69880   0.01267  Uiso   1.00
C69    C     0.16900   0.80000   0.64743   0.01267  Uiso   1.00
C70    C     0.14310   0.75570   0.61911   0.01267  Uiso   1.00
C71    C     0.07590   0.57870   0.42305   0.01267  Uiso   1.00
C72    C     0.11300   0.61800   0.37716   0.01267  Uiso   1.00
C73    C     0.16320   0.66740   0.37949   0.01267  Uiso   1.00
C74    C     0.20020   0.70520   0.33880   0.01267  Uiso   1.00
C75    C     0.18730   0.69290   0.29540   0.01267  Uiso   1.00
C76    C     0.13970   0.64150   0.28860   0.01267  Uiso   1.00
C77    C     0.10070   0.60330   0.33165   0.01267  Uiso   1.00
C78    C     0.12970   0.33530   0.48096   0.01267  Uiso   1.00
C79    C     0.22306   0.25946   0.48751   0.01267  Uiso   1.00
C80    C     0.24990   0.17910   0.46418   0.01267  Uiso   1.00
C81    C     0.33570   0.10490   0.47150   0.01267  Uiso   1.00
C82    C     0.39773   0.11033   0.50101   0.01267  Uiso   1.00
C83    C     0.37080   0.18920   0.52116   0.01267  Uiso   1.00
C84    C     0.28474   0.26474   0.51614   0.01267  Uiso   1.00
N1     N     0.82016   0.19076   0.22522   0.01267  Uiso   1.00
N2     N     0.72374   0.22594   0.75095   0.01267  Uiso   1.00
N3     N     0.04427   0.48427   0.00515   0.01267  Uiso   1.00
N4     N     0.80924   0.17984   0.27478   0.01267  Uiso   1.00
N5     N     0.77406   0.27626   0.74905   0.01267  Uiso   1.00
N6     N     0.51573   0.95573   0.49485   0.01267  Uiso   1.00
N7     N     0.17984   0.80924   0.77478   0.01267  Uiso   1.00
N8     N     0.27626   0.77406   0.24905   0.01267  Uiso   1.00
N9     N     0.95573   0.51573   0.99485   0.01267  Uiso   1.00
N10    N     0.19076   0.82016   0.72522   0.01267  Uiso   1.00
N11    N     0.22594   0.72374   0.25095   0.01267  Uiso   1.00
N12    N     0.48427   0.04427   0.50515   0.01267  Uiso   1.00
O1     O     0.59043   0.04185   0.12606   0.01267  Uiso   1.00
O2     O     0.65655   0.10355   0.06349   0.01267  Uiso   1.00
O3     O     0.59233   0.08463   0.96494   0.01267  Uiso   1.00
O4     O     0.53091   0.03631   0.91401   0.01267  Uiso   1.00
O5     O     0.40292   0.10372   0.00289   0.01267  Uiso   1.00
O6     O     0.32472   0.07940   0.95384   0.01267  Uiso   1.00
O7     O     0.95815   0.40957   0.37394   0.01267  Uiso   1.00
O8     O     0.89645   0.34345   0.43651   0.01267  Uiso   1.00
O9     O     0.91537   0.40767   0.53506   0.01267  Uiso   1.00
O10    O     0.96369   0.46909   0.58599   0.01267  Uiso   1.00
O11    O     0.89628   0.59708   0.49711   0.01267  Uiso   1.00
O12    O     0.92060   0.67528   0.54616   0.01267  Uiso   1.00
O13    O     0.40957   0.95815   0.87394   0.01267  Uiso   1.00
O14    O     0.34345   0.89645   0.93651   0.01267  Uiso   1.00
O15    O     0.40767   0.91537   0.03506   0.01267  Uiso   1.00
O16    O     0.46909   0.96369   0.08599   0.01267  Uiso   1.00
O17    O     0.59708   0.89628   0.99711   0.01267  Uiso   1.00
O18    O     0.67528   0.92060   0.04616   0.01267  Uiso   1.00
O19    O     0.04185   0.59043   0.62606   0.01267  Uiso   1.00
O20    O     0.10355   0.65655   0.56349   0.01267  Uiso   1.00
O21    O     0.08463   0.59233   0.46494   0.01267  Uiso   1.00
O22    O     0.03631   0.53091   0.41401   0.01267  Uiso   1.00
O23    O     0.10372   0.40292   0.50289   0.01267  Uiso   1.00
O24    O     0.07940   0.32472   0.45384   0.01267  Uiso   1.00
