data_AMAFOK_clean
_audit_creation_date              2014-07-02
_audit_creation_method            'Materials Studio'
_symmetry_space_group_name_H-M    'P1'
_symmetry_Int_Tables_number       1
_symmetry_cell_setting            triclinic
loop_
_symmetry_equiv_pos_as_xyz
  x,y,z
_cell_length_a                    7.7719
_cell_length_b                    12.6613
_cell_length_c                    12.6613
_cell_angle_alpha                 64.0745
_cell_angle_beta                  78.1933
_cell_angle_gamma                 101.8070
loop_
_atom_site_label
_atom_site_type_symbol
_atom_site_fract_x
_atom_site_fract_y
_atom_site_fract_z
_atom_site_U_iso_or_equiv
_atom_site_adp_type
_atom_site_occupancy
Cu1    Cu    0.50000   0.50000   0.00000   0.01267  Uiso   1.00
Cu2    Cu    0.50000   0.00000   0.50000   0.01267  Uiso   1.00
Cu3    Cu    0.00000   0.50000   0.50000   0.01267  Uiso   1.00
H1     H     0.08300   0.61500   0.99200   0.01267  Uiso   1.00
H2     H     0.56100   0.84300   0.74000   0.01267  Uiso   1.00
H3     H     0.12000   0.84200   0.64000   0.01267  Uiso   1.00
H4     H     0.07500   0.99200   0.39300   0.01267  Uiso   1.00
H5     H     0.30100   0.74000   0.41700   0.01267  Uiso   1.00
H6     H     0.76000   0.64000   0.51800   0.01267  Uiso   1.00
H7     H     0.46800   0.39300   0.61500   0.01267  Uiso   1.00
H8     H     0.71800   0.41700   0.84300   0.01267  Uiso   1.00
H9     H     0.27800   0.51800   0.84200   0.01267  Uiso   1.00
H10    H     0.91700   0.38500   0.00800   0.01267  Uiso   1.00
H11    H     0.43900   0.15700   0.26000   0.01267  Uiso   1.00
H12    H     0.88000   0.15800   0.36000   0.01267  Uiso   1.00
H13    H     0.92500   0.00800   0.60700   0.01267  Uiso   1.00
H14    H     0.69900   0.26000   0.58300   0.01267  Uiso   1.00
H15    H     0.24000   0.36000   0.48200   0.01267  Uiso   1.00
H16    H     0.53200   0.60700   0.38500   0.01267  Uiso   1.00
H17    H     0.28200   0.58300   0.15700   0.01267  Uiso   1.00
H18    H     0.72200   0.48200   0.15800   0.01267  Uiso   1.00
C1     C     0.85370   0.66944   0.84814   0.01267  Uiso   1.00
C2     C     0.06034   0.71776   0.82254   0.01267  Uiso   1.00
C3     C     0.14854   0.67626   0.91034   0.01267  Uiso   1.00
C4     C     0.43017   0.81107   0.76426   0.01267  Uiso   1.00
C5     C     0.17144   0.81174   0.70472   0.01267  Uiso   1.00
C6     C     0.70184   0.84814   0.48242   0.01267  Uiso   1.00
C7     C     0.88288   0.82254   0.45970   0.01267  Uiso   1.00
C8     C     0.05888   0.91034   0.41340   0.01267  Uiso   1.00
C9     C     0.19443   0.76426   0.42467   0.01267  Uiso   1.00
C10    C     0.87616   0.70472   0.48354   0.01267  Uiso   1.00
C11    C     0.18426   0.48242   0.66944   0.01267  Uiso   1.00
C12    C     0.34258   0.45970   0.71776   0.01267  Uiso   1.00
C13    C     0.47228   0.41340   0.67626   0.01267  Uiso   1.00
C14    C     0.61910   0.42467   0.81107   0.01267  Uiso   1.00
C15    C     0.35970   0.48354   0.81174   0.01267  Uiso   1.00
C16    C     0.14630   0.33056   0.15186   0.01267  Uiso   1.00
C17    C     0.93966   0.28224   0.17746   0.01267  Uiso   1.00
C18    C     0.85146   0.32374   0.08966   0.01267  Uiso   1.00
C19    C     0.56983   0.18893   0.23574   0.01267  Uiso   1.00
C20    C     0.82856   0.18826   0.29528   0.01267  Uiso   1.00
C21    C     0.29816   0.15186   0.51758   0.01267  Uiso   1.00
C22    C     0.11712   0.17746   0.54030   0.01267  Uiso   1.00
C23    C     0.94112   0.08966   0.58660   0.01267  Uiso   1.00
C24    C     0.80557   0.23574   0.57533   0.01267  Uiso   1.00
C25    C     0.12384   0.29528   0.51646   0.01267  Uiso   1.00
C26    C     0.81574   0.51758   0.33056   0.01267  Uiso   1.00
C27    C     0.65742   0.54030   0.28224   0.01267  Uiso   1.00
C28    C     0.52772   0.58660   0.32374   0.01267  Uiso   1.00
C29    C     0.38090   0.57533   0.18893   0.01267  Uiso   1.00
C30    C     0.64030   0.51646   0.18826   0.01267  Uiso   1.00
N1     N     0.35664   0.85966   0.67404   0.01267  Uiso   1.00
N2     N     0.33453   0.72267   0.88118   0.01267  Uiso   1.00
N3     N     0.03068   0.67404   0.46630   0.01267  Uiso   1.00
N4     N     0.21571   0.88118   0.39615   0.01267  Uiso   1.00
N5     N     0.49698   0.46630   0.85966   0.01267  Uiso   1.00
N6     N     0.61186   0.39615   0.72267   0.01267  Uiso   1.00
N7     N     0.64336   0.14034   0.32596   0.01267  Uiso   1.00
N8     N     0.66547   0.27733   0.11882   0.01267  Uiso   1.00
N9     N     0.96932   0.32596   0.53370   0.01267  Uiso   1.00
N10    N     0.78429   0.11882   0.60385   0.01267  Uiso   1.00
N11    N     0.50302   0.53370   0.14034   0.01267  Uiso   1.00
N12    N     0.38814   0.60385   0.27733   0.01267  Uiso   1.00
O1     O     0.76882   0.56100   0.94454   0.01267  Uiso   1.00
O2     O     0.78281   0.73342   0.77859   0.01267  Uiso   1.00
O3     O     0.71336   0.94454   0.49446   0.01267  Uiso   1.00
O4     O     0.56140   0.77859   0.48799   0.01267  Uiso   1.00
O5     O     0.20782   0.49446   0.56100   0.01267  Uiso   1.00
O6     O     0.04939   0.48799   0.73342   0.01267  Uiso   1.00
O7     O     0.23118   0.43900   0.05546   0.01267  Uiso   1.00
O8     O     0.21719   0.26658   0.22141   0.01267  Uiso   1.00
O9     O     0.28664   0.05546   0.50554   0.01267  Uiso   1.00
O10    O     0.43860   0.22141   0.51201   0.01267  Uiso   1.00
O11    O     0.79218   0.50554   0.43900   0.01267  Uiso   1.00
O12    O     0.95061   0.51201   0.26658   0.01267  Uiso   1.00
