data_image0
_cell_length_a       11.258
_cell_length_b       12.602
_cell_length_c       14.689
_cell_angle_alpha    90
_cell_angle_beta     90
_cell_angle_gamma    90

_symmetry_space_group_name_H-M    "P 1"
_symmetry_int_tables_number       1

loop_
  _symmetry_equiv_pos_as_xyz
  'x, y, z'

loop_
  _atom_site_label
  _atom_site_occupancy
  _atom_site_fract_x
  _atom_site_fract_y
  _atom_site_fract_z
  _atom_site_thermal_displace_type
  _atom_site_B_iso_or_equiv
  _atom_site_type_symbol
  C1       1.0000 0.03250  0.01310  0.16750  Biso   1.000  C
  C2       1.0000 0.30320  0.88400  0.07640  Biso   1.000  C
  C3       1.0000 0.38550  0.95060  0.13620  Biso   1.000  C
  C4       1.0000 0.42950  0.05460  0.09660  Biso   1.000  C
  Nd1      1.0000 0.14917  0.11343  0.00741  Biso   1.000  Nd
  O1       1.0000 0.10380  0.08500  0.17500  Biso   1.000  O
  O2       1.0000 0.98330  0.99120  0.09110  Biso   1.000  O
  O3       1.0000 0.21990  0.93030  0.03070  Biso   1.000  O
  O4       1.0000 0.31470  0.78450  0.07520  Biso   1.000  O
  O5       1.0000 0.35450  0.11620  0.06040  Biso   1.000  O
  O6       1.0000 0.53430  0.07110  0.09520  Biso   1.000  O
  C5       1.0000 0.46750  0.48690  0.66750  Biso   1.000  C
  C6       1.0000 0.19680  0.61600  0.57640  Biso   1.000  C
  C7       1.0000 0.11450  0.54940  0.63620  Biso   1.000  C
  C8       1.0000 0.07050  0.44540  0.59660  Biso   1.000  C
  Nd2      1.0000 0.35083  0.38657  0.50741  Biso   1.000  Nd
  O7       1.0000 0.39620  0.41500  0.67500  Biso   1.000  O
  O8       1.0000 0.51670  0.50880  0.59110  Biso   1.000  O
  O9       1.0000 0.28010  0.56970  0.53070  Biso   1.000  O
  O10      1.0000 0.18530  0.71550  0.57520  Biso   1.000  O
  O11      1.0000 0.14550  0.38380  0.56040  Biso   1.000  O
  O12      1.0000 0.96570  0.42890  0.59520  Biso   1.000  O
  C9       1.0000 0.96750  0.01310  0.33250  Biso   1.000  C
  C10      1.0000 0.69680  0.88400  0.42360  Biso   1.000  C
  C11      1.0000 0.61450  0.95060  0.36380  Biso   1.000  C
  C12      1.0000 0.57050  0.05460  0.40340  Biso   1.000  C
  Nd3      1.0000 0.85083  0.11343  0.49259  Biso   1.000  Nd
  O13      1.0000 0.89620  0.08500  0.32500  Biso   1.000  O
  O14      1.0000 0.01670  0.99120  0.40890  Biso   1.000  O
  O15      1.0000 0.78010  0.93030  0.46930  Biso   1.000  O
  O16      1.0000 0.68530  0.78450  0.42480  Biso   1.000  O
  O17      1.0000 0.64550  0.11620  0.43960  Biso   1.000  O
  O18      1.0000 0.46570  0.07110  0.40480  Biso   1.000  O
  C13      1.0000 0.53250  0.48690  0.83250  Biso   1.000  C
  C14      1.0000 0.80320  0.61600  0.92360  Biso   1.000  C
  C15      1.0000 0.88550  0.54940  0.86380  Biso   1.000  C
  C16      1.0000 0.92950  0.44540  0.90340  Biso   1.000  C
  Nd4      1.0000 0.64917  0.38657  0.99259  Biso   1.000  Nd
  O19      1.0000 0.60380  0.41500  0.82500  Biso   1.000  O
  O20      1.0000 0.48330  0.50880  0.90890  Biso   1.000  O
  O21      1.0000 0.71990  0.56970  0.96930  Biso   1.000  O
  O22      1.0000 0.81470  0.71550  0.92480  Biso   1.000  O
  O23      1.0000 0.85450  0.38380  0.93960  Biso   1.000  O
  O24      1.0000 0.03430  0.42890  0.90480  Biso   1.000  O
  C17      1.0000 0.96750  0.98690  0.83250  Biso   1.000  C
  C18      1.0000 0.69680  0.11600  0.92360  Biso   1.000  C
  C19      1.0000 0.61450  0.04940  0.86380  Biso   1.000  C
  C20      1.0000 0.57050  0.94540  0.90340  Biso   1.000  C
  Nd5      1.0000 0.85083  0.88657  0.99259  Biso   1.000  Nd
  O25      1.0000 0.89620  0.91500  0.82500  Biso   1.000  O
  O26      1.0000 0.01670  0.00880  0.90890  Biso   1.000  O
  O27      1.0000 0.78010  0.06970  0.96930  Biso   1.000  O
  O28      1.0000 0.68530  0.21550  0.92480  Biso   1.000  O
  O29      1.0000 0.64550  0.88380  0.93960  Biso   1.000  O
  O30      1.0000 0.46570  0.92890  0.90480  Biso   1.000  O
  C21      1.0000 0.53250  0.51310  0.33250  Biso   1.000  C
  C22      1.0000 0.80320  0.38400  0.42360  Biso   1.000  C
  C23      1.0000 0.88550  0.45060  0.36380  Biso   1.000  C
  C24      1.0000 0.92950  0.55460  0.40340  Biso   1.000  C
  Nd6      1.0000 0.64917  0.61343  0.49259  Biso   1.000  Nd
  O31      1.0000 0.60380  0.58500  0.32500  Biso   1.000  O
  O32      1.0000 0.48330  0.49120  0.40890  Biso   1.000  O
  O33      1.0000 0.71990  0.43030  0.46930  Biso   1.000  O
  O34      1.0000 0.81470  0.28450  0.42480  Biso   1.000  O
  O35      1.0000 0.85450  0.61620  0.43960  Biso   1.000  O
  O36      1.0000 0.03430  0.57110  0.40480  Biso   1.000  O
  C25      1.0000 0.03250  0.98690  0.66750  Biso   1.000  C
  C26      1.0000 0.30320  0.11600  0.57640  Biso   1.000  C
  C27      1.0000 0.38550  0.04940  0.63620  Biso   1.000  C
  C28      1.0000 0.42950  0.94540  0.59660  Biso   1.000  C
  Nd7      1.0000 0.14917  0.88657  0.50741  Biso   1.000  Nd
  O37      1.0000 0.10380  0.91500  0.67500  Biso   1.000  O
  O38      1.0000 0.98330  0.00880  0.59110  Biso   1.000  O
  O39      1.0000 0.21990  0.06970  0.53070  Biso   1.000  O
  O40      1.0000 0.31470  0.21550  0.57520  Biso   1.000  O
  O41      1.0000 0.35450  0.88380  0.56040  Biso   1.000  O
  O42      1.0000 0.53430  0.92890  0.59520  Biso   1.000  O
  C29      1.0000 0.46750  0.51310  0.16750  Biso   1.000  C
  C30      1.0000 0.19680  0.38400  0.07640  Biso   1.000  C
  C31      1.0000 0.11450  0.45060  0.13620  Biso   1.000  C
  C32      1.0000 0.07050  0.55460  0.09660  Biso   1.000  C
  Nd8      1.0000 0.35083  0.61343  0.00741  Biso   1.000  Nd
  O43      1.0000 0.39620  0.58500  0.17500  Biso   1.000  O
  O44      1.0000 0.51670  0.49120  0.09110  Biso   1.000  O
  O45      1.0000 0.28010  0.43030  0.03070  Biso   1.000  O
  O46      1.0000 0.18530  0.28450  0.07520  Biso   1.000  O
  O47      1.0000 0.14550  0.61620  0.06040  Biso   1.000  O
  O48      1.0000 0.96570  0.57110  0.09520  Biso   1.000  O
  C33      1.0000 0.00000  0.94730  0.25000  Biso   1.000  C
  C34      1.0000 0.50000  0.55270  0.75000  Biso   1.000  C
  C35      1.0000 0.00000  0.05270  0.75000  Biso   1.000  C
  C36      1.0000 0.50000  0.44730  0.25000  Biso   1.000  C
