data_AMEJOS_charged
_audit_creation_date              2014-07-02
_audit_creation_method            'Materials Studio'
_symmetry_space_group_name_H-M    'P1'
_symmetry_Int_Tables_number       1
_symmetry_cell_setting            triclinic
loop_
_symmetry_equiv_pos_as_xyz
  x,y,z
_cell_length_a                    14.3634
_cell_length_b                    15.9165
_cell_length_c                    17.4598
_cell_angle_alpha                 68.1620
_cell_angle_beta                  66.2720
_cell_angle_gamma                 64.6000
loop_
_atom_site_label
_atom_site_type_symbol
_atom_site_fract_x
_atom_site_fract_y
_atom_site_fract_z
_atom_site_U_iso_or_equiv
_atom_site_adp_type
_atom_site_occupancy
Fe1    Fe    0.50000  -0.00000   0.50000   0.01267  Uiso   1.00
Fe2    Fe    0.00000   0.50000   0.00000   0.01267  Uiso   1.00
Cu1    Cu    0.73643   0.20126   0.37759   0.01267  Uiso   1.00
Cu2    Cu    0.83463   0.79495   0.10709   0.01267  Uiso   1.00
Cu3    Cu    0.19291   0.24619   0.38841   0.01267  Uiso   1.00
Cu4    Cu    0.64939   0.84857   0.25071   0.01267  Uiso   1.00
Cu5    Cu    0.73488   0.36293   0.24126   0.01267  Uiso   1.00
Cu6    Cu    0.18883   0.29928   0.21765   0.01267  Uiso   1.00
Cu7    Cu    0.26357   0.79874   0.62241   0.01267  Uiso   1.00
Cu8    Cu    0.16537   0.20505   0.89291   0.01267  Uiso   1.00
Cu9    Cu    0.80709   0.75381   0.61159   0.01267  Uiso   1.00
Cu10   Cu    0.35061   0.15143   0.74929   0.01267  Uiso   1.00
Cu11   Cu    0.26512   0.63707   0.75874   0.01267  Uiso   1.00
Cu12   Cu    0.81117   0.70072   0.78235   0.01267  Uiso   1.00
H1     H     0.99590   0.20450   0.28200   0.01267  Uiso   1.00
H2     H     0.95580   0.23480   0.19970   0.01267  Uiso   1.00
H3     H     0.92230   0.96050   0.31950   0.01267  Uiso   1.00
H4     H     0.79510   0.99350   0.36470   0.01267  Uiso   1.00
H5     H     0.84370   0.04970   0.26910   0.01267  Uiso   1.00
H6     H     0.87190   0.80750   0.26460   0.01267  Uiso   1.00
H7     H     0.84200   0.92220   0.24150   0.01267  Uiso   1.00
H8     H     0.12750   0.68330   0.11640   0.01267  Uiso   1.00
H9     H     0.06950   0.65180   0.07550   0.01267  Uiso   1.00
H10    H     0.02780   0.64610   0.17660   0.01267  Uiso   1.00
H11    H     0.02170   0.43520   0.44850   0.01267  Uiso   1.00
H12    H     0.10430   0.49350   0.41260   0.01267  Uiso   1.00
H13    H     0.03950   0.49650   0.30350   0.01267  Uiso   1.00
H14    H     0.16870   0.45890   0.27990   0.01267  Uiso   1.00
H15    H     0.12970   0.36450   0.56220   0.01267  Uiso   1.00
H16    H     0.20690   0.25850   0.55310   0.01267  Uiso   1.00
H17    H     0.04280   0.24300   0.63110   0.01267  Uiso   1.00
H18    H     0.98290   0.33710   0.56980   0.01267  Uiso   1.00
H19    H     0.30250   0.38820   0.35000   0.01267  Uiso   1.00
H20    H     0.33610   0.30430   0.42980   0.01267  Uiso   1.00
H21    H     0.27310   0.41220   0.43980   0.01267  Uiso   1.00
H22    H     0.46930   0.86000   0.18760   0.01267  Uiso   1.00
H23    H     0.47820   0.74910   0.22140   0.01267  Uiso   1.00
H24    H     0.66360   0.70100   0.16000   0.01267  Uiso   1.00
H25    H     0.61300   0.78370   0.08650   0.01267  Uiso   1.00
H26    H     0.50580   0.66750   0.38060   0.01267  Uiso   1.00
H27    H     0.60940   0.64570   0.29950   0.01267  Uiso   1.00
H28    H     0.59830   0.71750   0.43110   0.01267  Uiso   1.00
H29    H     0.66100   0.60860   0.42330   0.01267  Uiso   1.00
H30    H     0.43760   0.83820   0.39840   0.01267  Uiso   1.00
H31    H     0.37490   0.80950   0.35940   0.01267  Uiso   1.00
H32    H     0.40220   0.90730   0.31390   0.01267  Uiso   1.00
H33    H     0.51230   0.51170   0.30340   0.01267  Uiso   1.00
H34    H     0.44010   0.47760   0.27860   0.01267  Uiso   1.00
H35    H     0.52110   0.31630   0.34240   0.01267  Uiso   1.00
H36    H     0.48230   0.37610   0.41240   0.01267  Uiso   1.00
H37    H     0.53010   0.35350   0.20460   0.01267  Uiso   1.00
H38    H     0.53940   0.43660   0.11770   0.01267  Uiso   1.00
H39    H     0.72920   0.35860   0.07210   0.01267  Uiso   1.00
H40    H     0.66620   0.28860   0.08790   0.01267  Uiso   1.00
H41    H     0.66160   0.52680   0.09030   0.01267  Uiso   1.00
H42    H     0.53530   0.57520   0.13120   0.01267  Uiso   1.00
H43    H     0.62010   0.57200   0.17080   0.01267  Uiso   1.00
H44    H     0.40460   0.14690   0.21840   0.01267  Uiso   1.00
H45    H     0.40090   0.07400   0.17720   0.01267  Uiso   1.00
H46    H     0.23920   0.06480   0.27510   0.01267  Uiso   1.00
H47    H     0.30800   0.05790   0.33170   0.01267  Uiso   1.00
H48    H     0.43980   0.21680   0.04130   0.01267  Uiso   1.00
H49    H     0.34130   0.31510   0.03420   0.01267  Uiso   1.00
H50    H     0.47990   0.24930   0.13790   0.01267  Uiso   1.00
H51    H     0.45660   0.34880   0.06730   0.01267  Uiso   1.00
H52    H     0.20650   0.14720   0.14550   0.01267  Uiso   1.00
H53    H     0.31420   0.13620   0.06630   0.01267  Uiso   1.00
H54    H     0.21760   0.23610   0.06410   0.01267  Uiso   1.00
H55    H     0.75690   0.19250   0.54240   0.01267  Uiso   1.00
H56    H     0.83720   0.92870   0.93620   0.01267  Uiso   1.00
H57    H     0.01940   0.18240   0.53610   0.01267  Uiso   1.00
H58    H     0.80580   0.66730   0.32840   0.01267  Uiso   1.00
H59    H     0.76150   0.18600   0.19240   0.01267  Uiso   1.00
H60    H     0.34390   0.39010   0.20310   0.01267  Uiso   1.00
H61    H     0.01840   0.84950   0.16570   0.01267  Uiso   1.00
H62    H     0.94670   0.92360   0.10280   0.01267  Uiso   1.00
H63    H     0.10460   0.82280   0.00020   0.01267  Uiso   1.00
H64    H     0.06200   0.75770   0.98090   0.01267  Uiso   1.00
H65    H     0.79100   0.00720   0.51720   0.01267  Uiso   1.00
H66    H     0.87940   0.01130   0.54870   0.01267  Uiso   1.00
H67    H     0.93180   0.12120   0.22460   0.01267  Uiso   1.00
H68    H     0.01990   0.08420   0.27350   0.01267  Uiso   1.00
H69    H     0.95390   0.96720   0.42140   0.01267  Uiso   1.00
H70    H     0.96890   0.06480   0.41250   0.01267  Uiso   1.00
H71    H     0.02250   0.89130   0.89550   0.01267  Uiso   1.00
H72    H     0.98040   0.94870   0.96780   0.01267  Uiso   1.00
H73    H     0.00410   0.79550   0.71800   0.01267  Uiso   1.00
H74    H     0.04420   0.76520   0.80030   0.01267  Uiso   1.00
H75    H     0.07770   0.03950   0.68050   0.01267  Uiso   1.00
H76    H     0.20490   0.00650   0.63530   0.01267  Uiso   1.00
H77    H     0.15630   0.95030   0.73090   0.01267  Uiso   1.00
H78    H     0.12810   0.19250   0.73540   0.01267  Uiso   1.00
H79    H     0.15800   0.07780   0.75850   0.01267  Uiso   1.00
H80    H     0.87250   0.31670   0.88360   0.01267  Uiso   1.00
H81    H     0.93050   0.34820   0.92450   0.01267  Uiso   1.00
H82    H     0.97220   0.35390   0.82340   0.01267  Uiso   1.00
H83    H     0.97830   0.56480   0.55150   0.01267  Uiso   1.00
H84    H     0.89570   0.50650   0.58740   0.01267  Uiso   1.00
H85    H     0.96050   0.50350   0.69650   0.01267  Uiso   1.00
H86    H     0.83130   0.54110   0.72010   0.01267  Uiso   1.00
H87    H     0.87030   0.63550   0.43780   0.01267  Uiso   1.00
H88    H     0.79310   0.74150   0.44690   0.01267  Uiso   1.00
H89    H     0.95720   0.75700   0.36890   0.01267  Uiso   1.00
H90    H     0.01710   0.66290   0.43020   0.01267  Uiso   1.00
H91    H     0.69750   0.61180   0.65000   0.01267  Uiso   1.00
H92    H     0.66390   0.69570   0.57020   0.01267  Uiso   1.00
H93    H     0.72690   0.58780   0.56020   0.01267  Uiso   1.00
H94    H     0.53070   0.14000   0.81240   0.01267  Uiso   1.00
H95    H     0.52180   0.25090   0.77860   0.01267  Uiso   1.00
H96    H     0.33640   0.29900   0.84000   0.01267  Uiso   1.00
H97    H     0.38700   0.21630   0.91350   0.01267  Uiso   1.00
H98    H     0.49420   0.33250   0.61940   0.01267  Uiso   1.00
H99    H     0.39060   0.35430   0.70050   0.01267  Uiso   1.00
H100   H     0.40170   0.28250   0.56890   0.01267  Uiso   1.00
H101   H     0.33900   0.39140   0.57670   0.01267  Uiso   1.00
H102   H     0.56240   0.16180   0.60160   0.01267  Uiso   1.00
H103   H     0.62510   0.19050   0.64060   0.01267  Uiso   1.00
H104   H     0.59780   0.09270   0.68610   0.01267  Uiso   1.00
H105   H     0.48770   0.48830   0.69660   0.01267  Uiso   1.00
H106   H     0.55990   0.52240   0.72140   0.01267  Uiso   1.00
H107   H     0.47890   0.68370   0.65760   0.01267  Uiso   1.00
H108   H     0.51770   0.62390   0.58760   0.01267  Uiso   1.00
H109   H     0.46990   0.64650   0.79540   0.01267  Uiso   1.00
H110   H     0.46060   0.56340   0.88230   0.01267  Uiso   1.00
H111   H     0.27080   0.64140   0.92790   0.01267  Uiso   1.00
H112   H     0.33380   0.71140   0.91210   0.01267  Uiso   1.00
H113   H     0.33840   0.47320   0.90970   0.01267  Uiso   1.00
H114   H     0.46470   0.42480   0.86880   0.01267  Uiso   1.00
H115   H     0.37990   0.42800   0.82920   0.01267  Uiso   1.00
H116   H     0.59540   0.85310   0.78160   0.01267  Uiso   1.00
H117   H     0.59910   0.92600   0.82280   0.01267  Uiso   1.00
H118   H     0.76080   0.93520   0.72490   0.01267  Uiso   1.00
H119   H     0.69200   0.94210   0.66830   0.01267  Uiso   1.00
H120   H     0.56020   0.78320   0.95870   0.01267  Uiso   1.00
H121   H     0.65870   0.68490   0.96580   0.01267  Uiso   1.00
H122   H     0.52010   0.75070   0.86210   0.01267  Uiso   1.00
H123   H     0.54340   0.65120   0.93270   0.01267  Uiso   1.00
H124   H     0.79350   0.85280   0.85450   0.01267  Uiso   1.00
H125   H     0.68580   0.86380   0.93370   0.01267  Uiso   1.00
H126   H     0.78240   0.76390   0.93590   0.01267  Uiso   1.00
H127   H     0.24310   0.80750   0.45760   0.01267  Uiso   1.00
H128   H     0.16280   0.07130   0.06380   0.01267  Uiso   1.00
H129   H     0.98060   0.81760   0.46390   0.01267  Uiso   1.00
H130   H     0.19420   0.33270   0.67160   0.01267  Uiso   1.00
H131   H     0.23850   0.81400   0.80760   0.01267  Uiso   1.00
H132   H     0.65610   0.60990   0.79690   0.01267  Uiso   1.00
H133   H     0.98160   0.15050   0.83430   0.01267  Uiso   1.00
H134   H     0.05330   0.07640   0.89720   0.01267  Uiso   1.00
H135   H     0.89540   0.17720   0.99980   0.01267  Uiso   1.00
H136   H     0.93800   0.24230   0.01910   0.01267  Uiso   1.00
H137   H     0.20900   0.99280   0.48280   0.01267  Uiso   1.00
H138   H     0.12060   0.98870   0.45130   0.01267  Uiso   1.00
H139   H     0.06820   0.87880   0.77540   0.01267  Uiso   1.00
H140   H     0.98010   0.91580   0.72650   0.01267  Uiso   1.00
H141   H     0.04610   0.03280   0.57860   0.01267  Uiso   1.00
H142   H     0.03110   0.93520   0.58750   0.01267  Uiso   1.00
H143   H     0.97750   0.10870   0.10450   0.01267  Uiso   1.00
H144   H     0.01960   0.05130   0.03220   0.01267  Uiso   1.00
C1     C     0.57800   0.08790   0.45080   0.01267  Uiso   1.00
C2     C     0.92520   0.61380   0.04060   0.01267  Uiso   1.00
C3     C     0.38340   0.09170   0.45580   0.01267  Uiso   1.00
C4     C     0.56470   0.94850   0.39990   0.01267  Uiso   1.00
C5     C     0.89580   0.44470   0.08510   0.01267  Uiso   1.00
C6     C     0.08050   0.44400   0.08050   0.01267  Uiso   1.00
C7     C     0.93890   0.20620   0.26260   0.01267  Uiso   1.00
C8     C     0.85600   0.01570   0.32560   0.01267  Uiso   1.00
C9     C     0.86170   0.86700   0.21810   0.01267  Uiso   1.00
C10    C     0.05840   0.68230   0.11940   0.01267  Uiso   1.00
C11    C     0.09420   0.43680   0.41040   0.01267  Uiso   1.00
C12    C     0.10250   0.44450   0.32030   0.01267  Uiso   1.00
C13    C     0.14560   0.31280   0.53580   0.01267  Uiso   1.00
C14    C     0.04910   0.28060   0.57070   0.01267  Uiso   1.00
C15    C     0.28100   0.36450   0.41280   0.01267  Uiso   1.00
C16    C     0.51500   0.79470   0.20980   0.01267  Uiso   1.00
C17    C     0.62270   0.76990   0.14340   0.01267  Uiso   1.00
C18    C     0.56870   0.68750   0.34040   0.01267  Uiso   1.00
C19    C     0.63880   0.67590   0.39000   0.01267  Uiso   1.00
C20    C     0.42790   0.84040   0.34520   0.01267  Uiso   1.00
C21    C     0.51150   0.45950   0.28620   0.01267  Uiso   1.00
C22    C     0.53260   0.36590   0.35540   0.01267  Uiso   1.00
C23    C     0.57730   0.39040   0.16080   0.01267  Uiso   1.00
C24    C     0.68190   0.32210   0.11660   0.01267  Uiso   1.00
C25    C     0.60440   0.53730   0.14390   0.01267  Uiso   1.00
C26    C     0.35650   0.12900   0.20420   0.01267  Uiso   1.00
C27    C     0.27330   0.10030   0.28560   0.01267  Uiso   1.00
C28    C     0.37950   0.26220   0.07450   0.01267  Uiso   1.00
C29    C     0.42330   0.30180   0.11300   0.01267  Uiso   1.00
C30    C     0.25640   0.18010   0.10120   0.01267  Uiso   1.00
C31    C     0.95700   0.86140   0.14610   0.01267  Uiso   1.00
C32    C     0.03860   0.81240   0.00620   0.01267  Uiso   1.00
C33    C     0.84140   0.04130   0.50400   0.01267  Uiso   1.00
C34    C     0.94490   0.12540   0.27430   0.01267  Uiso   1.00
C35    C     0.91520   0.03540   0.42300   0.01267  Uiso   1.00
C36    C     0.98360   0.89050   0.95710   0.01267  Uiso   1.00
C37    C     0.42200   0.91210   0.54920   0.01267  Uiso   1.00
C38    C     0.07480   0.38620   0.95940   0.01267  Uiso   1.00
C39    C     0.61660   0.90830   0.54420   0.01267  Uiso   1.00
C40    C     0.43530   0.05150   0.60010   0.01267  Uiso   1.00
C41    C     0.10420   0.55530   0.91490   0.01267  Uiso   1.00
C42    C     0.91950   0.55600   0.91950   0.01267  Uiso   1.00
C43    C     0.06110   0.79380   0.73740   0.01267  Uiso   1.00
C44    C     0.14400   0.98430   0.67440   0.01267  Uiso   1.00
C45    C     0.13830   0.13300   0.78190   0.01267  Uiso   1.00
C46    C     0.94160   0.31770   0.88060   0.01267  Uiso   1.00
C47    C     0.90580   0.56320   0.58960   0.01267  Uiso   1.00
C48    C     0.89750   0.55550   0.67970   0.01267  Uiso   1.00
C49    C     0.85440   0.68720   0.46420   0.01267  Uiso   1.00
C50    C     0.95090   0.71940   0.42930   0.01267  Uiso   1.00
C51    C     0.71900   0.63550   0.58720   0.01267  Uiso   1.00
C52    C     0.48500   0.20530   0.79020   0.01267  Uiso   1.00
C53    C     0.37730   0.23010   0.85660   0.01267  Uiso   1.00
C54    C     0.43130   0.31250   0.65960   0.01267  Uiso   1.00
C55    C     0.36120   0.32410   0.61000   0.01267  Uiso   1.00
C56    C     0.57210   0.15960   0.65480   0.01267  Uiso   1.00
C57    C     0.48850   0.54050   0.71380   0.01267  Uiso   1.00
C58    C     0.46740   0.63410   0.64460   0.01267  Uiso   1.00
C59    C     0.42270   0.60960   0.83920   0.01267  Uiso   1.00
C60    C     0.31810   0.67790   0.88340   0.01267  Uiso   1.00
C61    C     0.39560   0.46270   0.85610   0.01267  Uiso   1.00
C62    C     0.64350   0.87100   0.79580   0.01267  Uiso   1.00
C63    C     0.72670   0.89970   0.71440   0.01267  Uiso   1.00
C64    C     0.62050   0.73780   0.92550   0.01267  Uiso   1.00
C65    C     0.57670   0.69820   0.88700   0.01267  Uiso   1.00
C66    C     0.74360   0.81990   0.89880   0.01267  Uiso   1.00
C67    C     0.04300   0.13860   0.85390   0.01267  Uiso   1.00
C68    C     0.96140   0.18760   0.99380   0.01267  Uiso   1.00
C69    C     0.15860   0.95870   0.49600   0.01267  Uiso   1.00
C70    C     0.05510   0.87460   0.72570   0.01267  Uiso   1.00
C71    C     0.08480   0.96460   0.57700   0.01267  Uiso   1.00
C72    C     0.01640   0.10950   0.04290   0.01267  Uiso   1.00
N1     N     0.62870   0.13940   0.42280   0.01267  Uiso   1.00
N2     N     0.88070   0.68240   0.06530   0.01267  Uiso   1.00
N3     N     0.31040   0.14630   0.43120   0.01267  Uiso   1.00
N4     N     0.59940   0.91420   0.34180   0.01267  Uiso   1.00
N5     N     0.83510   0.40990   0.14120   0.01267  Uiso   1.00
N6     N     0.12860   0.40290   0.13040   0.01267  Uiso   1.00
N7     N     0.86630   0.08010   0.36080   0.01267  Uiso   1.00
N8     N     0.98400   0.78080   0.10370   0.01267  Uiso   1.00
N9     N     0.17760   0.34800   0.44110   0.01267  Uiso   1.00
N10    N     0.53020   0.79010   0.29150   0.01267  Uiso   1.00
N11    N     0.59850   0.44390   0.20350   0.01267  Uiso   1.00
N12    N     0.30310   0.21130   0.14280   0.01267  Uiso   1.00
N13    N     0.37130   0.86060   0.57720   0.01267  Uiso   1.00
N14    N     0.11930   0.31760   0.93470   0.01267  Uiso   1.00
N15    N     0.68960   0.85370   0.56880   0.01267  Uiso   1.00
N16    N     0.40060   0.08580   0.65820   0.01267  Uiso   1.00
N17    N     0.16490   0.59010   0.85880   0.01267  Uiso   1.00
N18    N     0.87140   0.59710   0.86960   0.01267  Uiso   1.00
N19    N     0.13370   0.91990   0.63920   0.01267  Uiso   1.00
N20    N     0.01600   0.21920   0.89630   0.01267  Uiso   1.00
N21    N     0.82240   0.65200   0.55890   0.01267  Uiso   1.00
N22    N     0.46980   0.20990   0.70850   0.01267  Uiso   1.00
N23    N     0.40150   0.55610   0.79650   0.01267  Uiso   1.00
N24    N     0.69690   0.78870   0.85720   0.01267  Uiso   1.00
O1     O     0.83950   0.26900   0.30320   0.01267  Uiso   1.00
O2     O     0.77400   0.15670   0.50270   0.01267  Uiso   1.00
O3     O     0.78270   0.87880   0.18330   0.01267  Uiso   1.00
O4     O     0.88140   0.89270   0.97370   0.01267  Uiso   1.00
O5     O     0.10590   0.35370   0.31800   0.01267  Uiso   1.00
O6     O     0.06000   0.22360   0.51960   0.01267  Uiso   1.00
O7     O     0.67870   0.82630   0.13950   0.01267  Uiso   1.00
O8     O     0.73180   0.70100   0.33230   0.01267  Uiso   1.00
O9     O     0.64050   0.33540   0.35680   0.01267  Uiso   1.00
O10    O     0.73470   0.25400   0.17940   0.01267  Uiso   1.00
O11    O     0.19390   0.18450   0.31180   0.01267  Uiso   1.00
O12    O     0.33950   0.34770   0.17910   0.01267  Uiso   1.00
O13    O     0.16050   0.73100   0.69680   0.01267  Uiso   1.00
O14    O     0.22600   0.84330   0.49730   0.01267  Uiso   1.00
O15    O     0.21730   0.12120   0.81670   0.01267  Uiso   1.00
O16    O     0.11860   0.10730   0.02630   0.01267  Uiso   1.00
O17    O     0.89410   0.64630   0.68200   0.01267  Uiso   1.00
O18    O     0.94000   0.77640   0.48040   0.01267  Uiso   1.00
O19    O     0.32130   0.17370   0.86050   0.01267  Uiso   1.00
O20    O     0.26820   0.29900   0.66770   0.01267  Uiso   1.00
O21    O     0.35950   0.66460   0.64320   0.01267  Uiso   1.00
O22    O     0.26530   0.74600   0.82060   0.01267  Uiso   1.00
O23    O     0.80610   0.81550   0.68820   0.01267  Uiso   1.00
O24    O     0.66050   0.65230   0.82090   0.01267  Uiso   1.00
N25    N     0.34020   0.57960   0.11060   0.01267  Uiso   1.00
O25    O     0.30660   0.54070   0.18790   0.01267  Uiso   1.00
O26    O     0.35560   0.65530   0.09020   0.01267  Uiso   1.00
O27    O     0.36090   0.53790   0.05760   0.01267  Uiso   1.00
N26    N     0.65980   0.42040   0.88940   0.01267  Uiso   1.00
O28    O     0.69340   0.45930   0.81210   0.01267  Uiso   1.00
O29    O     0.64440   0.34470   0.90980   0.01267  Uiso   1.00
O30    O     0.63910   0.46210   0.94240   0.01267  Uiso   1.00
