data_AMILUE_clean
_audit_creation_date              2014-07-02
_audit_creation_method            'Materials Studio'
_symmetry_space_group_name_H-M    'P1'
_symmetry_Int_Tables_number       1
_symmetry_cell_setting            triclinic
loop_
_symmetry_equiv_pos_as_xyz
  x,y,z
_cell_length_a                    12.3400
_cell_length_b                    19.9029
_cell_length_c                    19.9029
_cell_angle_alpha                 102.7730
_cell_angle_beta                  94.5593
_cell_angle_gamma                 94.5593
loop_
_atom_site_label
_atom_site_type_symbol
_atom_site_fract_x
_atom_site_fract_y
_atom_site_fract_z
_atom_site_U_iso_or_equiv
_atom_site_adp_type
_atom_site_occupancy
Zn1    Zn    0.61190   0.07639   0.56510   0.01267  Uiso   1.00
Zn2    Zn    0.80880   0.01687   0.52632   0.01267  Uiso   1.00
Zn3    Zn    0.41050   0.33978   0.60817   0.01267  Uiso   1.00
Zn4    Zn    0.50006   0.48728   0.74876   0.01267  Uiso   1.00
Zn5    Zn    0.11190   0.56510   0.07639   0.01267  Uiso   1.00
Zn6    Zn    0.30880   0.52632   0.01687   0.01267  Uiso   1.00
Zn7    Zn    0.91050   0.60817   0.33978   0.01267  Uiso   1.00
Zn8    Zn    0.00006   0.74876   0.48728   0.01267  Uiso   1.00
H1     H     0.49380   0.20020   0.54180   0.01267  Uiso   1.00
H2     H     0.55330   0.22080   0.61900   0.01267  Uiso   1.00
H3     H     0.52690   0.14330   0.69750   0.01267  Uiso   1.00
H4     H     0.45160   0.07140   0.67100   0.01267  Uiso   1.00
H5     H     0.36220   0.04020   0.55200   0.01267  Uiso   1.00
H6     H     0.37820   0.09250   0.50190   0.01267  Uiso   1.00
H7     H     0.31990   0.25180   0.70580   0.01267  Uiso   1.00
H8     H     0.44960   0.25010   0.71730   0.01267  Uiso   1.00
H9     H     0.20380   0.14220   0.66280   0.01267  Uiso   1.00
H10    H     0.25860   0.07090   0.64830   0.01267  Uiso   1.00
H11    H     0.29650   0.19920   0.52240   0.01267  Uiso   1.00
H12    H     0.22700   0.22050   0.58710   0.01267  Uiso   1.00
H13    H     0.86490   0.87270   0.47210   0.01267  Uiso   1.00
H14    H     0.91700   0.89080   0.55100   0.01267  Uiso   1.00
H15    H     0.98480   0.02290   0.42910   0.01267  Uiso   1.00
H16    H     0.90690   0.95290   0.39790   0.01267  Uiso   1.00
H17    H     0.03500   0.99840   0.59800   0.01267  Uiso   1.00
H18    H     0.06210   0.05030   0.54910   0.01267  Uiso   1.00
H19    H     0.98280   0.84400   0.37860   0.01267  Uiso   1.00
H20    H     0.11100   0.84200   0.39700   0.01267  Uiso   1.00
H21    H     0.17670   0.01970   0.45930   0.01267  Uiso   1.00
H22    H     0.22690   0.94670   0.44730   0.01267  Uiso   1.00
H23    H     0.18810   0.86920   0.51980   0.01267  Uiso   1.00
H24    H     0.10860   0.88890   0.57950   0.01267  Uiso   1.00
H25    H     0.65870   0.85990   0.34390   0.01267  Uiso   1.00
H26    H     0.27880   0.86260   0.32300   0.01267  Uiso   1.00
H27    H     0.38950   0.94680   0.40460   0.01267  Uiso   1.00
H28    H     0.64040   0.75510   0.24630   0.01267  Uiso   1.00
H29    H     0.53360   0.67370   0.16230   0.01267  Uiso   1.00
H30    H     0.26090   0.75500   0.22900   0.01267  Uiso   1.00
H31    H     0.92560   0.15980   0.40600   0.01267  Uiso   1.00
H32    H     0.97140   0.25060   0.35440   0.01267  Uiso   1.00
H33    H     0.65080   0.24450   0.46410   0.01267  Uiso   1.00
H34    H     0.93270   0.36060   0.32480   0.01267  Uiso   1.00
H35    H     0.67220   0.45390   0.39610   0.01267  Uiso   1.00
H36    H     0.61850   0.36080   0.44160   0.01267  Uiso   1.00
H37    H     0.11890   0.34100   0.63260   0.01267  Uiso   1.00
H38    H     0.97760   0.50900   0.79980   0.01267  Uiso   1.00
H39    H     0.16420   0.50390   0.79870   0.01267  Uiso   1.00
H40    H     0.92800   0.29400   0.58220   0.01267  Uiso   1.00
H41    H     0.74170   0.29760   0.58260   0.01267  Uiso   1.00
H42    H     0.78850   0.45840   0.75120   0.01267  Uiso   1.00
H43    H     0.77680   0.85060   0.62920   0.01267  Uiso   1.00
H44    H     0.44140   0.82920   0.72140   0.01267  Uiso   1.00
H45    H     0.48730   0.92350   0.67570   0.01267  Uiso   1.00
H46    H     0.81830   0.73750   0.65130   0.01267  Uiso   1.00
H47    H     0.77020   0.64180   0.69460   0.01267  Uiso   1.00
H48    H     0.48430   0.71400   0.74340   0.01267  Uiso   1.00
H49    H     0.99380   0.54180   0.20020   0.01267  Uiso   1.00
H50    H     0.05330   0.61900   0.22080   0.01267  Uiso   1.00
H51    H     0.02690   0.69750   0.14330   0.01267  Uiso   1.00
H52    H     0.95160   0.67100   0.07140   0.01267  Uiso   1.00
H53    H     0.86220   0.55200   0.04020   0.01267  Uiso   1.00
H54    H     0.87820   0.50190   0.09250   0.01267  Uiso   1.00
H55    H     0.81990   0.70580   0.25180   0.01267  Uiso   1.00
H56    H     0.94960   0.71730   0.25010   0.01267  Uiso   1.00
H57    H     0.70380   0.66280   0.14220   0.01267  Uiso   1.00
H58    H     0.75860   0.64830   0.07090   0.01267  Uiso   1.00
H59    H     0.79650   0.52240   0.19920   0.01267  Uiso   1.00
H60    H     0.72700   0.58710   0.22050   0.01267  Uiso   1.00
H61    H     0.36490   0.47210   0.87270   0.01267  Uiso   1.00
H62    H     0.41700   0.55100   0.89080   0.01267  Uiso   1.00
H63    H     0.48480   0.42910   0.02290   0.01267  Uiso   1.00
H64    H     0.40690   0.39790   0.95290   0.01267  Uiso   1.00
H65    H     0.53500   0.59800   0.99840   0.01267  Uiso   1.00
H66    H     0.56210   0.54910   0.05030   0.01267  Uiso   1.00
H67    H     0.48280   0.37860   0.84400   0.01267  Uiso   1.00
H68    H     0.61100   0.39700   0.84200   0.01267  Uiso   1.00
H69    H     0.67670   0.45930   0.01970   0.01267  Uiso   1.00
H70    H     0.72690   0.44730   0.94670   0.01267  Uiso   1.00
H71    H     0.68810   0.51980   0.86920   0.01267  Uiso   1.00
H72    H     0.60860   0.57950   0.88890   0.01267  Uiso   1.00
H73    H     0.15870   0.34390   0.85990   0.01267  Uiso   1.00
H74    H     0.77880   0.32300   0.86260   0.01267  Uiso   1.00
H75    H     0.88950   0.40460   0.94680   0.01267  Uiso   1.00
H76    H     0.14040   0.24630   0.75510   0.01267  Uiso   1.00
H77    H     0.03360   0.16230   0.67370   0.01267  Uiso   1.00
H78    H     0.76090   0.22900   0.75500   0.01267  Uiso   1.00
H79    H     0.42560   0.40600   0.15980   0.01267  Uiso   1.00
H80    H     0.47140   0.35440   0.25060   0.01267  Uiso   1.00
H81    H     0.15080   0.46410   0.24450   0.01267  Uiso   1.00
H82    H     0.43270   0.32480   0.36060   0.01267  Uiso   1.00
H83    H     0.17220   0.39610   0.45390   0.01267  Uiso   1.00
H84    H     0.11850   0.44160   0.36080   0.01267  Uiso   1.00
H85    H     0.61890   0.63260   0.34100   0.01267  Uiso   1.00
H86    H     0.47760   0.79980   0.50900   0.01267  Uiso   1.00
H87    H     0.66420   0.79870   0.50390   0.01267  Uiso   1.00
H88    H     0.42800   0.58220   0.29400   0.01267  Uiso   1.00
H89    H     0.24170   0.58260   0.29760   0.01267  Uiso   1.00
H90    H     0.28850   0.75120   0.45840   0.01267  Uiso   1.00
H91    H     0.27680   0.62920   0.85060   0.01267  Uiso   1.00
H92    H     0.94140   0.72140   0.82920   0.01267  Uiso   1.00
H93    H     0.98730   0.67570   0.92350   0.01267  Uiso   1.00
H94    H     0.31830   0.65130   0.73750   0.01267  Uiso   1.00
H95    H     0.27020   0.69460   0.64180   0.01267  Uiso   1.00
H96    H     0.98430   0.74340   0.71400   0.01267  Uiso   1.00
C1     C     0.48600   0.19737   0.59019   0.01267  Uiso   1.00
C2     C     0.46030   0.12038   0.66754   0.01267  Uiso   1.00
C3     C     0.37200   0.08975   0.55053   0.01267  Uiso   1.00
C4     C     0.38230   0.22752   0.68796   0.01267  Uiso   1.00
C5     C     0.26870   0.12012   0.64608   0.01267  Uiso   1.00
C6     C     0.29110   0.19692   0.57118   0.01267  Uiso   1.00
C7     C     0.93050   0.89468   0.50362   0.01267  Uiso   1.00
C8     C     0.97150   0.97362   0.43076   0.01267  Uiso   1.00
C9     C     0.04820   0.00085   0.55009   0.01267  Uiso   1.00
C10    C     0.04660   0.86596   0.41166   0.01267  Uiso   1.00
C11    C     0.16160   0.97050   0.46070   0.01267  Uiso   1.00
C12    C     0.12230   0.89281   0.53213   0.01267  Uiso   1.00
C13    C     0.60370   0.96015   0.44009   0.01267  Uiso   1.00
C14    C     0.53540   0.90796   0.38270   0.01267  Uiso   1.00
C15    C     0.58150   0.85984   0.33966   0.01267  Uiso   1.00
C16    C     0.51710   0.80801   0.28723   0.01267  Uiso   1.00
C17    C     0.40300   0.80842   0.28142   0.01267  Uiso   1.00
C18    C     0.35580   0.86131   0.32661   0.01267  Uiso   1.00
C19    C     0.42120   0.91070   0.37550   0.01267  Uiso   1.00
C20    C     0.56340   0.75632   0.24232   0.01267  Uiso   1.00
C21    C     0.49990   0.70768   0.19288   0.01267  Uiso   1.00
C22    C     0.38500   0.70661   0.18603   0.01267  Uiso   1.00
C23    C     0.33820   0.75612   0.23140   0.01267  Uiso   1.00
C24    C     0.31790   0.65012   0.13370   0.01267  Uiso   1.00
C25    C     0.75380   0.13629   0.47481   0.01267  Uiso   1.00
C26    C     0.78230   0.19480   0.43986   0.01267  Uiso   1.00
C27    C     0.87940   0.19602   0.40718   0.01267  Uiso   1.00
C28    C     0.90660   0.25006   0.37714   0.01267  Uiso   1.00
C29    C     0.84040   0.30488   0.37952   0.01267  Uiso   1.00
C30    C     0.74410   0.30322   0.41230   0.01267  Uiso   1.00
C31    C     0.71630   0.24632   0.44226   0.01267  Uiso   1.00
C32    C     0.87060   0.36117   0.35003   0.01267  Uiso   1.00
C33    C     0.81020   0.41649   0.35811   0.01267  Uiso   1.00
C34    C     0.71490   0.41577   0.39181   0.01267  Uiso   1.00
C35    C     0.68300   0.36051   0.41849   0.01267  Uiso   1.00
C36    C     0.85210   0.47991   0.33309   0.01267  Uiso   1.00
C37    C     0.27930   0.41856   0.71516   0.01267  Uiso   1.00
C38    C     0.15770   0.42086   0.71462   0.01267  Uiso   1.00
C39    C     0.08950   0.37458   0.66604   0.01267  Uiso   1.00
C40    C     0.97400   0.37611   0.66495   0.01267  Uiso   1.00
C41    C     0.93130   0.42586   0.71688   0.01267  Uiso   1.00
C42    C     0.00500   0.47455   0.76627   0.01267  Uiso   1.00
C43    C     0.11540   0.47166   0.76530   0.01267  Uiso   1.00
C44    C     0.90020   0.32796   0.61618   0.01267  Uiso   1.00
C45    C     0.78990   0.32911   0.61691   0.01267  Uiso   1.00
C46    C     0.74760   0.37777   0.66921   0.01267  Uiso   1.00
C47    C     0.81770   0.42528   0.71720   0.01267  Uiso   1.00
C48    C     0.62760   0.37797   0.67051   0.01267  Uiso   1.00
C49    C     0.66480   0.95569   0.61543   0.01267  Uiso   1.00
C50    C     0.63700   0.89583   0.64647   0.01267  Uiso   1.00
C51    C     0.70800   0.84562   0.64686   0.01267  Uiso   1.00
C52    C     0.67980   0.78711   0.67309   0.01267  Uiso   1.00
C53    C     0.57920   0.78015   0.70025   0.01267  Uiso   1.00
C54    C     0.50870   0.83272   0.70168   0.01267  Uiso   1.00
C55    C     0.53630   0.88884   0.67496   0.01267  Uiso   1.00
C56    C     0.75070   0.73371   0.67063   0.01267  Uiso   1.00
C57    C     0.72200   0.67691   0.69609   0.01267  Uiso   1.00
C58    C     0.62240   0.67000   0.72448   0.01267  Uiso   1.00
C59    C     0.55260   0.71961   0.72539   0.01267  Uiso   1.00
C60    C     0.58690   0.60510   0.74530   0.01267  Uiso   1.00
C61    C     0.98600   0.59019   0.19737   0.01267  Uiso   1.00
C62    C     0.96030   0.66754   0.12038   0.01267  Uiso   1.00
C63    C     0.87200   0.55053   0.08975   0.01267  Uiso   1.00
C64    C     0.88230   0.68796   0.22752   0.01267  Uiso   1.00
C65    C     0.76870   0.64608   0.12012   0.01267  Uiso   1.00
C66    C     0.79110   0.57118   0.19692   0.01267  Uiso   1.00
C67    C     0.43050   0.50362   0.89468   0.01267  Uiso   1.00
C68    C     0.47150   0.43076   0.97362   0.01267  Uiso   1.00
C69    C     0.54820   0.55009   0.00085   0.01267  Uiso   1.00
C70    C     0.54660   0.41166   0.86596   0.01267  Uiso   1.00
C71    C     0.66160   0.46070   0.97050   0.01267  Uiso   1.00
C72    C     0.62230   0.53213   0.89281   0.01267  Uiso   1.00
C73    C     0.10370   0.44009   0.96015   0.01267  Uiso   1.00
C74    C     0.03540   0.38270   0.90796   0.01267  Uiso   1.00
C75    C     0.08150   0.33966   0.85984   0.01267  Uiso   1.00
C76    C     0.01710   0.28723   0.80801   0.01267  Uiso   1.00
C77    C     0.90300   0.28142   0.80842   0.01267  Uiso   1.00
C78    C     0.85580   0.32661   0.86131   0.01267  Uiso   1.00
C79    C     0.92120   0.37550   0.91070   0.01267  Uiso   1.00
C80    C     0.06340   0.24232   0.75632   0.01267  Uiso   1.00
C81    C     0.99990   0.19288   0.70768   0.01267  Uiso   1.00
C82    C     0.88500   0.18603   0.70661   0.01267  Uiso   1.00
C83    C     0.83820   0.23140   0.75612   0.01267  Uiso   1.00
C84    C     0.81790   0.13370   0.65012   0.01267  Uiso   1.00
C85    C     0.25380   0.47481   0.13629   0.01267  Uiso   1.00
C86    C     0.28230   0.43986   0.19480   0.01267  Uiso   1.00
C87    C     0.37940   0.40718   0.19602   0.01267  Uiso   1.00
C88    C     0.40660   0.37714   0.25006   0.01267  Uiso   1.00
C89    C     0.34040   0.37952   0.30488   0.01267  Uiso   1.00
C90    C     0.24410   0.41230   0.30322   0.01267  Uiso   1.00
C91    C     0.21630   0.44226   0.24632   0.01267  Uiso   1.00
C92    C     0.37060   0.35003   0.36117   0.01267  Uiso   1.00
C93    C     0.31020   0.35811   0.41649   0.01267  Uiso   1.00
C94    C     0.21490   0.39181   0.41577   0.01267  Uiso   1.00
C95    C     0.18300   0.41849   0.36051   0.01267  Uiso   1.00
C96    C     0.35210   0.33309   0.47991   0.01267  Uiso   1.00
C97    C     0.77930   0.71516   0.41856   0.01267  Uiso   1.00
C98    C     0.65770   0.71462   0.42086   0.01267  Uiso   1.00
C99    C     0.58950   0.66604   0.37458   0.01267  Uiso   1.00
C100   C     0.47400   0.66495   0.37611   0.01267  Uiso   1.00
C101   C     0.43130   0.71688   0.42586   0.01267  Uiso   1.00
C102   C     0.50500   0.76627   0.47455   0.01267  Uiso   1.00
C103   C     0.61540   0.76530   0.47166   0.01267  Uiso   1.00
C104   C     0.40020   0.61618   0.32796   0.01267  Uiso   1.00
C105   C     0.28990   0.61691   0.32911   0.01267  Uiso   1.00
C106   C     0.24760   0.66921   0.37777   0.01267  Uiso   1.00
C107   C     0.31770   0.71720   0.42528   0.01267  Uiso   1.00
C108   C     0.12760   0.67051   0.37797   0.01267  Uiso   1.00
C109   C     0.16480   0.61543   0.95569   0.01267  Uiso   1.00
C110   C     0.13700   0.64647   0.89583   0.01267  Uiso   1.00
C111   C     0.20800   0.64686   0.84562   0.01267  Uiso   1.00
C112   C     0.17980   0.67309   0.78711   0.01267  Uiso   1.00
C113   C     0.07920   0.70025   0.78015   0.01267  Uiso   1.00
C114   C     0.00870   0.70168   0.83272   0.01267  Uiso   1.00
C115   C     0.03630   0.67496   0.88884   0.01267  Uiso   1.00
C116   C     0.25070   0.67063   0.73371   0.01267  Uiso   1.00
C117   C     0.22200   0.69609   0.67691   0.01267  Uiso   1.00
C118   C     0.12240   0.72448   0.67000   0.01267  Uiso   1.00
C119   C     0.05260   0.72539   0.71961   0.01267  Uiso   1.00
C120   C     0.08690   0.74530   0.60510   0.01267  Uiso   1.00
N1     N     0.47360   0.12347   0.59413   0.01267  Uiso   1.00
N2     N     0.39150   0.23304   0.61426   0.01267  Uiso   1.00
N3     N     0.36620   0.15405   0.69175   0.01267  Uiso   1.00
N4     N     0.27600   0.12416   0.57566   0.01267  Uiso   1.00
N5     N     0.94800   0.96929   0.50191   0.01267  Uiso   1.00
N6     N     0.02620   0.85735   0.48247   0.01267  Uiso   1.00
N7     N     0.06560   0.93826   0.40942   0.01267  Uiso   1.00
N8     N     0.14300   0.96617   0.53135   0.01267  Uiso   1.00
N9     N     0.97360   0.59413   0.12347   0.01267  Uiso   1.00
N10    N     0.89150   0.61426   0.23304   0.01267  Uiso   1.00
N11    N     0.86620   0.69175   0.15405   0.01267  Uiso   1.00
N12    N     0.77600   0.57566   0.12416   0.01267  Uiso   1.00
N13    N     0.44800   0.50191   0.96929   0.01267  Uiso   1.00
N14    N     0.52620   0.48247   0.85735   0.01267  Uiso   1.00
N15    N     0.56560   0.40942   0.93826   0.01267  Uiso   1.00
N16    N     0.64300   0.53135   0.96617   0.01267  Uiso   1.00
O1     O     0.55280   0.00529   0.47719   0.01267  Uiso   1.00
O2     O     0.70470   0.95490   0.44846   0.01267  Uiso   1.00
O3     O     0.36810   0.61052   0.09332   0.01267  Uiso   1.00
O4     O     0.21560   0.64657   0.13501   0.01267  Uiso   1.00
O5     O     0.67040   0.13926   0.50652   0.01267  Uiso   1.00
O6     O     0.81770   0.08894   0.46976   0.01267  Uiso   1.00
O7     O     0.92490   0.47447   0.29193   0.01267  Uiso   1.00
O8     O     0.81310   0.53393   0.35655   0.01267  Uiso   1.00
O9     O     0.59590   0.99825   0.61525   0.01267  Uiso   1.00
O10    O     0.33853   0.47098   0.74830   0.01267  Uiso   1.00
O11    O     0.31433   0.36396   0.68326   0.01267  Uiso   1.00
O12    O     0.56959   0.34547   0.61581   0.01267  Uiso   1.00
O13    O     0.58990   0.40743   0.72551   0.01267  Uiso   1.00
O14    O     0.75410   0.95729   0.58959   0.01267  Uiso   1.00
O15    O     0.64910   0.55680   0.73910   0.01267  Uiso   1.00
O16    O     0.49440   0.59563   0.76369   0.01267  Uiso   1.00
O17    O     0.05280   0.47719   0.00529   0.01267  Uiso   1.00
O18    O     0.20470   0.44846   0.95490   0.01267  Uiso   1.00
O19    O     0.86810   0.09332   0.61052   0.01267  Uiso   1.00
O20    O     0.71560   0.13501   0.64657   0.01267  Uiso   1.00
O21    O     0.17040   0.50652   0.13926   0.01267  Uiso   1.00
O22    O     0.31770   0.46976   0.08894   0.01267  Uiso   1.00
O23    O     0.42490   0.29193   0.47447   0.01267  Uiso   1.00
O24    O     0.31310   0.35655   0.53393   0.01267  Uiso   1.00
O25    O     0.09590   0.61525   0.99825   0.01267  Uiso   1.00
O26    O     0.83853   0.74830   0.47098   0.01267  Uiso   1.00
O27    O     0.81433   0.68326   0.36396   0.01267  Uiso   1.00
O28    O     0.06959   0.61581   0.34547   0.01267  Uiso   1.00
O29    O     0.08990   0.72551   0.40743   0.01267  Uiso   1.00
O30    O     0.25410   0.58959   0.95729   0.01267  Uiso   1.00
O31    O     0.14910   0.73910   0.55680   0.01267  Uiso   1.00
O32    O     0.99440   0.76369   0.59563   0.01267  Uiso   1.00
