data_AMIMEP_clean
_audit_creation_date              2014-07-02
_audit_creation_method            'Materials Studio'
_symmetry_space_group_name_H-M    'P1'
_symmetry_Int_Tables_number       1
_symmetry_cell_setting            triclinic
loop_
_symmetry_equiv_pos_as_xyz
  x,y,z
_cell_length_a                    12.2751
_cell_length_b                    19.9288
_cell_length_c                    19.9288
_cell_angle_alpha                 103.5360
_cell_angle_beta                  93.8976
_cell_angle_gamma                 93.8976
loop_
_atom_site_label
_atom_site_type_symbol
_atom_site_fract_x
_atom_site_fract_y
_atom_site_fract_z
_atom_site_U_iso_or_equiv
_atom_site_adp_type
_atom_site_occupancy
Zn1    Zn    0.81324   0.60609   0.11638   0.01267  Uiso   1.00
Zn2    Zn    0.61380   0.66722   0.15566   0.01267  Uiso   1.00
Zn3    Zn    0.92931   0.19862   0.93606   0.01267  Uiso   1.00
Zn4    Zn    0.01809   0.34034   0.08545   0.01267  Uiso   1.00
Zn5    Zn    0.31324   0.11638   0.60609   0.01267  Uiso   1.00
Zn6    Zn    0.11380   0.15566   0.66722   0.01267  Uiso   1.00
Zn7    Zn    0.42931   0.93606   0.19862   0.01267  Uiso   1.00
Zn8    Zn    0.51809   0.08545   0.34034   0.01267  Uiso   1.00
H1     H     0.50530   0.73130   0.28290   0.01267  Uiso   1.00
H2     H     0.42860   0.66190   0.24810   0.01267  Uiso   1.00
H3     H     0.30170   0.84500   0.28040   0.01267  Uiso   1.00
H4     H     0.42850   0.84170   0.30310   0.01267  Uiso   1.00
H5     H     0.32270   0.80100   0.09980   0.01267  Uiso   1.00
H6     H     0.23790   0.82160   0.15720   0.01267  Uiso   1.00
H7     H     0.18830   0.74170   0.22690   0.01267  Uiso   1.00
H8     H     0.23830   0.66810   0.21390   0.01267  Uiso   1.00
H9     H     0.36110   0.63780   0.12580   0.01267  Uiso   1.00
H10    H     0.39430   0.69100   0.08020   0.01267  Uiso   1.00
H11    H     0.51250   0.79660   0.13260   0.01267  Uiso   1.00
H12    H     0.55750   0.81260   0.21260   0.01267  Uiso   1.00
H13    H     0.05700   0.59440   0.17360   0.01267  Uiso   1.00
H14    H     0.06630   0.64010   0.11770   0.01267  Uiso   1.00
H15    H     0.87100   0.46080   0.07140   0.01267  Uiso   1.00
H16    H     0.93890   0.48640   0.14560   0.01267  Uiso   1.00
H17    H     0.96310   0.60080   0.00360   0.01267  Uiso   1.00
H18    H     0.88650   0.52960   0.98520   0.01267  Uiso   1.00
H19    H     0.20000   0.45850   0.08750   0.01267  Uiso   1.00
H20    H     0.13790   0.48530   0.15550   0.01267  Uiso   1.00
H21    H     0.15860   0.59900   0.01540   0.01267  Uiso   1.00
H22    H     0.21130   0.52620   0.00340   0.01267  Uiso   1.00
H23    H     0.96440   0.42190   0.96750   0.01267  Uiso   1.00
H24    H     0.09480   0.41970   0.97330   0.01267  Uiso   1.00
H25    H     0.65830   0.83600   0.05560   0.01267  Uiso   1.00
H26    H     0.63380   0.95480   0.03860   0.01267  Uiso   1.00
H27    H     0.70060   0.05030   0.00330   0.01267  Uiso   1.00
H28    H     0.95560   0.95040   0.92440   0.01267  Uiso   1.00
H29    H     0.97990   0.83020   0.94100   0.01267  Uiso   1.00
H30    H     0.92350   0.73970   0.98770   0.01267  Uiso   1.00
H31    H     0.79240   0.45140   0.22740   0.01267  Uiso   1.00
H32    H     0.45330   0.42050   0.31490   0.01267  Uiso   1.00
H33    H     0.49320   0.51520   0.27140   0.01267  Uiso   1.00
H34    H     0.84730   0.34290   0.25310   0.01267  Uiso   1.00
H35    H     0.80760   0.24650   0.29530   0.01267  Uiso   1.00
H36    H     0.50860   0.30760   0.34080   0.01267  Uiso   1.00
H37    H     0.76460   0.83320   0.33180   0.01267  Uiso   1.00
H38    H     0.78190   0.93940   0.42960   0.01267  Uiso   1.00
H39    H     0.16300   0.92770   0.45250   0.01267  Uiso   1.00
H40    H     0.14370   0.81670   0.36030   0.01267  Uiso   1.00
H41    H     0.03440   0.73570   0.27590   0.01267  Uiso   1.00
H42    H     0.89040   0.01830   0.51470   0.01267  Uiso   1.00
H43    H     0.67820   0.38630   0.10650   0.01267  Uiso   1.00
H44    H     0.49070   0.38800   0.10760   0.01267  Uiso   1.00
H45    H     0.30330   0.33950   0.05590   0.01267  Uiso   1.00
H46    H     0.64200   0.22540   0.93720   0.01267  Uiso   1.00
H47    H     0.45330   0.17280   0.88840   0.01267  Uiso   1.00
H48    H     0.26650   0.17420   0.89020   0.01267  Uiso   1.00
H49    H     0.00530   0.28290   0.73130   0.01267  Uiso   1.00
H50    H     0.92860   0.24810   0.66190   0.01267  Uiso   1.00
H51    H     0.80170   0.28040   0.84500   0.01267  Uiso   1.00
H52    H     0.92850   0.30310   0.84170   0.01267  Uiso   1.00
H53    H     0.82270   0.09980   0.80100   0.01267  Uiso   1.00
H54    H     0.73790   0.15720   0.82160   0.01267  Uiso   1.00
H55    H     0.68830   0.22690   0.74170   0.01267  Uiso   1.00
H56    H     0.73830   0.21390   0.66810   0.01267  Uiso   1.00
H57    H     0.86110   0.12580   0.63780   0.01267  Uiso   1.00
H58    H     0.89430   0.08020   0.69100   0.01267  Uiso   1.00
H59    H     0.01250   0.13260   0.79660   0.01267  Uiso   1.00
H60    H     0.05750   0.21260   0.81260   0.01267  Uiso   1.00
H61    H     0.55700   0.17360   0.59440   0.01267  Uiso   1.00
H62    H     0.56630   0.11770   0.64010   0.01267  Uiso   1.00
H63    H     0.37100   0.07140   0.46080   0.01267  Uiso   1.00
H64    H     0.43890   0.14560   0.48640   0.01267  Uiso   1.00
H65    H     0.46310   0.00360   0.60080   0.01267  Uiso   1.00
H66    H     0.38650   0.98520   0.52960   0.01267  Uiso   1.00
H67    H     0.70000   0.08750   0.45850   0.01267  Uiso   1.00
H68    H     0.63790   0.15550   0.48530   0.01267  Uiso   1.00
H69    H     0.65860   0.01540   0.59900   0.01267  Uiso   1.00
H70    H     0.71130   0.00340   0.52620   0.01267  Uiso   1.00
H71    H     0.46440   0.96750   0.42190   0.01267  Uiso   1.00
H72    H     0.59480   0.97330   0.41970   0.01267  Uiso   1.00
H73    H     0.15830   0.05560   0.83600   0.01267  Uiso   1.00
H74    H     0.13380   0.03860   0.95480   0.01267  Uiso   1.00
H75    H     0.20060   0.00330   0.05030   0.01267  Uiso   1.00
H76    H     0.45560   0.92440   0.95040   0.01267  Uiso   1.00
H77    H     0.47990   0.94100   0.83020   0.01267  Uiso   1.00
H78    H     0.42350   0.98770   0.73970   0.01267  Uiso   1.00
H79    H     0.29240   0.22740   0.45140   0.01267  Uiso   1.00
H80    H     0.95330   0.31490   0.42050   0.01267  Uiso   1.00
H81    H     0.99320   0.27140   0.51520   0.01267  Uiso   1.00
H82    H     0.34730   0.25310   0.34290   0.01267  Uiso   1.00
H83    H     0.30760   0.29530   0.24650   0.01267  Uiso   1.00
H84    H     0.00860   0.34080   0.30760   0.01267  Uiso   1.00
H85    H     0.26460   0.33180   0.83320   0.01267  Uiso   1.00
H86    H     0.28190   0.42960   0.93940   0.01267  Uiso   1.00
H87    H     0.66300   0.45250   0.92770   0.01267  Uiso   1.00
H88    H     0.64370   0.36030   0.81670   0.01267  Uiso   1.00
H89    H     0.53440   0.27590   0.73570   0.01267  Uiso   1.00
H90    H     0.39040   0.51470   0.01830   0.01267  Uiso   1.00
H91    H     0.17820   0.10650   0.38630   0.01267  Uiso   1.00
H92    H     0.99070   0.10760   0.38800   0.01267  Uiso   1.00
H93    H     0.80330   0.05590   0.33950   0.01267  Uiso   1.00
H94    H     0.14200   0.93720   0.22540   0.01267  Uiso   1.00
H95    H     0.95330   0.88840   0.17280   0.01267  Uiso   1.00
H96    H     0.76650   0.89020   0.17420   0.01267  Uiso   1.00
C1     C     0.44310   0.71135   0.24807   0.01267  Uiso   1.00
C2     C     0.36760   0.82055   0.26767   0.01267  Uiso   1.00
C3     C     0.30400   0.79673   0.14621   0.01267  Uiso   1.00
C4     C     0.25460   0.71755   0.21441   0.01267  Uiso   1.00
C5     C     0.37650   0.68743   0.12699   0.01267  Uiso   1.00
C6     C     0.49410   0.79187   0.17897   0.01267  Uiso   1.00
C7     C     0.05750   0.59211   0.12345   0.01267  Uiso   1.00
C8     C     0.94090   0.48493   0.09569   0.01267  Uiso   1.00
C9     C     0.95590   0.55326   0.01074   0.01267  Uiso   1.00
C10    C     0.13730   0.48371   0.10547   0.01267  Uiso   1.00
C11    C     0.14880   0.55125   0.02207   0.01267  Uiso   1.00
C12    C     0.03370   0.44569   0.99287   0.01267  Uiso   1.00
C13    C     0.75380   0.72253   0.06023   0.01267  Uiso   1.00
C14    C     0.78560   0.77988   0.02654   0.01267  Uiso   1.00
C15    C     0.72430   0.83586   0.03330   0.01267  Uiso   1.00
C16    C     0.75880   0.89370   0.00716   0.01267  Uiso   1.00
C17    C     0.70030   0.95374   0.01672   0.01267  Uiso   1.00
C18    C     0.73900   0.00976   0.99484   0.01267  Uiso   1.00
C19    C     0.89150   0.95107   0.94859   0.01267  Uiso   1.00
C20    C     0.91560   0.83257   0.96505   0.01267  Uiso   1.00
C21    C     0.88160   0.77861   0.99221   0.01267  Uiso   1.00
C22    C     0.83520   0.00865   0.95985   0.01267  Uiso   1.00
C23    C     0.87850   0.07163   0.93749   0.01267  Uiso   1.00
C24    C     0.85610   0.89190   0.97232   0.01267  Uiso   1.00
C25    C     0.67020   0.55196   0.21180   0.01267  Uiso   1.00
C26    C     0.64760   0.49282   0.24484   0.01267  Uiso   1.00
C27    C     0.72380   0.44476   0.24542   0.01267  Uiso   1.00
C28    C     0.70170   0.38631   0.27207   0.01267  Uiso   1.00
C29    C     0.59970   0.37638   0.29898   0.01267  Uiso   1.00
C30    C     0.52250   0.42637   0.29743   0.01267  Uiso   1.00
C31    C     0.54600   0.48247   0.27159   0.01267  Uiso   1.00
C32    C     0.77860   0.33650   0.27102   0.01267  Uiso   1.00
C33    C     0.75490   0.27926   0.29558   0.01267  Uiso   1.00
C34    C     0.57710   0.31557   0.32319   0.01267  Uiso   1.00
C35    C     0.65340   0.26853   0.32127   0.01267  Uiso   1.00
C36    C     0.62540   0.20178   0.34304   0.01267  Uiso   1.00
C37    C     0.82060   0.72609   0.23745   0.01267  Uiso   1.00
C38    C     0.88860   0.77765   0.29533   0.01267  Uiso   1.00
C39    C     0.84150   0.83039   0.33759   0.01267  Uiso   1.00
C40    C     0.90610   0.88052   0.38964   0.01267  Uiso   1.00
C41    C     0.85860   0.93579   0.43447   0.01267  Uiso   1.00
C42    C     0.08570   0.92905   0.44799   0.01267  Uiso   1.00
C43    C     0.02070   0.87690   0.39710   0.01267  Uiso   1.00
C44    C     0.06720   0.82102   0.35446   0.01267  Uiso   1.00
C45    C     0.00220   0.77279   0.30453   0.01267  Uiso   1.00
C46    C     0.03830   0.98100   0.49056   0.01267  Uiso   1.00
C47    C     0.10650   0.03479   0.54395   0.01267  Uiso   1.00
C48    C     0.92320   0.98307   0.48395   0.01267  Uiso   1.00
C49    C     0.67710   0.30581   0.02007   0.01267  Uiso   1.00
C50    C     0.79840   0.30605   0.02015   0.01267  Uiso   1.00
C51    C     0.63140   0.35415   0.07209   0.01267  Uiso   1.00
C52    C     0.52080   0.35468   0.07306   0.01267  Uiso   1.00
C53    C     0.33480   0.30606   0.02230   0.01267  Uiso   1.00
C54    C     0.14650   0.26049   0.97309   0.01267  Uiso   1.00
C55    C     0.45070   0.30635   0.02351   0.01267  Uiso   1.00
C56    C     0.49570   0.25635   0.97171   0.01267  Uiso   1.00
C57    C     0.61040   0.25796   0.97154   0.01267  Uiso   1.00
C58    C     0.42380   0.20682   0.92234   0.01267  Uiso   1.00
C59    C     0.26710   0.25827   0.97329   0.01267  Uiso   1.00
C60    C     0.31330   0.20780   0.92334   0.01267  Uiso   1.00
C61    C     0.94310   0.24807   0.71135   0.01267  Uiso   1.00
C62    C     0.86760   0.26767   0.82055   0.01267  Uiso   1.00
C63    C     0.80400   0.14621   0.79673   0.01267  Uiso   1.00
C64    C     0.75460   0.21441   0.71755   0.01267  Uiso   1.00
C65    C     0.87650   0.12699   0.68743   0.01267  Uiso   1.00
C66    C     0.99410   0.17897   0.79187   0.01267  Uiso   1.00
C67    C     0.55750   0.12345   0.59211   0.01267  Uiso   1.00
C68    C     0.44090   0.09569   0.48493   0.01267  Uiso   1.00
C69    C     0.45590   0.01074   0.55326   0.01267  Uiso   1.00
C70    C     0.63730   0.10547   0.48371   0.01267  Uiso   1.00
C71    C     0.64880   0.02207   0.55125   0.01267  Uiso   1.00
C72    C     0.53370   0.99287   0.44569   0.01267  Uiso   1.00
C73    C     0.25380   0.06023   0.72253   0.01267  Uiso   1.00
C74    C     0.28560   0.02654   0.77988   0.01267  Uiso   1.00
C75    C     0.22430   0.03330   0.83586   0.01267  Uiso   1.00
C76    C     0.25880   0.00716   0.89370   0.01267  Uiso   1.00
C77    C     0.20030   0.01672   0.95374   0.01267  Uiso   1.00
C78    C     0.23900   0.99484   0.00976   0.01267  Uiso   1.00
C79    C     0.39150   0.94859   0.95107   0.01267  Uiso   1.00
C80    C     0.41560   0.96505   0.83257   0.01267  Uiso   1.00
C81    C     0.38160   0.99221   0.77861   0.01267  Uiso   1.00
C82    C     0.33520   0.95985   0.00865   0.01267  Uiso   1.00
C83    C     0.37850   0.93749   0.07163   0.01267  Uiso   1.00
C84    C     0.35610   0.97232   0.89190   0.01267  Uiso   1.00
C85    C     0.17020   0.21180   0.55196   0.01267  Uiso   1.00
C86    C     0.14760   0.24484   0.49282   0.01267  Uiso   1.00
C87    C     0.22380   0.24542   0.44476   0.01267  Uiso   1.00
C88    C     0.20170   0.27207   0.38631   0.01267  Uiso   1.00
C89    C     0.09970   0.29898   0.37638   0.01267  Uiso   1.00
C90    C     0.02250   0.29743   0.42637   0.01267  Uiso   1.00
C91    C     0.04600   0.27159   0.48247   0.01267  Uiso   1.00
C92    C     0.27860   0.27102   0.33650   0.01267  Uiso   1.00
C93    C     0.25490   0.29558   0.27926   0.01267  Uiso   1.00
C94    C     0.07710   0.32319   0.31557   0.01267  Uiso   1.00
C95    C     0.15340   0.32127   0.26853   0.01267  Uiso   1.00
C96    C     0.12540   0.34304   0.20178   0.01267  Uiso   1.00
C97    C     0.32060   0.23745   0.72609   0.01267  Uiso   1.00
C98    C     0.38860   0.29533   0.77765   0.01267  Uiso   1.00
C99    C     0.34150   0.33759   0.83039   0.01267  Uiso   1.00
C100   C     0.40610   0.38964   0.88052   0.01267  Uiso   1.00
C101   C     0.35860   0.43447   0.93579   0.01267  Uiso   1.00
C102   C     0.58570   0.44799   0.92905   0.01267  Uiso   1.00
C103   C     0.52070   0.39710   0.87690   0.01267  Uiso   1.00
C104   C     0.56720   0.35446   0.82102   0.01267  Uiso   1.00
C105   C     0.50220   0.30453   0.77279   0.01267  Uiso   1.00
C106   C     0.53830   0.49056   0.98100   0.01267  Uiso   1.00
C107   C     0.60650   0.54395   0.03479   0.01267  Uiso   1.00
C108   C     0.42320   0.48395   0.98307   0.01267  Uiso   1.00
C109   C     0.17710   0.02007   0.30581   0.01267  Uiso   1.00
C110   C     0.29840   0.02015   0.30605   0.01267  Uiso   1.00
C111   C     0.13140   0.07209   0.35415   0.01267  Uiso   1.00
C112   C     0.02080   0.07306   0.35468   0.01267  Uiso   1.00
C113   C     0.83480   0.02230   0.30606   0.01267  Uiso   1.00
C114   C     0.64650   0.97309   0.26049   0.01267  Uiso   1.00
C115   C     0.95070   0.02351   0.30635   0.01267  Uiso   1.00
C116   C     0.99570   0.97171   0.25635   0.01267  Uiso   1.00
C117   C     0.11040   0.97154   0.25796   0.01267  Uiso   1.00
C118   C     0.92380   0.92234   0.20682   0.01267  Uiso   1.00
C119   C     0.76710   0.97329   0.25827   0.01267  Uiso   1.00
C120   C     0.81330   0.92334   0.20780   0.01267  Uiso   1.00
N1     N     0.47340   0.71688   0.17796   0.01267  Uiso   1.00
N2     N     0.34610   0.74755   0.26747   0.01267  Uiso   1.00
N3     N     0.27950   0.72331   0.14471   0.01267  Uiso   1.00
N4     N     0.39680   0.82972   0.19842   0.01267  Uiso   1.00
N5     N     0.95110   0.55694   0.08650   0.01267  Uiso   1.00
N6     N     0.03240   0.44543   0.06861   0.01267  Uiso   1.00
N7     N     0.15010   0.55455   0.09615   0.01267  Uiso   1.00
N8     N     0.04690   0.51648   0.98312   0.01267  Uiso   1.00
N9     N     0.97340   0.17796   0.71688   0.01267  Uiso   1.00
N10    N     0.84610   0.26747   0.74755   0.01267  Uiso   1.00
N11    N     0.77950   0.14471   0.72331   0.01267  Uiso   1.00
N12    N     0.89680   0.19842   0.82972   0.01267  Uiso   1.00
N13    N     0.45110   0.08650   0.55694   0.01267  Uiso   1.00
N14    N     0.53240   0.06861   0.44543   0.01267  Uiso   1.00
N15    N     0.65010   0.09615   0.55455   0.01267  Uiso   1.00
N16    N     0.54690   0.98312   0.51648   0.01267  Uiso   1.00
O1     O     0.81620   0.67478   0.05604   0.01267  Uiso   1.00
O2     O     0.66930   0.72696   0.09282   0.01267  Uiso   1.00
O3     O     0.83540   0.12740   0.96234   0.01267  Uiso   1.00
O4     O     0.95290   0.06860   0.89832   0.01267  Uiso   1.00
O5     O     0.76010   0.55436   0.18536   0.01267  Uiso   1.00
O6     O     0.59920   0.59422   0.21226   0.01267  Uiso   1.00
O7     O     0.69490   0.15960   0.34220   0.01267  Uiso   1.00
O8     O     0.52850   0.19016   0.35800   0.01267  Uiso   1.00
O9     O     0.87360   0.68509   0.19761   0.01267  Uiso   1.00
O10    O     0.71880   0.72817   0.23399   0.01267  Uiso   1.00
O11    O     0.05650   0.07198   0.59142   0.01267  Uiso   1.00
O12    O     0.20750   0.04258   0.53938   0.01267  Uiso   1.00
O13    O     0.10970   0.31523   0.00627   0.01267  Uiso   1.00
O14    O     0.08850   0.20740   0.93918   0.01267  Uiso   1.00
O15    O     0.85490   0.33801   0.07493   0.01267  Uiso   1.00
O16    O     0.83820   0.27698   0.96480   0.01267  Uiso   1.00
O17    O     0.31620   0.05604   0.67478   0.01267  Uiso   1.00
O18    O     0.16930   0.09282   0.72696   0.01267  Uiso   1.00
O19    O     0.33540   0.96234   0.12740   0.01267  Uiso   1.00
O20    O     0.45290   0.89832   0.06860   0.01267  Uiso   1.00
O21    O     0.26010   0.18536   0.55436   0.01267  Uiso   1.00
O22    O     0.09920   0.21226   0.59422   0.01267  Uiso   1.00
O23    O     0.19490   0.34220   0.15960   0.01267  Uiso   1.00
O24    O     0.02850   0.35800   0.19016   0.01267  Uiso   1.00
O25    O     0.37360   0.19761   0.68509   0.01267  Uiso   1.00
O26    O     0.21880   0.23399   0.72817   0.01267  Uiso   1.00
O27    O     0.55650   0.59142   0.07198   0.01267  Uiso   1.00
O28    O     0.70750   0.53938   0.04258   0.01267  Uiso   1.00
O29    O     0.60970   0.00627   0.31523   0.01267  Uiso   1.00
O30    O     0.58850   0.93918   0.20740   0.01267  Uiso   1.00
O31    O     0.35490   0.07493   0.33801   0.01267  Uiso   1.00
O32    O     0.33820   0.96480   0.27698   0.01267  Uiso   1.00
