data_AMIWID_clean
_audit_creation_date              2014-07-02
_audit_creation_method            'Materials Studio'
_symmetry_space_group_name_H-M    'P1'
_symmetry_Int_Tables_number       1
_symmetry_cell_setting            triclinic
loop_
_symmetry_equiv_pos_as_xyz
  x,y,z
_cell_length_a                    10.8600
_cell_length_b                    13.2320
_cell_length_c                    14.3120
_cell_angle_alpha                 90.0000
_cell_angle_beta                  90.0000
_cell_angle_gamma                 90.5210
loop_
_atom_site_label
_atom_site_type_symbol
_atom_site_fract_x
_atom_site_fract_y
_atom_site_fract_z
_atom_site_U_iso_or_equiv
_atom_site_adp_type
_atom_site_occupancy
Eu1    Eu    0.25585   0.71487   0.78223   0.01267  Uiso   1.00
Eu2    Eu    0.00413   0.86791   0.63842   0.01267  Uiso   1.00
Eu3    Eu    0.24415   0.78513   0.28223   0.01267  Uiso   1.00
Eu4    Eu    0.49587   0.63209   0.13842   0.01267  Uiso   1.00
Eu5    Eu    0.74415   0.28513   0.21777   0.01267  Uiso   1.00
Eu6    Eu    0.99587   0.13209   0.36158   0.01267  Uiso   1.00
Eu7    Eu    0.75585   0.21487   0.71777   0.01267  Uiso   1.00
Eu8    Eu    0.50413   0.36791   0.86158   0.01267  Uiso   1.00
H1     H     0.12200   0.86730   0.04390   0.01267  Uiso   1.00
H2     H     0.06080   0.41610   0.86700   0.01267  Uiso   1.00
H3     H     0.03270   0.43580   0.64720   0.01267  Uiso   1.00
H4     H     0.37800   0.63270   0.54390   0.01267  Uiso   1.00
H5     H     0.43920   0.08390   0.36700   0.01267  Uiso   1.00
H6     H     0.46730   0.06420   0.14720   0.01267  Uiso   1.00
H7     H     0.87800   0.13270   0.95610   0.01267  Uiso   1.00
H8     H     0.93920   0.58390   0.13300   0.01267  Uiso   1.00
H9     H     0.96730   0.56420   0.35280   0.01267  Uiso   1.00
H10    H     0.62200   0.36730   0.45610   0.01267  Uiso   1.00
H11    H     0.56080   0.91610   0.63300   0.01267  Uiso   1.00
H12    H     0.53270   0.93580   0.85280   0.01267  Uiso   1.00
C1     C     0.07300   0.92120   0.02590   0.01267  Uiso   1.00
C2     C     0.03540   0.92820   0.93360   0.01267  Uiso   1.00
C3     C     0.03920   0.99320   0.09300   0.01267  Uiso   1.00
C4     C     0.08630   0.84790   0.87000   0.01267  Uiso   1.00
C5     C     0.09040   0.97980   0.18820   0.01267  Uiso   1.00
C6     C     0.12210   0.50270   0.97160   0.01267  Uiso   1.00
C7     C     0.03610   0.44960   0.92090   0.01267  Uiso   1.00
C8     C     0.08730   0.55560   0.05210   0.01267  Uiso   1.00
C9     C     0.25360   0.50740   0.93320   0.01267  Uiso   1.00
C10    C     0.18070   0.61140   0.11130   0.01267  Uiso   1.00
C11    C     0.02010   0.46210   0.58770   0.01267  Uiso   1.00
C12    C     0.97920   0.39790   0.51780   0.01267  Uiso   1.00
C13    C     0.04250   0.56220   0.57310   0.01267  Uiso   1.00
C14    C     0.09630   0.62110   0.65260   0.01267  Uiso   1.00
C15    C     0.96000   0.29030   0.54680   0.01267  Uiso   1.00
C16    C     0.42700   0.57880   0.52590   0.01267  Uiso   1.00
C17    C     0.46460   0.57180   0.43360   0.01267  Uiso   1.00
C18    C     0.46080   0.50680   0.59300   0.01267  Uiso   1.00
C19    C     0.41370   0.65210   0.37000   0.01267  Uiso   1.00
C20    C     0.40960   0.52020   0.68820   0.01267  Uiso   1.00
C21    C     0.37790   0.99730   0.47160   0.01267  Uiso   1.00
C22    C     0.46390   0.05040   0.42090   0.01267  Uiso   1.00
C23    C     0.41270   0.94440   0.55210   0.01267  Uiso   1.00
C24    C     0.24640   0.99260   0.43320   0.01267  Uiso   1.00
C25    C     0.31930   0.88860   0.61130   0.01267  Uiso   1.00
C26    C     0.47990   0.03790   0.08770   0.01267  Uiso   1.00
C27    C     0.52080   0.10210   0.01780   0.01267  Uiso   1.00
C28    C     0.45750   0.93780   0.07310   0.01267  Uiso   1.00
C29    C     0.40370   0.87890   0.15260   0.01267  Uiso   1.00
C30    C     0.54000   0.20970   0.04680   0.01267  Uiso   1.00
C31    C     0.92700   0.07880   0.97410   0.01267  Uiso   1.00
C32    C     0.96460   0.07180   0.06640   0.01267  Uiso   1.00
C33    C     0.96080   0.00680   0.90700   0.01267  Uiso   1.00
C34    C     0.91370   0.15210   0.13000   0.01267  Uiso   1.00
C35    C     0.90960   0.02020   0.81180   0.01267  Uiso   1.00
C36    C     0.87790   0.49730   0.02840   0.01267  Uiso   1.00
C37    C     0.96390   0.55040   0.07910   0.01267  Uiso   1.00
C38    C     0.91270   0.44440   0.94790   0.01267  Uiso   1.00
C39    C     0.74640   0.49260   0.06680   0.01267  Uiso   1.00
C40    C     0.81930   0.38860   0.88870   0.01267  Uiso   1.00
C41    C     0.97990   0.53790   0.41230   0.01267  Uiso   1.00
C42    C     0.02080   0.60210   0.48220   0.01267  Uiso   1.00
C43    C     0.95750   0.43780   0.42690   0.01267  Uiso   1.00
C44    C     0.90370   0.37890   0.34740   0.01267  Uiso   1.00
C45    C     0.04000   0.70970   0.45320   0.01267  Uiso   1.00
C46    C     0.57300   0.42120   0.47410   0.01267  Uiso   1.00
C47    C     0.53540   0.42820   0.56640   0.01267  Uiso   1.00
C48    C     0.53920   0.49320   0.40700   0.01267  Uiso   1.00
C49    C     0.58630   0.34790   0.63000   0.01267  Uiso   1.00
C50    C     0.59040   0.47980   0.31180   0.01267  Uiso   1.00
C51    C     0.62210   0.00270   0.52840   0.01267  Uiso   1.00
C52    C     0.53610   0.94960   0.57910   0.01267  Uiso   1.00
C53    C     0.58730   0.05560   0.44790   0.01267  Uiso   1.00
C54    C     0.75360   0.00740   0.56680   0.01267  Uiso   1.00
C55    C     0.68070   0.11140   0.38870   0.01267  Uiso   1.00
C56    C     0.52010   0.96210   0.91230   0.01267  Uiso   1.00
C57    C     0.47920   0.89790   0.98220   0.01267  Uiso   1.00
C58    C     0.54250   0.06220   0.92690   0.01267  Uiso   1.00
C59    C     0.59630   0.12110   0.84740   0.01267  Uiso   1.00
C60    C     0.46000   0.79030   0.95320   0.01267  Uiso   1.00
O1     O     0.10620   0.76200   0.90250   0.01267  Uiso   1.00
O2     O     0.11890   0.86760   0.78590   0.01267  Uiso   1.00
O3     O     0.10770   0.88910   0.21130   0.01267  Uiso   1.00
O4     O     0.10800   0.05520   0.23980   0.01267  Uiso   1.00
O5     O     0.31780   0.42770   0.94110   0.01267  Uiso   1.00
O6     O     0.28570   0.58400   0.89190   0.01267  Uiso   1.00
O7     O     0.14220   0.66890   0.17440   0.01267  Uiso   1.00
O8     O     0.29260   0.59290   0.09460   0.01267  Uiso   1.00
O9     O     0.11140   0.58050   0.72930   0.01267  Uiso   1.00
O10    O     0.13170   0.71200   0.63860   0.01267  Uiso   1.00
O11    O     0.90200   0.27890   0.61950   0.01267  Uiso   1.00
O12    O     0.01210   0.21990   0.50260   0.01267  Uiso   1.00
O13    O     0.39380   0.73800   0.40250   0.01267  Uiso   1.00
O14    O     0.38110   0.63240   0.28590   0.01267  Uiso   1.00
O15    O     0.39230   0.61090   0.71130   0.01267  Uiso   1.00
O16    O     0.39200   0.44480   0.73980   0.01267  Uiso   1.00
O17    O     0.18220   0.07230   0.44110   0.01267  Uiso   1.00
O18    O     0.21430   0.91600   0.39190   0.01267  Uiso   1.00
O19    O     0.35780   0.83110   0.67440   0.01267  Uiso   1.00
O20    O     0.20740   0.90710   0.59460   0.01267  Uiso   1.00
O21    O     0.38860   0.91950   0.22930   0.01267  Uiso   1.00
O22    O     0.36830   0.78800   0.13860   0.01267  Uiso   1.00
O23    O     0.59800   0.22110   0.11950   0.01267  Uiso   1.00
O24    O     0.48790   0.28010   0.00260   0.01267  Uiso   1.00
O25    O     0.89380   0.23800   0.09750   0.01267  Uiso   1.00
O26    O     0.88110   0.13240   0.21410   0.01267  Uiso   1.00
O27    O     0.89230   0.11090   0.78870   0.01267  Uiso   1.00
O28    O     0.89200   0.94480   0.76020   0.01267  Uiso   1.00
O29    O     0.68220   0.57230   0.05890   0.01267  Uiso   1.00
O30    O     0.71430   0.41600   0.10810   0.01267  Uiso   1.00
O31    O     0.85780   0.33110   0.82560   0.01267  Uiso   1.00
O32    O     0.70740   0.40710   0.90540   0.01267  Uiso   1.00
O33    O     0.88860   0.41950   0.27070   0.01267  Uiso   1.00
O34    O     0.86830   0.28800   0.36140   0.01267  Uiso   1.00
O35    O     0.09800   0.72110   0.38050   0.01267  Uiso   1.00
O36    O     0.98790   0.78010   0.49740   0.01267  Uiso   1.00
O37    O     0.60620   0.26200   0.59750   0.01267  Uiso   1.00
O38    O     0.61890   0.36760   0.71410   0.01267  Uiso   1.00
O39    O     0.60770   0.38910   0.28870   0.01267  Uiso   1.00
O40    O     0.60800   0.55520   0.26020   0.01267  Uiso   1.00
O41    O     0.81780   0.92770   0.55890   0.01267  Uiso   1.00
O42    O     0.78570   0.08400   0.60810   0.01267  Uiso   1.00
O43    O     0.64220   0.16890   0.32560   0.01267  Uiso   1.00
O44    O     0.79260   0.09290   0.40540   0.01267  Uiso   1.00
O45    O     0.61140   0.08050   0.77070   0.01267  Uiso   1.00
O46    O     0.63170   0.21200   0.86140   0.01267  Uiso   1.00
O47    O     0.40200   0.77890   0.88050   0.01267  Uiso   1.00
O48    O     0.51210   0.71990   0.99740   0.01267  Uiso   1.00
