data_AMIWUP_clean
_audit_creation_date              2014-07-02
_audit_creation_method            'Materials Studio'
_symmetry_space_group_name_H-M    'P1'
_symmetry_Int_Tables_number       1
_symmetry_cell_setting            triclinic
loop_
_symmetry_equiv_pos_as_xyz
  x,y,z
_cell_length_a                    10.8330
_cell_length_b                    13.2450
_cell_length_c                    14.2980
_cell_angle_alpha                 90.0000
_cell_angle_beta                  90.0000
_cell_angle_gamma                 90.1930
loop_
_atom_site_label
_atom_site_type_symbol
_atom_site_fract_x
_atom_site_fract_y
_atom_site_fract_z
_atom_site_U_iso_or_equiv
_atom_site_adp_type
_atom_site_occupancy
Tb1    Tb    0.24440   0.71439   0.78203   0.01267  Uiso   1.00
Tb2    Tb    0.49448   0.86768   0.63836   0.01267  Uiso   1.00
Tb3    Tb    0.25560   0.78561   0.28203   0.01267  Uiso   1.00
Tb4    Tb    0.00552   0.63232   0.13836   0.01267  Uiso   1.00
Tb5    Tb    0.75560   0.28561   0.21797   0.01267  Uiso   1.00
Tb6    Tb    0.50552   0.13232   0.36164   0.01267  Uiso   1.00
Tb7    Tb    0.74440   0.21439   0.71797   0.01267  Uiso   1.00
Tb8    Tb    0.99448   0.36768   0.86164   0.01267  Uiso   1.00
H1     H     0.94070   0.91710   0.63470   0.01267  Uiso   1.00
H2     H     0.12190   0.63350   0.54570   0.01267  Uiso   1.00
H3     H     0.96400   0.93350   0.85370   0.01267  Uiso   1.00
H4     H     0.55930   0.58290   0.13470   0.01267  Uiso   1.00
H5     H     0.37810   0.86650   0.04570   0.01267  Uiso   1.00
H6     H     0.53600   0.56650   0.35370   0.01267  Uiso   1.00
H7     H     0.05930   0.08290   0.36530   0.01267  Uiso   1.00
H8     H     0.87810   0.36650   0.45430   0.01267  Uiso   1.00
H9     H     0.03600   0.06650   0.14630   0.01267  Uiso   1.00
H10    H     0.44070   0.41710   0.86530   0.01267  Uiso   1.00
H11    H     0.62190   0.13350   0.95430   0.01267  Uiso   1.00
H12    H     0.46400   0.43350   0.64630   0.01267  Uiso   1.00
C1     C     0.18080   0.88570   0.61080   0.01267  Uiso   1.00
C2     C     0.25380   0.99550   0.43360   0.01267  Uiso   1.00
C3     C     0.08830   0.94500   0.55290   0.01267  Uiso   1.00
C4     C     0.96500   0.95040   0.58050   0.01267  Uiso   1.00
C5     C     0.12340   0.99600   0.47040   0.01267  Uiso   1.00
C6     C     0.08810   0.52110   0.68990   0.01267  Uiso   1.00
C7     C     0.91380   0.34600   0.62980   0.01267  Uiso   1.00
C8     C     0.04100   0.50560   0.59210   0.01267  Uiso   1.00
C9     C     0.96330   0.42690   0.56670   0.01267  Uiso   1.00
C10    C     0.07380   0.57900   0.52660   0.01267  Uiso   1.00
C11    C     0.04210   0.78940   0.95370   0.01267  Uiso   1.00
C12    C     0.09350   0.87880   0.15310   0.01267  Uiso   1.00
C13    C     0.02310   0.89730   0.98330   0.01267  Uiso   1.00
C14    C     0.04570   0.93750   0.07210   0.01267  Uiso   1.00
C15    C     0.97830   0.96050   0.91270   0.01267  Uiso   1.00
C16    C     0.31920   0.61430   0.11080   0.01267  Uiso   1.00
C17    C     0.24620   0.50450   0.93360   0.01267  Uiso   1.00
C18    C     0.41170   0.55500   0.05290   0.01267  Uiso   1.00
C19    C     0.53500   0.54960   0.08050   0.01267  Uiso   1.00
C20    C     0.37660   0.50400   0.97040   0.01267  Uiso   1.00
C21    C     0.41190   0.97890   0.18990   0.01267  Uiso   1.00
C22    C     0.58620   0.15400   0.12980   0.01267  Uiso   1.00
C23    C     0.45900   0.99440   0.09210   0.01267  Uiso   1.00
C24    C     0.53670   0.07310   0.06670   0.01267  Uiso   1.00
C25    C     0.42620   0.92100   0.02660   0.01267  Uiso   1.00
C26    C     0.45790   0.71060   0.45370   0.01267  Uiso   1.00
C27    C     0.40650   0.62120   0.65310   0.01267  Uiso   1.00
C28    C     0.47690   0.60270   0.48330   0.01267  Uiso   1.00
C29    C     0.45430   0.56250   0.57210   0.01267  Uiso   1.00
C30    C     0.52170   0.53950   0.41270   0.01267  Uiso   1.00
C31    C     0.81920   0.11430   0.38920   0.01267  Uiso   1.00
C32    C     0.74620   0.00450   0.56640   0.01267  Uiso   1.00
C33    C     0.91170   0.05500   0.44710   0.01267  Uiso   1.00
C34    C     0.03500   0.04960   0.41950   0.01267  Uiso   1.00
C35    C     0.87660   0.00400   0.52960   0.01267  Uiso   1.00
C36    C     0.91190   0.47890   0.31010   0.01267  Uiso   1.00
C37    C     0.08620   0.65400   0.37020   0.01267  Uiso   1.00
C38    C     0.95900   0.49440   0.40790   0.01267  Uiso   1.00
C39    C     0.03670   0.57310   0.43330   0.01267  Uiso   1.00
C40    C     0.92620   0.42100   0.47340   0.01267  Uiso   1.00
C41    C     0.95790   0.21060   0.04630   0.01267  Uiso   1.00
C42    C     0.90650   0.12120   0.84690   0.01267  Uiso   1.00
C43    C     0.97690   0.10270   0.01670   0.01267  Uiso   1.00
C44    C     0.95430   0.06250   0.92790   0.01267  Uiso   1.00
C45    C     0.02170   0.03950   0.08730   0.01267  Uiso   1.00
C46    C     0.68080   0.38570   0.88920   0.01267  Uiso   1.00
C47    C     0.75380   0.49550   0.06640   0.01267  Uiso   1.00
C48    C     0.58830   0.44500   0.94710   0.01267  Uiso   1.00
C49    C     0.46500   0.45040   0.91950   0.01267  Uiso   1.00
C50    C     0.62340   0.49600   0.02960   0.01267  Uiso   1.00
C51    C     0.58810   0.02110   0.81010   0.01267  Uiso   1.00
C52    C     0.41380   0.84600   0.87020   0.01267  Uiso   1.00
C53    C     0.54100   0.00560   0.90790   0.01267  Uiso   1.00
C54    C     0.46330   0.92690   0.93330   0.01267  Uiso   1.00
C55    C     0.57380   0.07900   0.97340   0.01267  Uiso   1.00
C56    C     0.54210   0.28940   0.54630   0.01267  Uiso   1.00
C57    C     0.59350   0.37880   0.34690   0.01267  Uiso   1.00
C58    C     0.52310   0.39730   0.51670   0.01267  Uiso   1.00
C59    C     0.54570   0.43750   0.42790   0.01267  Uiso   1.00
C60    C     0.47830   0.46050   0.58730   0.01267  Uiso   1.00
O1     O     0.29250   0.90560   0.59390   0.01267  Uiso   1.00
O2     O     0.14300   0.82950   0.67530   0.01267  Uiso   1.00
O3     O     0.28690   0.91480   0.39130   0.01267  Uiso   1.00
O4     O     0.32000   0.07220   0.44070   0.01267  Uiso   1.00
O5     O     0.10910   0.61160   0.71200   0.01267  Uiso   1.00
O6     O     0.10830   0.44500   0.73990   0.01267  Uiso   1.00
O7     O     0.89250   0.26090   0.59780   0.01267  Uiso   1.00
O8     O     0.88070   0.36670   0.71490   0.01267  Uiso   1.00
O9     O     0.99200   0.71800   0.99640   0.01267  Uiso   1.00
O10    O     0.10190   0.77880   0.87900   0.01267  Uiso   1.00
O11    O     0.13340   0.78750   0.13950   0.01267  Uiso   1.00
O12    O     0.11270   0.92030   0.22960   0.01267  Uiso   1.00
O13    O     0.20750   0.59440   0.09390   0.01267  Uiso   1.00
O14    O     0.35700   0.67050   0.17530   0.01267  Uiso   1.00
O15    O     0.21310   0.58520   0.89130   0.01267  Uiso   1.00
O16    O     0.18000   0.42780   0.94070   0.01267  Uiso   1.00
O17    O     0.39090   0.88840   0.21200   0.01267  Uiso   1.00
O18    O     0.39170   0.05500   0.23990   0.01267  Uiso   1.00
O19    O     0.60750   0.23910   0.09780   0.01267  Uiso   1.00
O20    O     0.61930   0.13330   0.21490   0.01267  Uiso   1.00
O21    O     0.50800   0.78200   0.49640   0.01267  Uiso   1.00
O22    O     0.39810   0.72120   0.37900   0.01267  Uiso   1.00
O23    O     0.36660   0.71250   0.63950   0.01267  Uiso   1.00
O24    O     0.38730   0.57970   0.72960   0.01267  Uiso   1.00
O25    O     0.70750   0.09440   0.40610   0.01267  Uiso   1.00
O26    O     0.85700   0.17050   0.32470   0.01267  Uiso   1.00
O27    O     0.71310   0.08520   0.60870   0.01267  Uiso   1.00
O28    O     0.68000   0.92780   0.55930   0.01267  Uiso   1.00
O29    O     0.89090   0.38840   0.28800   0.01267  Uiso   1.00
O30    O     0.89170   0.55500   0.26010   0.01267  Uiso   1.00
O31    O     0.10750   0.73910   0.40220   0.01267  Uiso   1.00
O32    O     0.11930   0.63330   0.28510   0.01267  Uiso   1.00
O33    O     0.00800   0.28200   0.00360   0.01267  Uiso   1.00
O34    O     0.89810   0.22120   0.12100   0.01267  Uiso   1.00
O35    O     0.86660   0.21250   0.86050   0.01267  Uiso   1.00
O36    O     0.88730   0.07970   0.77040   0.01267  Uiso   1.00
O37    O     0.79250   0.40560   0.90610   0.01267  Uiso   1.00
O38    O     0.64300   0.32950   0.82470   0.01267  Uiso   1.00
O39    O     0.78690   0.41480   0.10870   0.01267  Uiso   1.00
O40    O     0.82000   0.57220   0.05930   0.01267  Uiso   1.00
O41    O     0.60910   0.11160   0.78800   0.01267  Uiso   1.00
O42    O     0.60830   0.94500   0.76010   0.01267  Uiso   1.00
O43    O     0.39250   0.76090   0.90220   0.01267  Uiso   1.00
O44    O     0.38070   0.86670   0.78510   0.01267  Uiso   1.00
O45    O     0.49200   0.21800   0.50360   0.01267  Uiso   1.00
O46    O     0.60190   0.27880   0.62100   0.01267  Uiso   1.00
O47    O     0.63340   0.28750   0.36050   0.01267  Uiso   1.00
O48    O     0.61270   0.42030   0.27040   0.01267  Uiso   1.00
