data_AMODUC_clean
_audit_creation_date              2014-07-02
_audit_creation_method            'Materials Studio'
_symmetry_space_group_name_H-M    'P1'
_symmetry_Int_Tables_number       1
_symmetry_cell_setting            triclinic
loop_
_symmetry_equiv_pos_as_xyz
  x,y,z
_cell_length_a                    16.2295
_cell_length_b                    16.2295
_cell_length_c                    28.0346
_cell_angle_alpha                 80.1219
_cell_angle_beta                  80.1219
_cell_angle_gamma                 62.9324
loop_
_atom_site_label
_atom_site_type_symbol
_atom_site_fract_x
_atom_site_fract_y
_atom_site_fract_z
_atom_site_U_iso_or_equiv
_atom_site_adp_type
_atom_site_occupancy
Tb1    Tb    0.43125   0.97098   0.95556   0.01267  Uiso   1.00
Tb2    Tb    0.02902   0.56875   0.54444   0.01267  Uiso   1.00
Tb3    Tb    0.56874   0.02902   0.04444   0.01267  Uiso   1.00
Tb4    Tb    0.97098   0.43125   0.45556   0.01267  Uiso   1.00
H1     H     0.45920   0.87600   0.79430   0.01267  Uiso   1.00
H2     H     0.42680   0.81400   0.73630   0.01267  Uiso   1.00
H3     H     0.32940   0.66840   0.84320   0.01267  Uiso   1.00
H4     H     0.35760   0.73940   0.90020   0.01267  Uiso   1.00
H5     H     0.36620   0.71700   0.71350   0.01267  Uiso   1.00
H6     H     0.75790   0.82490   0.02650   0.01267  Uiso   1.00
H7     H     0.91040   0.70520   0.02870   0.01267  Uiso   1.00
H8     H     0.84930   0.55330   0.95570   0.01267  Uiso   1.00
H9     H     0.70410   0.67130   0.94780   0.01267  Uiso   1.00
H10    H     0.02800   0.55820   0.01270   0.01267  Uiso   1.00
H11    H     0.66460   0.17660   0.91450   0.01267  Uiso   1.00
H12    H     0.71750   0.24830   0.84440   0.01267  Uiso   1.00
H13    H     0.63020   0.12980   0.76030   0.01267  Uiso   1.00
H14    H     0.57630   0.06030   0.83000   0.01267  Uiso   1.00
H15    H     0.70580   0.22460   0.71990   0.01267  Uiso   1.00
H16    H     0.12400   0.54080   0.70570   0.01267  Uiso   1.00
H17    H     0.18600   0.57320   0.76370   0.01267  Uiso   1.00
H18    H     0.33160   0.67060   0.65680   0.01267  Uiso   1.00
H19    H     0.26060   0.64240   0.59980   0.01267  Uiso   1.00
H20    H     0.28300   0.63380   0.78650   0.01267  Uiso   1.00
H21    H     0.17510   0.24210   0.47350   0.01267  Uiso   1.00
H22    H     0.29480   0.08960   0.47130   0.01267  Uiso   1.00
H23    H     0.44670   0.15070   0.54430   0.01267  Uiso   1.00
H24    H     0.32870   0.29590   0.55220   0.01267  Uiso   1.00
H25    H     0.44180   0.97200   0.48730   0.01267  Uiso   1.00
H26    H     0.82340   0.33540   0.58550   0.01267  Uiso   1.00
H27    H     0.75170   0.28250   0.65560   0.01267  Uiso   1.00
H28    H     0.87020   0.36980   0.73970   0.01267  Uiso   1.00
H29    H     0.93970   0.42370   0.67000   0.01267  Uiso   1.00
H30    H     0.77540   0.29420   0.78010   0.01267  Uiso   1.00
H31    H     0.54080   0.12400   0.20570   0.01267  Uiso   1.00
H32    H     0.57320   0.18600   0.26370   0.01267  Uiso   1.00
H33    H     0.67060   0.33160   0.15680   0.01267  Uiso   1.00
H34    H     0.64240   0.26060   0.09980   0.01267  Uiso   1.00
H35    H     0.63380   0.28300   0.28650   0.01267  Uiso   1.00
H36    H     0.24210   0.17510   0.97350   0.01267  Uiso   1.00
H37    H     0.08960   0.29480   0.97130   0.01267  Uiso   1.00
H38    H     0.15070   0.44670   0.04430   0.01267  Uiso   1.00
H39    H     0.29590   0.32870   0.05220   0.01267  Uiso   1.00
H40    H     0.97200   0.44180   0.98730   0.01267  Uiso   1.00
H41    H     0.33540   0.82340   0.08550   0.01267  Uiso   1.00
H42    H     0.28250   0.75170   0.15560   0.01267  Uiso   1.00
H43    H     0.36980   0.87020   0.23970   0.01267  Uiso   1.00
H44    H     0.42370   0.93970   0.17000   0.01267  Uiso   1.00
H45    H     0.29420   0.77540   0.28010   0.01267  Uiso   1.00
H46    H     0.87600   0.45920   0.29430   0.01267  Uiso   1.00
H47    H     0.81400   0.42680   0.23630   0.01267  Uiso   1.00
H48    H     0.66840   0.32940   0.34320   0.01267  Uiso   1.00
H49    H     0.73940   0.35760   0.40020   0.01267  Uiso   1.00
H50    H     0.71700   0.36620   0.21350   0.01267  Uiso   1.00
H51    H     0.82490   0.75790   0.52650   0.01267  Uiso   1.00
H52    H     0.70520   0.91040   0.52870   0.01267  Uiso   1.00
H53    H     0.55330   0.84930   0.45570   0.01267  Uiso   1.00
H54    H     0.67130   0.70410   0.44780   0.01267  Uiso   1.00
H55    H     0.55820   0.02800   0.51270   0.01267  Uiso   1.00
H56    H     0.17660   0.66460   0.41450   0.01267  Uiso   1.00
H57    H     0.24830   0.71750   0.34440   0.01267  Uiso   1.00
H58    H     0.12980   0.63020   0.26030   0.01267  Uiso   1.00
H59    H     0.06030   0.57630   0.33000   0.01267  Uiso   1.00
H60    H     0.22460   0.70580   0.21990   0.01267  Uiso   1.00
C1     C     0.42130   0.85930   0.89210   0.01267  Uiso   1.00
C2     C     0.40800   0.81600   0.85370   0.01267  Uiso   1.00
C3     C     0.43060   0.83520   0.80430   0.01267  Uiso   1.00
C4     C     0.41300   0.79720   0.76980   0.01267  Uiso   1.00
C5     C     0.37500   0.73380   0.78330   0.01267  Uiso   1.00
C6     C     0.35470   0.71190   0.83260   0.01267  Uiso   1.00
C7     C     0.37200   0.75460   0.86650   0.01267  Uiso   1.00
C8     C     0.34720   0.70140   0.74640   0.01267  Uiso   1.00
C9     C     0.61964   0.83624   0.98240   0.01267  Uiso   1.00
C10    C     0.71480   0.76100   0.98570   0.01267  Uiso   1.00
C11    C     0.77650   0.77030   0.01120   0.01267  Uiso   1.00
C12    C     0.86680   0.69740   0.01360   0.01267  Uiso   1.00
C13    C     0.89290   0.61670   0.99510   0.01267  Uiso   1.00
C14    C     0.83090   0.60890   0.97000   0.01267  Uiso   1.00
C15    C     0.74480   0.67880   0.96540   0.01267  Uiso   1.00
C16    C     0.98540   0.54120   0.00260   0.01267  Uiso   1.00
C17    C     0.57901   0.06881   0.92295   0.01267  Uiso   1.00
C18    C     0.61688   0.11048   0.87820   0.01267  Uiso   1.00
C19    C     0.65820   0.16700   0.88310   0.01267  Uiso   1.00
C20    C     0.69000   0.20900   0.84150   0.01267  Uiso   1.00
C21    C     0.68210   0.19370   0.79540   0.01267  Uiso   1.00
C22    C     0.63800   0.13880   0.79150   0.01267  Uiso   1.00
C23    C     0.60600   0.09760   0.83287   0.01267  Uiso   1.00
C24    C     0.71770   0.23370   0.75020   0.01267  Uiso   1.00
C25    C     0.14070   0.57870   0.60790   0.01267  Uiso   1.00
C26    C     0.18400   0.59200   0.64630   0.01267  Uiso   1.00
C27    C     0.16480   0.56940   0.69570   0.01267  Uiso   1.00
C28    C     0.20280   0.58700   0.73020   0.01267  Uiso   1.00
C29    C     0.26620   0.62500   0.71670   0.01267  Uiso   1.00
C30    C     0.28810   0.64530   0.66740   0.01267  Uiso   1.00
C31    C     0.24540   0.62800   0.63350   0.01267  Uiso   1.00
C32    C     0.29860   0.65280   0.75360   0.01267  Uiso   1.00
C33    C     0.16376   0.38036   0.51760   0.01267  Uiso   1.00
C34    C     0.23900   0.28520   0.51430   0.01267  Uiso   1.00
C35    C     0.22970   0.22350   0.48880   0.01267  Uiso   1.00
C36    C     0.30260   0.13320   0.48640   0.01267  Uiso   1.00
C37    C     0.38330   0.10710   0.50490   0.01267  Uiso   1.00
C38    C     0.39110   0.16910   0.53000   0.01267  Uiso   1.00
C39    C     0.32120   0.25520   0.53460   0.01267  Uiso   1.00
C40    C     0.45880   0.01460   0.49740   0.01267  Uiso   1.00
C41    C     0.93119   0.42099   0.57705   0.01267  Uiso   1.00
C42    C     0.88952   0.38312   0.62180   0.01267  Uiso   1.00
C43    C     0.83300   0.34180   0.61690   0.01267  Uiso   1.00
C44    C     0.79100   0.31000   0.65850   0.01267  Uiso   1.00
C45    C     0.80630   0.31790   0.70460   0.01267  Uiso   1.00
C46    C     0.86120   0.36200   0.70850   0.01267  Uiso   1.00
C47    C     0.90240   0.39400   0.66713   0.01267  Uiso   1.00
C48    C     0.76630   0.28230   0.74980   0.01267  Uiso   1.00
C49    C     0.57870   0.14070   0.10790   0.01267  Uiso   1.00
C50    C     0.59200   0.18400   0.14630   0.01267  Uiso   1.00
C51    C     0.56940   0.16480   0.19570   0.01267  Uiso   1.00
C52    C     0.58700   0.20280   0.23020   0.01267  Uiso   1.00
C53    C     0.62500   0.26620   0.21670   0.01267  Uiso   1.00
C54    C     0.64530   0.28810   0.16740   0.01267  Uiso   1.00
C55    C     0.62800   0.24540   0.13350   0.01267  Uiso   1.00
C56    C     0.65280   0.29860   0.25360   0.01267  Uiso   1.00
C57    C     0.38036   0.16376   0.01760   0.01267  Uiso   1.00
C58    C     0.28520   0.23900   0.01430   0.01267  Uiso   1.00
C59    C     0.22350   0.22970   0.98880   0.01267  Uiso   1.00
C60    C     0.13320   0.30260   0.98640   0.01267  Uiso   1.00
C61    C     0.10710   0.38330   0.00490   0.01267  Uiso   1.00
C62    C     0.16910   0.39110   0.03000   0.01267  Uiso   1.00
C63    C     0.25520   0.32120   0.03460   0.01267  Uiso   1.00
C64    C     0.01460   0.45880   0.99740   0.01267  Uiso   1.00
C65    C     0.42099   0.93119   0.07705   0.01267  Uiso   1.00
C66    C     0.38312   0.88952   0.12180   0.01267  Uiso   1.00
C67    C     0.34180   0.83300   0.11690   0.01267  Uiso   1.00
C68    C     0.31000   0.79100   0.15850   0.01267  Uiso   1.00
C69    C     0.31790   0.80630   0.20460   0.01267  Uiso   1.00
C70    C     0.36200   0.86120   0.20850   0.01267  Uiso   1.00
C71    C     0.39400   0.90240   0.16713   0.01267  Uiso   1.00
C72    C     0.28230   0.76630   0.24980   0.01267  Uiso   1.00
C73    C     0.85930   0.42130   0.39210   0.01267  Uiso   1.00
C74    C     0.81600   0.40800   0.35370   0.01267  Uiso   1.00
C75    C     0.83520   0.43060   0.30430   0.01267  Uiso   1.00
C76    C     0.79720   0.41300   0.26980   0.01267  Uiso   1.00
C77    C     0.73380   0.37500   0.28330   0.01267  Uiso   1.00
C78    C     0.71190   0.35470   0.33260   0.01267  Uiso   1.00
C79    C     0.75460   0.37200   0.36650   0.01267  Uiso   1.00
C80    C     0.70140   0.34720   0.24640   0.01267  Uiso   1.00
C81    C     0.83624   0.61964   0.48240   0.01267  Uiso   1.00
C82    C     0.76100   0.71480   0.48570   0.01267  Uiso   1.00
C83    C     0.77030   0.77650   0.51120   0.01267  Uiso   1.00
C84    C     0.69740   0.86680   0.51360   0.01267  Uiso   1.00
C85    C     0.61670   0.89290   0.49510   0.01267  Uiso   1.00
C86    C     0.60890   0.83090   0.47000   0.01267  Uiso   1.00
C87    C     0.67880   0.74480   0.46540   0.01267  Uiso   1.00
C88    C     0.54120   0.98540   0.50260   0.01267  Uiso   1.00
C89    C     0.06881   0.57901   0.42295   0.01267  Uiso   1.00
C90    C     0.11048   0.61688   0.37820   0.01267  Uiso   1.00
C91    C     0.16700   0.65820   0.38310   0.01267  Uiso   1.00
C92    C     0.20900   0.69000   0.34150   0.01267  Uiso   1.00
C93    C     0.19370   0.68210   0.29540   0.01267  Uiso   1.00
C94    C     0.13880   0.63800   0.29150   0.01267  Uiso   1.00
C95    C     0.09760   0.60600   0.33287   0.01267  Uiso   1.00
C96    C     0.23370   0.71770   0.25020   0.01267  Uiso   1.00
O1     O     0.45913   0.91293   0.87641   0.01267  Uiso   1.00
O2     O     0.39371   0.84911   0.93631   0.01267  Uiso   1.00
O3     O     0.56935   0.82655   0.95758   0.01267  Uiso   1.00
O4     O     0.59381   0.90701   0.00394   0.01267  Uiso   1.00
O5     O     0.54126   0.01926   0.91616   0.01267  Uiso   1.00
O6     O     0.58931   0.08431   0.96338   0.01267  Uiso   1.00
O7     O     0.08707   0.54087   0.62359   0.01267  Uiso   1.00
O8     O     0.15089   0.60629   0.56369   0.01267  Uiso   1.00
O9     O     0.17345   0.43065   0.54242   0.01267  Uiso   1.00
O10    O     0.09299   0.40619   0.49606   0.01267  Uiso   1.00
O11    O     0.98074   0.45874   0.58384   0.01267  Uiso   1.00
O12    O     0.91569   0.41069   0.53662   0.01267  Uiso   1.00
O13    O     0.54087   0.08707   0.12359   0.01267  Uiso   1.00
O14    O     0.60629   0.15089   0.06369   0.01267  Uiso   1.00
O15    O     0.43065   0.17345   0.04242   0.01267  Uiso   1.00
O16    O     0.40619   0.09299   0.99606   0.01267  Uiso   1.00
O17    O     0.45874   0.98074   0.08384   0.01267  Uiso   1.00
O18    O     0.41069   0.91569   0.03662   0.01267  Uiso   1.00
O19    O     0.91293   0.45913   0.37641   0.01267  Uiso   1.00
O20    O     0.84911   0.39371   0.43631   0.01267  Uiso   1.00
O21    O     0.82655   0.56935   0.45758   0.01267  Uiso   1.00
O22    O     0.90701   0.59381   0.50394   0.01267  Uiso   1.00
O23    O     0.01926   0.54126   0.41616   0.01267  Uiso   1.00
O24    O     0.08431   0.58931   0.46338   0.01267  Uiso   1.00
