data_AMOYOR_clean
_audit_creation_date              2014-07-02
_audit_creation_method            'Materials Studio'
_symmetry_space_group_name_H-M    'P1'
_symmetry_Int_Tables_number       1
_symmetry_cell_setting            triclinic
loop_
_symmetry_equiv_pos_as_xyz
  x,y,z
_cell_length_a                    5.8653
_cell_length_b                    12.8535
_cell_length_c                    20.9800
_cell_angle_alpha                 92.3172
_cell_angle_beta                  90.0000
_cell_angle_gamma                 103.1890
loop_
_atom_site_label
_atom_site_type_symbol
_atom_site_fract_x
_atom_site_fract_y
_atom_site_fract_z
_atom_site_U_iso_or_equiv
_atom_site_adp_type
_atom_site_occupancy
Zn1    Zn    0.71755   0.00000   0.75000   0.01267  Uiso   1.00
Zn2    Zn    0.28245   0.00000   0.25000   0.01267  Uiso   1.00
H1     H     0.64600   0.89800   0.61860   0.01267  Uiso   1.00
H2     H     0.78750   0.78080   0.55410   0.01267  Uiso   1.00
H3     H     0.26340   0.76920   0.69110   0.01267  Uiso   1.00
H4     H     0.09820   0.88200   0.75370   0.01267  Uiso   1.00
H5     H     0.07160   0.67660   0.52930   0.01267  Uiso   1.00
H6     H     0.35640   0.64420   0.62820   0.01267  Uiso   1.00
H7     H     0.19750   0.57080   0.46210   0.01267  Uiso   1.00
H8     H     0.63300   0.53640   0.60460   0.01267  Uiso   1.00
H9     H     0.63130   0.23740   0.58380   0.01267  Uiso   1.00
H10    H     0.38790   0.17800   0.61270   0.01267  Uiso   1.00
H11    H     0.17480   0.01300   0.56070   0.01267  Uiso   1.00
H12    H     0.85370   0.12260   0.51660   0.01267  Uiso   1.00
H13    H     0.74800   0.10200   0.88140   0.01267  Uiso   1.00
H14    H     0.00670   0.21920   0.94590   0.01267  Uiso   1.00
H15    H     0.49420   0.23080   0.80890   0.01267  Uiso   1.00
H16    H     0.21620   0.11800   0.74630   0.01267  Uiso   1.00
H17    H     0.39500   0.32340   0.97070   0.01267  Uiso   1.00
H18    H     0.71220   0.35580   0.87180   0.01267  Uiso   1.00
H19    H     0.62670   0.42920   0.03790   0.01267  Uiso   1.00
H20    H     0.09660   0.46360   0.89540   0.01267  Uiso   1.00
H21    H     0.39390   0.76260   0.91620   0.01267  Uiso   1.00
H22    H     0.20990   0.82200   0.88730   0.01267  Uiso   1.00
H23    H     0.16180   0.98700   0.93930   0.01267  Uiso   1.00
H24    H     0.73110   0.87740   0.98340   0.01267  Uiso   1.00
H25    H     0.35400   0.10200   0.38140   0.01267  Uiso   1.00
H26    H     0.21250   0.21920   0.44590   0.01267  Uiso   1.00
H27    H     0.73660   0.23080   0.30890   0.01267  Uiso   1.00
H28    H     0.90180   0.11800   0.24630   0.01267  Uiso   1.00
H29    H     0.92840   0.32340   0.47070   0.01267  Uiso   1.00
H30    H     0.64360   0.35580   0.37180   0.01267  Uiso   1.00
H31    H     0.80250   0.42920   0.53790   0.01267  Uiso   1.00
H32    H     0.36700   0.46360   0.39540   0.01267  Uiso   1.00
H33    H     0.36870   0.76260   0.41620   0.01267  Uiso   1.00
H34    H     0.61210   0.82200   0.38730   0.01267  Uiso   1.00
H35    H     0.82520   0.98700   0.43930   0.01267  Uiso   1.00
H36    H     0.14630   0.87740   0.48340   0.01267  Uiso   1.00
H37    H     0.25200   0.89800   0.11860   0.01267  Uiso   1.00
H38    H     0.99330   0.78080   0.05410   0.01267  Uiso   1.00
H39    H     0.50580   0.76920   0.19110   0.01267  Uiso   1.00
H40    H     0.78380   0.88200   0.25370   0.01267  Uiso   1.00
H41    H     0.60500   0.67660   0.02930   0.01267  Uiso   1.00
H42    H     0.28780   0.64420   0.12820   0.01267  Uiso   1.00
H43    H     0.37330   0.57080   0.96210   0.01267  Uiso   1.00
H44    H     0.90340   0.53640   0.10460   0.01267  Uiso   1.00
H45    H     0.60610   0.23740   0.08380   0.01267  Uiso   1.00
H46    H     0.79010   0.17800   0.11270   0.01267  Uiso   1.00
H47    H     0.83820   0.01300   0.06070   0.01267  Uiso   1.00
H48    H     0.26890   0.12260   0.01660   0.01267  Uiso   1.00
C1     C     0.77024   0.87028   0.63357   0.01267  Uiso   1.00
C2     C     0.85543   0.80086   0.59470   0.01267  Uiso   1.00
C3     C     0.04184   0.75948   0.61430   0.01267  Uiso   1.00
C4     C     0.13498   0.79336   0.67560   0.01267  Uiso   1.00
C5     C     0.03672   0.86164   0.71250   0.01267  Uiso   1.00
C6     C     0.13345   0.68750   0.57100   0.01267  Uiso   1.00
C7     C     0.29876   0.63572   0.58610   0.01267  Uiso   1.00
C8     C     0.39718   0.56596   0.54110   0.01267  Uiso   1.00
C9     C     0.31987   0.54234   0.47760   0.01267  Uiso   1.00
C10    C     0.57859   0.52198   0.56220   0.01267  Uiso   1.00
C11    C     0.67134   0.13528   0.65490   0.01267  Uiso   1.00
C12    C     0.54261   0.16922   0.59920   0.01267  Uiso   1.00
C13    C     0.30660   0.00800   0.53630   0.01267  Uiso   1.00
C14    C     0.51795   0.08250   0.54708   0.01267  Uiso   1.00
C15    C     0.71018   0.07296   0.51000   0.01267  Uiso   1.00
C16    C     0.89996   0.12972   0.86643   0.01267  Uiso   1.00
C17    C     0.05457   0.19914   0.90530   0.01267  Uiso   1.00
C18    C     0.28236   0.24052   0.88570   0.01267  Uiso   1.00
C19    C     0.34162   0.20664   0.82440   0.01267  Uiso   1.00
C20    C     0.17508   0.13836   0.78750   0.01267  Uiso   1.00
C21    C     0.44595   0.31250   0.92900   0.01267  Uiso   1.00
C22    C     0.66304   0.36428   0.91390   0.01267  Uiso   1.00
C23    C     0.83122   0.43404   0.95890   0.01267  Uiso   1.00
C24    C     0.77753   0.45766   0.02240   0.01267  Uiso   1.00
C25    C     0.05661   0.47802   0.93780   0.01267  Uiso   1.00
C26    C     0.53606   0.86472   0.84510   0.01267  Uiso   1.00
C27    C     0.37339   0.83078   0.90080   0.01267  Uiso   1.00
C28    C     0.29860   0.99200   0.96370   0.01267  Uiso   1.00
C29    C     0.43545   0.91750   0.95292   0.01267  Uiso   1.00
C30    C     0.63722   0.92704   0.99000   0.01267  Uiso   1.00
C31    C     0.22976   0.12972   0.36643   0.01267  Uiso   1.00
C32    C     0.14457   0.19914   0.40530   0.01267  Uiso   1.00
C33    C     0.95816   0.24052   0.38570   0.01267  Uiso   1.00
C34    C     0.86502   0.20664   0.32440   0.01267  Uiso   1.00
C35    C     0.96328   0.13836   0.28750   0.01267  Uiso   1.00
C36    C     0.86655   0.31250   0.42900   0.01267  Uiso   1.00
C37    C     0.70124   0.36428   0.41390   0.01267  Uiso   1.00
C38    C     0.60282   0.43404   0.45890   0.01267  Uiso   1.00
C39    C     0.68013   0.45766   0.52240   0.01267  Uiso   1.00
C40    C     0.42141   0.47802   0.43780   0.01267  Uiso   1.00
C41    C     0.32866   0.86472   0.34510   0.01267  Uiso   1.00
C42    C     0.45739   0.83078   0.40080   0.01267  Uiso   1.00
C43    C     0.69340   0.99200   0.46370   0.01267  Uiso   1.00
C44    C     0.48205   0.91750   0.45292   0.01267  Uiso   1.00
C45    C     0.28982   0.92704   0.49000   0.01267  Uiso   1.00
C46    C     0.10004   0.87028   0.13357   0.01267  Uiso   1.00
C47    C     0.94543   0.80086   0.09470   0.01267  Uiso   1.00
C48    C     0.71764   0.75948   0.11430   0.01267  Uiso   1.00
C49    C     0.65838   0.79336   0.17560   0.01267  Uiso   1.00
C50    C     0.82492   0.86164   0.21250   0.01267  Uiso   1.00
C51    C     0.55405   0.68750   0.07100   0.01267  Uiso   1.00
C52    C     0.33696   0.63572   0.08610   0.01267  Uiso   1.00
C53    C     0.16878   0.56596   0.04110   0.01267  Uiso   1.00
C54    C     0.22247   0.54234   0.97760   0.01267  Uiso   1.00
C55    C     0.94339   0.52198   0.06220   0.01267  Uiso   1.00
C56    C     0.46394   0.13528   0.15490   0.01267  Uiso   1.00
C57    C     0.62661   0.16922   0.09920   0.01267  Uiso   1.00
C58    C     0.70140   0.00800   0.03630   0.01267  Uiso   1.00
C59    C     0.56455   0.08250   0.04708   0.01267  Uiso   1.00
C60    C     0.36278   0.07296   0.01000   0.01267  Uiso   1.00
N1     N     0.85681   0.90082   0.69264   0.01267  Uiso   1.00
N2     N     0.95599   0.09918   0.80736   0.01267  Uiso   1.00
N3     N     0.14319   0.09918   0.30736   0.01267  Uiso   1.00
N4     N     0.04401   0.90082   0.19264   0.01267  Uiso   1.00
O1     O     0.54655   0.06830   0.69141   0.01267  Uiso   1.00
O2     O     0.88641   0.16582   0.66050   0.01267  Uiso   1.00
O3     O     0.47825   0.93170   0.80859   0.01267  Uiso   1.00
O4     O     0.72059   0.83418   0.83950   0.01267  Uiso   1.00
O5     O     0.45345   0.93170   0.30859   0.01267  Uiso   1.00
O6     O     0.11359   0.83418   0.33950   0.01267  Uiso   1.00
O7     O     0.52175   0.06830   0.19141   0.01267  Uiso   1.00
O8     O     0.27941   0.16582   0.16050   0.01267  Uiso   1.00
