data_AMOZAE_clean
_audit_creation_date              2014-07-02
_audit_creation_method            'Materials Studio'
_symmetry_space_group_name_H-M    'P1'
_symmetry_Int_Tables_number       1
_symmetry_cell_setting            triclinic
loop_
_symmetry_equiv_pos_as_xyz
  x,y,z
_cell_length_a                    6.7590
_cell_length_b                    13.9780
_cell_length_c                    14.2651
_cell_angle_alpha                 90.0000
_cell_angle_beta                  92.4963
_cell_angle_gamma                 90.0000
loop_
_atom_site_label
_atom_site_type_symbol
_atom_site_fract_x
_atom_site_fract_y
_atom_site_fract_z
_atom_site_U_iso_or_equiv
_atom_site_adp_type
_atom_site_occupancy
K1     K     0.70634   0.30945   0.25824   0.01267  Uiso   1.00
K2     K     0.79366   0.80945   0.24176   0.01267  Uiso   1.00
K3     K     0.29366   0.69055   0.74176   0.01267  Uiso   1.00
K4     K     0.20634   0.19055   0.75824   0.01267  Uiso   1.00
Sm1    Sm    0.76080   0.25591   0.93460   0.01267  Uiso   1.00
Sm2    Sm    0.73920   0.75591   0.56540   0.01267  Uiso   1.00
Sm3    Sm    0.23920   0.74409   0.06540   0.01267  Uiso   1.00
Sm4    Sm    0.26080   0.24409   0.43460   0.01267  Uiso   1.00
H1     H     0.75400   0.69710   0.87120   0.01267  Uiso   1.00
H2     H     0.74600   0.19710   0.62880   0.01267  Uiso   1.00
H3     H     0.24600   0.30290   0.12880   0.01267  Uiso   1.00
H4     H     0.25400   0.80290   0.37120   0.01267  Uiso   1.00
C1     C     0.74320   0.44110   0.07600   0.01267  Uiso   1.00
C2     C     0.75220   0.49450   0.98320   0.01267  Uiso   1.00
C3     C     0.74850   0.59320   0.97160   0.01267  Uiso   1.00
C4     C     0.75780   0.62980   0.88090   0.01267  Uiso   1.00
C5     C     0.77260   0.56880   0.80490   0.01267  Uiso   1.00
C6     C     0.78350   0.46980   0.82300   0.01267  Uiso   1.00
C7     C     0.82150   0.39490   0.74930   0.01267  Uiso   1.00
C8     C     0.73560   0.66430   0.05270   0.01267  Uiso   1.00
C9     C     0.77840   0.61010   0.70780   0.01267  Uiso   1.00
C10    C     0.75680   0.94110   0.42400   0.01267  Uiso   1.00
C11    C     0.74780   0.99450   0.51680   0.01267  Uiso   1.00
C12    C     0.75150   0.09320   0.52840   0.01267  Uiso   1.00
C13    C     0.74220   0.12980   0.61910   0.01267  Uiso   1.00
C14    C     0.72740   0.06880   0.69510   0.01267  Uiso   1.00
C15    C     0.71650   0.96980   0.67700   0.01267  Uiso   1.00
C16    C     0.67850   0.89490   0.75070   0.01267  Uiso   1.00
C17    C     0.76440   0.16430   0.44730   0.01267  Uiso   1.00
C18    C     0.72160   0.11010   0.79220   0.01267  Uiso   1.00
C19    C     0.25680   0.55890   0.92400   0.01267  Uiso   1.00
C20    C     0.24780   0.50550   0.01680   0.01267  Uiso   1.00
C21    C     0.25150   0.40680   0.02840   0.01267  Uiso   1.00
C22    C     0.24220   0.37020   0.11910   0.01267  Uiso   1.00
C23    C     0.22740   0.43120   0.19510   0.01267  Uiso   1.00
C24    C     0.21650   0.53020   0.17700   0.01267  Uiso   1.00
C25    C     0.17850   0.60510   0.25070   0.01267  Uiso   1.00
C26    C     0.26440   0.33570   0.94730   0.01267  Uiso   1.00
C27    C     0.22160   0.38990   0.29220   0.01267  Uiso   1.00
C28    C     0.24320   0.05890   0.57600   0.01267  Uiso   1.00
C29    C     0.25220   0.00550   0.48320   0.01267  Uiso   1.00
C30    C     0.24850   0.90680   0.47160   0.01267  Uiso   1.00
C31    C     0.25780   0.87020   0.38090   0.01267  Uiso   1.00
C32    C     0.27260   0.93120   0.30490   0.01267  Uiso   1.00
C33    C     0.28350   0.03020   0.32300   0.01267  Uiso   1.00
C34    C     0.32150   0.10510   0.24930   0.01267  Uiso   1.00
C35    C     0.23560   0.83570   0.55270   0.01267  Uiso   1.00
C36    C     0.27840   0.88990   0.20780   0.01267  Uiso   1.00
N1     N     0.77240   0.43520   0.91010   0.01267  Uiso   1.00
N2     N     0.72760   0.93520   0.58990   0.01267  Uiso   1.00
N3     N     0.22760   0.56480   0.08990   0.01267  Uiso   1.00
N4     N     0.27240   0.06480   0.41010   0.01267  Uiso   1.00
O1     O     0.74790   0.35110   0.07310   0.01267  Uiso   1.00
O2     O     0.73260   0.48880   0.14890   0.01267  Uiso   1.00
O3     O     0.57030   0.68390   0.08300   0.01267  Uiso   1.00
O4     O     0.89410   0.70070   0.08270   0.01267  Uiso   1.00
O5     O     0.93000   0.64720   0.68030   0.01267  Uiso   1.00
O6     O     0.61700   0.61380   0.65870   0.01267  Uiso   1.00
O7     O     0.87370   0.42310   0.67120   0.01267  Uiso   1.00
O8     O     0.79970   0.30890   0.77370   0.01267  Uiso   1.00
O9     O     0.75210   0.85110   0.42690   0.01267  Uiso   1.00
O10    O     0.76740   0.98880   0.35110   0.01267  Uiso   1.00
O11    O     0.92970   0.18390   0.41700   0.01267  Uiso   1.00
O12    O     0.60590   0.20070   0.41730   0.01267  Uiso   1.00
O13    O     0.57000   0.14720   0.81970   0.01267  Uiso   1.00
O14    O     0.88300   0.11380   0.84130   0.01267  Uiso   1.00
O15    O     0.62630   0.92310   0.82880   0.01267  Uiso   1.00
O16    O     0.70030   0.80890   0.72630   0.01267  Uiso   1.00
O17    O     0.25210   0.64890   0.92690   0.01267  Uiso   1.00
O18    O     0.26740   0.51120   0.85110   0.01267  Uiso   1.00
O19    O     0.42970   0.31610   0.91700   0.01267  Uiso   1.00
O20    O     0.10590   0.29930   0.91730   0.01267  Uiso   1.00
O21    O     0.07000   0.35280   0.31970   0.01267  Uiso   1.00
O22    O     0.38300   0.38620   0.34130   0.01267  Uiso   1.00
O23    O     0.12630   0.57690   0.32880   0.01267  Uiso   1.00
O24    O     0.20030   0.69110   0.22630   0.01267  Uiso   1.00
O25    O     0.24790   0.14890   0.57310   0.01267  Uiso   1.00
O26    O     0.23260   0.01120   0.64890   0.01267  Uiso   1.00
O27    O     0.07030   0.81610   0.58300   0.01267  Uiso   1.00
O28    O     0.39410   0.79930   0.58270   0.01267  Uiso   1.00
O29    O     0.43000   0.85280   0.18030   0.01267  Uiso   1.00
O30    O     0.11700   0.88620   0.15870   0.01267  Uiso   1.00
O31    O     0.37370   0.07690   0.17120   0.01267  Uiso   1.00
O32    O     0.29970   0.19110   0.27370   0.01267  Uiso   1.00
