data_image0
_cell_length_a       9.1461
_cell_length_b       9.6587
_cell_length_c       12.7617
_cell_angle_alpha    94.664
_cell_angle_beta     103.837
_cell_angle_gamma    114.83

_symmetry_space_group_name_H-M    "P 1"
_symmetry_int_tables_number       1

loop_
  _symmetry_equiv_pos_as_xyz
  'x, y, z'

loop_
  _atom_site_label
  _atom_site_occupancy
  _atom_site_fract_x
  _atom_site_fract_y
  _atom_site_fract_z
  _atom_site_thermal_displace_type
  _atom_site_B_iso_or_equiv
  _atom_site_type_symbol
  C1       1.0000 0.76800  0.31010  0.26072  Biso   1.000  C
  O1       1.0000 0.28890  0.33970  0.56498  Biso   1.000  O
  O2       1.0000 0.43670  0.31550  0.34398  Biso   1.000  O
  O3       1.0000 0.37200  0.45300  0.23420  Biso   1.000  O
  C2       1.0000 0.32720  0.34530  0.28450  Biso   1.000  C
  C3       1.0000 0.14340  0.24490  0.27324  Biso   1.000  C
  H1       1.0000 0.10960  0.14510  0.22550  Biso   1.000  H
  O4       1.0000 0.68810  0.03980  0.42575  Biso   1.000  O
  O5       1.0000 0.89820  0.26994  0.51672  Biso   1.000  O
  C4       1.0000 0.82860  0.15280  0.43905  Biso   1.000  C
  Co1      1.0000 0.63443  0.48781  0.30123  Biso   1.000  Co
  O6       1.0000 0.19381  0.47430  0.45822  Biso   1.000  O
  O7       1.0000 0.83620  0.42910  0.33900  Biso   1.000  O
  C5       1.0000 0.20300  0.35010  0.47567  Biso   1.000  C
  C6       1.0000 0.10620  0.20720  0.38247  Biso   1.000  C
  H2       1.0000 0.13690  0.12500  0.40260  Biso   1.000  H
  N1       1.0000 0.72880  0.63490  0.19836  Biso   1.000  N
  C7       1.0000 0.85790  0.21130  0.24751  Biso   1.000  C
  H3       1.0000 0.78330  0.12390  0.18510  Biso   1.000  H
  C8       1.0000 0.02250  0.30700  0.21950  Biso   1.000  C
  H4       1.0000 0.00250  0.29140  0.14030  Biso   1.000  H
  H5       1.0000 0.06730  0.41730  0.24930  Biso   1.000  H
  C9       1.0000 0.92000  0.95750  0.99700  Biso   1.000  C
  H6       1.0000 0.83930  0.97070  0.94460  Biso   1.000  H
  C10      1.0000 0.85800  0.84430  0.06550  Biso   1.000  C
  C11      1.0000 0.91060  0.14190  0.34912  Biso   1.000  C
  H7       1.0000 0.86510  0.03010  0.32000  Biso   1.000  H
  O8       1.0000 0.63000  0.27960  0.19409  Biso   1.000  O
  C12      1.0000 0.96330  0.82250  0.15310  Biso   1.000  C
  H8       1.0000 0.07990  0.87790  0.16880  Biso   1.000  H
  C13      1.0000 0.62790  0.65460  0.11350  Biso   1.000  C
  H9       1.0000 0.51180  0.59690  0.09870  Biso   1.000  H
  C14      1.0000 0.68630  0.75610  0.04610  Biso   1.000  C
  H10      1.0000 0.61000  0.76510  0.98760  Biso   1.000  H
  C15      1.0000 0.89630  0.71900  0.21710  Biso   1.000  C
  H11      1.0000 0.96980  0.70680  0.27570  Biso   1.000  H
  C16      1.0000 0.23200  0.68990  0.73928  Biso   1.000  C
  O9       1.0000 0.71110  0.66030  0.43502  Biso   1.000  O
  O10      1.0000 0.56330  0.68450  0.65602  Biso   1.000  O
  O11      1.0000 0.62800  0.54700  0.76580  Biso   1.000  O
  C17      1.0000 0.67280  0.65470  0.71550  Biso   1.000  C
  C18      1.0000 0.85660  0.75510  0.72676  Biso   1.000  C
  H12      1.0000 0.89040  0.85490  0.77450  Biso   1.000  H
  O12      1.0000 0.31190  0.96020  0.57425  Biso   1.000  O
  O13      1.0000 0.10180  0.73006  0.48328  Biso   1.000  O
  C19      1.0000 0.17140  0.84720  0.56095  Biso   1.000  C
  Co2      1.0000 0.36557  0.51219  0.69877  Biso   1.000  Co
  O14      1.0000 0.80619  0.52570  0.54178  Biso   1.000  O
  O15      1.0000 0.16380  0.57090  0.66100  Biso   1.000  O
  C20      1.0000 0.79700  0.64990  0.52433  Biso   1.000  C
  C21      1.0000 0.89380  0.79280  0.61753  Biso   1.000  C
  H13      1.0000 0.86310  0.87500  0.59740  Biso   1.000  H
  N2       1.0000 0.27120  0.36510  0.80164  Biso   1.000  N
  C22      1.0000 0.14210  0.78870  0.75249  Biso   1.000  C
  H14      1.0000 0.21670  0.87610  0.81490  Biso   1.000  H
  C23      1.0000 0.97750  0.69300  0.78050  Biso   1.000  C
  H15      1.0000 0.99750  0.70860  0.85970  Biso   1.000  H
  H16      1.0000 0.93270  0.58270  0.75070  Biso   1.000  H
  C24      1.0000 0.08000  0.04250  0.00300  Biso   1.000  C
  H17      1.0000 0.16070  0.02930  0.05540  Biso   1.000  H
  C25      1.0000 0.14200  0.15570  0.93450  Biso   1.000  C
  C26      1.0000 0.08940  0.85810  0.65088  Biso   1.000  C
  H18      1.0000 0.13490  0.96990  0.68000  Biso   1.000  H
  O16      1.0000 0.37000  0.72040  0.80591  Biso   1.000  O
  C27      1.0000 0.03670  0.17750  0.84690  Biso   1.000  C
  H19      1.0000 0.92010  0.12210  0.83120  Biso   1.000  H
  C28      1.0000 0.37210  0.34540  0.88650  Biso   1.000  C
  H20      1.0000 0.48820  0.40310  0.90130  Biso   1.000  H
  C29      1.0000 0.31370  0.24390  0.95390  Biso   1.000  C
  H21      1.0000 0.39000  0.23490  0.01240  Biso   1.000  H
  C30      1.0000 0.10370  0.28100  0.78290  Biso   1.000  C
  H22      1.0000 0.03020  0.29320  0.72430  Biso   1.000  H
  Co3      1.0000 0.00000  0.50000  0.50000  Biso   1.000  Co
  Co4      1.0000 0.50000  0.00000  0.50000  Biso   1.000  Co
