data_image0
_cell_length_a       9.0838
_cell_length_b       9.6157
_cell_length_c       12.4252
_cell_angle_alpha    93.488
_cell_angle_beta     104.357
_cell_angle_gamma    113.993

_symmetry_space_group_name_H-M    "P 1"
_symmetry_int_tables_number       1

loop_
  _symmetry_equiv_pos_as_xyz
  'x, y, z'

loop_
  _atom_site_label
  _atom_site_occupancy
  _atom_site_fract_x
  _atom_site_fract_y
  _atom_site_fract_z
  _atom_site_thermal_displace_type
  _atom_site_B_iso_or_equiv
  _atom_site_type_symbol
  C1       1.0000 0.66850  0.34650  0.05970  Biso   1.000  C
  C2       1.0000 0.29580  0.14950  0.02510  Biso   1.000  C
  C3       1.0000 0.17390  0.14860  0.22080  Biso   1.000  C
  C4       1.0000 0.73260  0.18460  0.24420  Biso   1.000  C
  C5       1.0000 0.64440  0.28420  0.25790  Biso   1.000  C
  H1       1.0000 0.71940  0.37010  0.32110  Biso   1.000  H
  C6       1.0000 0.58750  0.35480  0.15250  Biso   1.000  C
  H2       1.0000 0.63110  0.46550  0.18150  Biso   1.000  H
  C7       1.0000 0.39150  0.29060  0.11950  Biso   1.000  C
  H3       1.0000 0.35890  0.37280  0.09820  Biso   1.000  H
  C8       1.0000 0.35500  0.25060  0.23280  Biso   1.000  C
  H4       1.0000 0.38530  0.34860  0.28100  Biso   1.000  H
  C9       1.0000 0.48130  0.18880  0.28850  Biso   1.000  C
  H5       1.0000 0.43850  0.07940  0.25940  Biso   1.000  H
  H6       1.0000 0.50250  0.20360  0.36980  Biso   1.000  H
  C10      1.0000 0.86660  0.83070  0.39790  Biso   1.000  C
  H7       1.0000 0.98310  0.88440  0.41390  Biso   1.000  H
  C11      1.0000 0.80540  0.73250  0.46700  Biso   1.000  C
  H8       1.0000 0.87870  0.72130  0.52920  Biso   1.000  H
  C12      1.0000 0.63330  0.64980  0.44350  Biso   1.000  C
  C13      1.0000 0.52740  0.67120  0.35130  Biso   1.000  C
  H9       1.0000 0.41070  0.61690  0.33370  Biso   1.000  H
  C14      1.0000 0.59910  0.77480  0.28630  Biso   1.000  C
  H10      1.0000 0.52830  0.79050  0.22520  Biso   1.000  H
  N1       1.0000 0.57600  0.54490  0.51740  Biso   1.000  N
  Co1      1.0000 0.86686  0.00499  0.20410  Biso   1.000  Co
  N2       1.0000 0.76830  0.85470  0.30750  Biso   1.000  N
  O1       1.0000 0.60200  0.23030  0.98240  Biso   1.000  O
  O2       1.0000 0.80580  0.46060  0.07150  Biso   1.000  O
  O3       1.0000 0.30620  0.02640  0.04390  Biso   1.000  O
  O4       1.0000 0.21040  0.16410  0.93230  Biso   1.000  O
  O5       1.0000 0.06020  0.17450  0.15550  Biso   1.000  O
  O6       1.0000 0.13170  0.04180  0.27650  Biso   1.000  O
  O7       1.0000 0.66270  0.06620  0.16430  Biso   1.000  O
  O8       1.0000 0.87090  0.21190  0.30930  Biso   1.000  O
  C15      1.0000 0.33150  0.65350  0.94030  Biso   1.000  C
  C16      1.0000 0.70420  0.85050  0.97490  Biso   1.000  C
  C17      1.0000 0.82610  0.85140  0.77920  Biso   1.000  C
  C18      1.0000 0.26740  0.81540  0.75580  Biso   1.000  C
  C19      1.0000 0.35560  0.71580  0.74210  Biso   1.000  C
  H11      1.0000 0.28060  0.62990  0.67890  Biso   1.000  H
  C20      1.0000 0.41250  0.64520  0.84750  Biso   1.000  C
  H12      1.0000 0.36890  0.53450  0.81850  Biso   1.000  H
  C21      1.0000 0.60850  0.70940  0.88050  Biso   1.000  C
  H13      1.0000 0.64110  0.62720  0.90180  Biso   1.000  H
  C22      1.0000 0.64500  0.74940  0.76720  Biso   1.000  C
  H14      1.0000 0.61470  0.65140  0.71900  Biso   1.000  H
  C23      1.0000 0.51870  0.81120  0.71150  Biso   1.000  C
  H15      1.0000 0.56150  0.92060  0.74060  Biso   1.000  H
  H16      1.0000 0.49750  0.79640  0.63020  Biso   1.000  H
  C24      1.0000 0.13340  0.16930  0.60210  Biso   1.000  C
  H17      1.0000 0.01690  0.11560  0.58610  Biso   1.000  H
  C25      1.0000 0.19460  0.26750  0.53300  Biso   1.000  C
  H18      1.0000 0.12130  0.27870  0.47080  Biso   1.000  H
  C26      1.0000 0.36670  0.35020  0.55650  Biso   1.000  C
  C27      1.0000 0.47260  0.32880  0.64870  Biso   1.000  C
  H19      1.0000 0.58930  0.38310  0.66630  Biso   1.000  H
  C28      1.0000 0.40090  0.22520  0.71370  Biso   1.000  C
  H20      1.0000 0.47170  0.20950  0.77480  Biso   1.000  H
  N3       1.0000 0.42400  0.45510  0.48260  Biso   1.000  N
  Co2      1.0000 0.13314  0.99501  0.79590  Biso   1.000  Co
  N4       1.0000 0.23170  0.14530  0.69250  Biso   1.000  N
  O9       1.0000 0.39800  0.76970  0.01760  Biso   1.000  O
  O10      1.0000 0.19420  0.53940  0.92850  Biso   1.000  O
  O11      1.0000 0.69380  0.97360  0.95610  Biso   1.000  O
  O12      1.0000 0.78960  0.83590  0.06770  Biso   1.000  O
  O13      1.0000 0.93980  0.82550  0.84450  Biso   1.000  O
  O14      1.0000 0.86830  0.95820  0.72350  Biso   1.000  O
  O15      1.0000 0.33730  0.93380  0.83570  Biso   1.000  O
  O16      1.0000 0.12910  0.78810  0.69070  Biso   1.000  O
  Co3      1.0000 0.50000  0.00000  0.00000  Biso   1.000  Co
  Co4      1.0000 0.00000  0.50000  0.00000  Biso   1.000  Co
