data_image0
_cell_length_a       9.1004
_cell_length_b       9.3972
_cell_length_c       14.9287
_cell_angle_alpha    82.088
_cell_angle_beta     85.458
_cell_angle_gamma    65.335

_symmetry_space_group_name_H-M    "P 1"
_symmetry_int_tables_number       1

loop_
  _symmetry_equiv_pos_as_xyz
  'x, y, z'

loop_
  _atom_site_label
  _atom_site_occupancy
  _atom_site_fract_x
  _atom_site_fract_y
  _atom_site_fract_z
  _atom_site_thermal_displace_type
  _atom_site_B_iso_or_equiv
  _atom_site_type_symbol
  C1       1.0000 0.61480  0.84430  0.19650  Biso   1.000  C
  C2       1.0000 0.64150  0.65700  0.05434  Biso   1.000  C
  C3       1.0000 0.28450  0.84850  0.02449  Biso   1.000  C
  C4       1.0000 0.06580  0.87870  0.17975  Biso   1.000  C
  C5       1.0000 0.24290  0.77530  0.19123  Biso   1.000  C
  H1       1.0000 0.25060  0.68110  0.23170  Biso   1.000  H
  C6       1.0000 0.33910  0.84730  0.23366  Biso   1.000  C
  H2       1.0000 0.32000  0.84380  0.29860  Biso   1.000  H
  H3       1.0000 0.30940  0.95600  0.20820  Biso   1.000  H
  C7       1.0000 0.51850  0.74470  0.21089  Biso   1.000  C
  H4       1.0000 0.56310  0.66510  0.26280  Biso   1.000  H
  C8       1.0000 0.51550  0.65690  0.12898  Biso   1.000  C
  H5       1.0000 0.54770  0.54620  0.15360  Biso   1.000  H
  C9       1.0000 0.33550  0.71770  0.10195  Biso   1.000  C
  H6       1.0000 0.31470  0.62940  0.08720  Biso   1.000  H
  C10      1.0000 0.44530  0.26930  0.23244  Biso   1.000  C
  H7       1.0000 0.38600  0.25780  0.18820  Biso   1.000  H
  C11      1.0000 0.38270  0.36280  0.29895  Biso   1.000  C
  H8       1.0000 0.27410  0.42590  0.30930  Biso   1.000  H
  C12      1.0000 0.64570  0.24320  0.30987  Biso   1.000  C
  H9       1.0000 0.75000  0.21130  0.33010  Biso   1.000  H
  C13      1.0000 0.50550  0.42510  0.42570  Biso   1.000  C
  C14      1.0000 0.64040  0.42750  0.45470  Biso   1.000  C
  H10      1.0000 0.73840  0.37910  0.42410  Biso   1.000  H
  C15      1.0000 0.36510  0.49820  0.46980  Biso   1.000  C
  H11      1.0000 0.27040  0.49930  0.44980  Biso   1.000  H
  Co1      1.0000 0.76592  0.02557  0.16199  Biso   1.000  Co
  N1       1.0000 0.61080  0.19330  0.24016  Biso   1.000  N
  N2       1.0000 0.51170  0.34650  0.34889  Biso   1.000  N
  O1       1.0000 0.58338  0.95454  0.13101  Biso   1.000  O
  O2       1.0000 0.72148  0.82570  0.24974  Biso   1.000  O
  O3       1.0000 0.77931  0.54800  0.06780  Biso   1.000  O
  O4       1.0000 0.60703  0.76076  0.98805  Biso   1.000  O
  O5       1.0000 0.24120  0.82410  0.95238  Biso   1.000  O
  O6       1.0000 0.28554  0.97934  0.03652  Biso   1.000  O
  O7       1.0000 0.98650  0.84020  0.12934  Biso   1.000  O
  O8       1.0000 0.99360  0.99920  0.21963  Biso   1.000  O
  C16      1.0000 0.38520  0.15570  0.80350  Biso   1.000  C
  C17      1.0000 0.35850  0.34300  0.94566  Biso   1.000  C
  C18      1.0000 0.71550  0.15150  0.97551  Biso   1.000  C
  C19      1.0000 0.93420  0.12130  0.82025  Biso   1.000  C
  C20      1.0000 0.75710  0.22470  0.80877  Biso   1.000  C
  H12      1.0000 0.74940  0.31890  0.76830  Biso   1.000  H
  C21      1.0000 0.66090  0.15270  0.76634  Biso   1.000  C
  H13      1.0000 0.68000  0.15620  0.70140  Biso   1.000  H
  H14      1.0000 0.69060  0.04400  0.79180  Biso   1.000  H
  C22      1.0000 0.48150  0.25530  0.78911  Biso   1.000  C
  H15      1.0000 0.43690  0.33490  0.73720  Biso   1.000  H
  C23      1.0000 0.48450  0.34310  0.87102  Biso   1.000  C
  H16      1.0000 0.45230  0.45380  0.84640  Biso   1.000  H
  C24      1.0000 0.66450  0.28230  0.89805  Biso   1.000  C
  H17      1.0000 0.68530  0.37060  0.91280  Biso   1.000  H
  C25      1.0000 0.55470  0.73070  0.76756  Biso   1.000  C
  H18      1.0000 0.61400  0.74220  0.81180  Biso   1.000  H
  C26      1.0000 0.61730  0.63720  0.70105  Biso   1.000  C
  H19      1.0000 0.72590  0.57410  0.69070  Biso   1.000  H
  C27      1.0000 0.35430  0.75680  0.69013  Biso   1.000  C
  H20      1.0000 0.25000  0.78870  0.66990  Biso   1.000  H
  C28      1.0000 0.49450  0.57490  0.57430  Biso   1.000  C
  C29      1.0000 0.35960  0.57250  0.54530  Biso   1.000  C
  H21      1.0000 0.26160  0.62090  0.57590  Biso   1.000  H
  C30      1.0000 0.63490  0.50180  0.53020  Biso   1.000  C
  H22      1.0000 0.72960  0.50070  0.55020  Biso   1.000  H
  Co2      1.0000 0.23408  0.97443  0.83801  Biso   1.000  Co
  N3       1.0000 0.38920  0.80670  0.75984  Biso   1.000  N
  N4       1.0000 0.48830  0.65350  0.65111  Biso   1.000  N
  O9       1.0000 0.41662  0.04546  0.86899  Biso   1.000  O
  O10      1.0000 0.27852  0.17430  0.75026  Biso   1.000  O
  O11      1.0000 0.22069  0.45200  0.93220  Biso   1.000  O
  O12      1.0000 0.39297  0.23924  0.01195  Biso   1.000  O
  O13      1.0000 0.75880  0.17590  0.04762  Biso   1.000  O
  O14      1.0000 0.71446  0.02066  0.96348  Biso   1.000  O
  O15      1.0000 0.01350  0.15980  0.87066  Biso   1.000  O
  O16      1.0000 0.00640  0.00080  0.78037  Biso   1.000  O
  Co3      1.0000 0.50000  0.00000  0.00000  Biso   1.000  Co
  Co4      1.0000 0.00000  0.50000  0.00000  Biso   1.000  Co
