data_image0
_cell_length_a       9.1291
_cell_length_b       9.5884
_cell_length_c       14.7554
_cell_angle_alpha    100.388
_cell_angle_beta     99.27
_cell_angle_gamma    114.467

_symmetry_space_group_name_H-M    "P 1"
_symmetry_int_tables_number       1

loop_
  _symmetry_equiv_pos_as_xyz
  'x, y, z'

loop_
  _atom_site_label
  _atom_site_occupancy
  _atom_site_fract_x
  _atom_site_fract_y
  _atom_site_fract_z
  _atom_site_thermal_displace_type
  _atom_site_B_iso_or_equiv
  _atom_site_type_symbol
  O1       1.0000 0.34740  0.24820  0.26816  Biso   1.000  O
  O2       1.0000 0.15700  0.08930  0.13845  Biso   1.000  O
  C1       1.0000 0.21710  0.21450  0.20793  Biso   1.000  C
  O3       1.0000 0.30690  0.46520  0.06497  Biso   1.000  O
  O4       1.0000 0.09950  0.22897  0.98480  Biso   1.000  O
  C2       1.0000 0.16650  0.35290  0.05306  Biso   1.000  C
  C3       1.0000 0.07990  0.37500  0.13142  Biso   1.000  C
  H1       1.0000 0.12360  0.49050  0.15620  Biso   1.000  H
  O5       1.0000 0.71270  0.15400  0.94630  Biso   1.000  O
  O6       1.0000 0.80413  0.03053  0.03763  Biso   1.000  O
  C4       1.0000 0.79530  0.15360  0.02304  Biso   1.000  C
  C5       1.0000 0.88640  0.30690  0.10318  Biso   1.000  C
  H2       1.0000 0.85660  0.38760  0.08590  Biso   1.000  H
  Co1      1.0000 0.35513  0.03226  0.17061  Biso   1.000  Co
  C6       1.0000 0.66080  0.17730  0.18802  Biso   1.000  C
  O7       1.0000 0.61250  0.06500  0.22486  Biso   1.000  O
  C7       1.0000 0.84360  0.28090  0.19847  Biso   1.000  C
  H3       1.0000 0.87320  0.38600  0.23990  Biso   1.000  H
  C8       1.0000 0.96170  0.22390  0.24427  Biso   1.000  C
  H4       1.0000 0.91910  0.11000  0.21820  Biso   1.000  H
  H5       1.0000 0.97700  0.24750  0.31290  Biso   1.000  H
  C9       1.0000 0.12750  0.31670  0.21983  Biso   1.000  C
  H6       1.0000 0.19830  0.41110  0.27380  Biso   1.000  H
  N1       1.0000 0.26170  0.89750  0.26147  Biso   1.000  N
  O8       1.0000 0.55510  0.20810  0.14166  Biso   1.000  O
  C10      1.0000 0.06510  0.60170  0.44289  Biso   1.000  C
  C11      1.0000 0.13290  0.70630  0.38103  Biso   1.000  C
  C12      1.0000 0.03080  0.71550  0.30480  Biso   1.000  C
  H7       1.0000 0.91560  0.65750  0.29230  Biso   1.000  H
  C13      1.0000 0.09740  0.80940  0.24696  Biso   1.000  C
  H8       1.0000 0.02510  0.81160  0.19570  Biso   1.000  H
  C14      1.0000 0.89970  0.54440  0.44590  Biso   1.000  C
  H9       1.0000 0.83010  0.57360  0.40920  Biso   1.000  H
  C15      1.0000 0.36090  0.89090  0.33610  Biso   1.000  C
  H10      1.0000 0.47550  0.95150  0.34770  Biso   1.000  H
  C16      1.0000 0.30330  0.79980  0.39680  Biso   1.000  C
  H11      1.0000 0.37810  0.80090  0.44810  Biso   1.000  H
  C17      1.0000 0.16370  0.55440  0.49840  Biso   1.000  C
  H12      1.0000 0.27500  0.59020  0.49790  Biso   1.000  H
  O9       1.0000 0.65260  0.75180  0.73184  Biso   1.000  O
  O10      1.0000 0.84300  0.91070  0.86155  Biso   1.000  O
  C18      1.0000 0.78290  0.78550  0.79207  Biso   1.000  C
  O11      1.0000 0.69310  0.53480  0.93503  Biso   1.000  O
  O12      1.0000 0.90050  0.77103  0.01520  Biso   1.000  O
  C19      1.0000 0.83350  0.64710  0.94694  Biso   1.000  C
  C20      1.0000 0.92010  0.62500  0.86858  Biso   1.000  C
  H13      1.0000 0.87640  0.50950  0.84380  Biso   1.000  H
  O13      1.0000 0.28730  0.84600  0.05370  Biso   1.000  O
  O14      1.0000 0.19587  0.96947  0.96237  Biso   1.000  O
  C21      1.0000 0.20470  0.84640  0.97696  Biso   1.000  C
  C22      1.0000 0.11360  0.69310  0.89682  Biso   1.000  C
  H14      1.0000 0.14340  0.61240  0.91410  Biso   1.000  H
  Co2      1.0000 0.64487  0.96774  0.82939  Biso   1.000  Co
  C23      1.0000 0.33920  0.82270  0.81198  Biso   1.000  C
  O15      1.0000 0.38750  0.93500  0.77514  Biso   1.000  O
  C24      1.0000 0.15640  0.71910  0.80153  Biso   1.000  C
  H15      1.0000 0.12680  0.61400  0.76010  Biso   1.000  H
  C25      1.0000 0.03830  0.77610  0.75573  Biso   1.000  C
  H16      1.0000 0.08090  0.89000  0.78180  Biso   1.000  H
  H17      1.0000 0.02300  0.75250  0.68710  Biso   1.000  H
  C26      1.0000 0.87250  0.68330  0.78017  Biso   1.000  C
  H18      1.0000 0.80170  0.58890  0.72620  Biso   1.000  H
  N2       1.0000 0.73830  0.10250  0.73853  Biso   1.000  N
  O16      1.0000 0.44490  0.79190  0.85834  Biso   1.000  O
  C27      1.0000 0.93490  0.39830  0.55711  Biso   1.000  C
  C28      1.0000 0.86710  0.29370  0.61897  Biso   1.000  C
  C29      1.0000 0.96920  0.28450  0.69520  Biso   1.000  C
  H19      1.0000 0.08440  0.34250  0.70770  Biso   1.000  H
  C30      1.0000 0.90260  0.19060  0.75304  Biso   1.000  C
  H20      1.0000 0.97490  0.18840  0.80430  Biso   1.000  H
  C31      1.0000 0.10030  0.45560  0.55410  Biso   1.000  C
  H21      1.0000 0.16990  0.42640  0.59080  Biso   1.000  H
  C32      1.0000 0.63910  0.10910  0.66390  Biso   1.000  C
  H22      1.0000 0.52450  0.04850  0.65230  Biso   1.000  H
  C33      1.0000 0.69670  0.20020  0.60320  Biso   1.000  C
  H23      1.0000 0.62190  0.19910  0.55190  Biso   1.000  H
  C34      1.0000 0.83630  0.44560  0.50160  Biso   1.000  C
  H24      1.0000 0.72500  0.40980  0.50210  Biso   1.000  H
  Co3      1.0000 0.00000  0.00000  0.00000  Biso   1.000  Co
  Co4      1.0000 0.50000  0.50000  0.00000  Biso   1.000  Co
