data_AMUWUB_clean
_audit_creation_date              2014-07-02
_audit_creation_method            'Materials Studio'
_symmetry_space_group_name_H-M    'P1'
_symmetry_Int_Tables_number       1
_symmetry_cell_setting            triclinic
loop_
_symmetry_equiv_pos_as_xyz
  x,y,z
_cell_length_a                    10.0358
_cell_length_b                    15.9728
_cell_length_c                    21.5590
_cell_angle_alpha                 98.3330
_cell_angle_beta                  93.7820
_cell_angle_gamma                 107.7590
loop_
_atom_site_label
_atom_site_type_symbol
_atom_site_fract_x
_atom_site_fract_y
_atom_site_fract_z
_atom_site_U_iso_or_equiv
_atom_site_adp_type
_atom_site_occupancy
Cu1    Cu    0.37353   0.29995   0.54186   0.01267  Uiso   1.00
Cu2    Cu    0.04994   0.40772   0.63307   0.01267  Uiso   1.00
Cu3    Cu    0.93344   0.58657   0.79864   0.01267  Uiso   1.00
Cu4    Cu    0.62647   0.70005   0.45814   0.01267  Uiso   1.00
Cu5    Cu    0.95006   0.59228   0.36693   0.01267  Uiso   1.00
Cu6    Cu    0.06656   0.41343   0.20136   0.01267  Uiso   1.00
H1     H     0.87960   0.57230   0.56850   0.01267  Uiso   1.00
H2     H     0.15020   0.20570   0.44300   0.01267  Uiso   1.00
H3     H     0.92690   0.10600   0.42900   0.01267  Uiso   1.00
H4     H     0.97210   0.08390   0.60900   0.01267  Uiso   1.00
H5     H     0.19230   0.18540   0.61810   0.01267  Uiso   1.00
H6     H     0.75040   0.99140   0.54630   0.01267  Uiso   1.00
H7     H     0.72770   0.01460   0.42610   0.01267  Uiso   1.00
H8     H     0.51640   0.93970   0.36100   0.01267  Uiso   1.00
H9     H     0.29590   0.83300   0.33640   0.01267  Uiso   1.00
H10    H     0.33020   0.76670   0.50700   0.01267  Uiso   1.00
H11    H     0.55230   0.87530   0.53090   0.01267  Uiso   1.00
H12    H     0.06150   0.36050   0.75490   0.01267  Uiso   1.00
H13    H     0.21880   0.37530   0.84140   0.01267  Uiso   1.00
H14    H     0.51360   0.53110   0.76010   0.01267  Uiso   1.00
H15    H     0.35300   0.50870   0.67460   0.01267  Uiso   1.00
H16    H     0.57770   0.51360   0.86710   0.01267  Uiso   1.00
H17    H     0.39530   0.37970   0.90980   0.01267  Uiso   1.00
H18    H     0.48360   0.33100   0.00120   0.01267  Uiso   1.00
H19    H     0.70390   0.35130   0.07980   0.01267  Uiso   1.00
H20    H     0.90620   0.58310   0.02360   0.01267  Uiso   1.00
H21    H     0.73140   0.53900   0.93680   0.01267  Uiso   1.00
H22    H     0.12040   0.42770   0.43150   0.01267  Uiso   1.00
H23    H     0.84980   0.79430   0.55700   0.01267  Uiso   1.00
H24    H     0.07310   0.89400   0.57100   0.01267  Uiso   1.00
H25    H     0.02790   0.91610   0.39100   0.01267  Uiso   1.00
H26    H     0.80770   0.81460   0.38190   0.01267  Uiso   1.00
H27    H     0.24960   0.00860   0.45370   0.01267  Uiso   1.00
H28    H     0.27230   0.98540   0.57390   0.01267  Uiso   1.00
H29    H     0.48360   0.06030   0.63900   0.01267  Uiso   1.00
H30    H     0.70410   0.16700   0.66360   0.01267  Uiso   1.00
H31    H     0.66980   0.23330   0.49300   0.01267  Uiso   1.00
H32    H     0.44770   0.12470   0.46910   0.01267  Uiso   1.00
H33    H     0.93850   0.63950   0.24510   0.01267  Uiso   1.00
H34    H     0.78120   0.62470   0.15860   0.01267  Uiso   1.00
H35    H     0.48640   0.46890   0.23990   0.01267  Uiso   1.00
H36    H     0.64700   0.49130   0.32540   0.01267  Uiso   1.00
H37    H     0.42230   0.48640   0.13290   0.01267  Uiso   1.00
H38    H     0.60470   0.62030   0.09020   0.01267  Uiso   1.00
H39    H     0.51640   0.66900   0.99880   0.01267  Uiso   1.00
H40    H     0.29610   0.64870   0.92020   0.01267  Uiso   1.00
H41    H     0.09380   0.41690   0.97640   0.01267  Uiso   1.00
H42    H     0.26860   0.46100   0.06320   0.01267  Uiso   1.00
C1     C     0.55510   0.36170   0.65480   0.01267  Uiso   1.00
C2     C     0.62450   0.41690   0.60770   0.01267  Uiso   1.00
C3     C     0.75180   0.48740   0.61530   0.01267  Uiso   1.00
C4     C     0.84370   0.52040   0.67870   0.01267  Uiso   1.00
C5     C     0.79620   0.52480   0.56360   0.01267  Uiso   1.00
C6     C     0.72010   0.49350   0.50446   0.01267  Uiso   1.00
C7     C     0.77640   0.53660   0.44940   0.01267  Uiso   1.00
C8     C     0.59310   0.42380   0.49910   0.01267  Uiso   1.00
C9     C     0.49200   0.37720   0.44080   0.01267  Uiso   1.00
C10    C     0.11430   0.18090   0.47730   0.01267  Uiso   1.00
C11    C     0.97930   0.12050   0.46850   0.01267  Uiso   1.00
C12    C     0.92250   0.08190   0.51730   0.01267  Uiso   1.00
C13    C     0.00530   0.10750   0.57390   0.01267  Uiso   1.00
C14    C     0.13840   0.16870   0.57890   0.01267  Uiso   1.00
C15    C     0.78010   0.01510   0.51080   0.01267  Uiso   1.00
C16    C     0.69600   0.98820   0.46030   0.01267  Uiso   1.00
C17    C     0.55390   0.92050   0.44810   0.01267  Uiso   1.00
C18    C     0.47880   0.90570   0.39100   0.01267  Uiso   1.00
C19    C     0.34660   0.84100   0.37570   0.01267  Uiso   1.00
C20    C     0.29210   0.78910   0.41940   0.01267  Uiso   1.00
C21    C     0.36720   0.80160   0.47740   0.01267  Uiso   1.00
C22    C     0.50030   0.86740   0.49190   0.01267  Uiso   1.00
C23    C     0.15350   0.71600   0.40150   0.01267  Uiso   1.00
C24    C     0.15500   0.39470   0.75510   0.01267  Uiso   1.00
C25    C     0.24880   0.40420   0.80800   0.01267  Uiso   1.00
C26    C     0.38570   0.45660   0.81030   0.01267  Uiso   1.00
C27    C     0.42150   0.49480   0.76020   0.01267  Uiso   1.00
C28    C     0.32390   0.48130   0.70880   0.01267  Uiso   1.00
C29    C     0.49290   0.46800   0.86520   0.01267  Uiso   1.00
C30    C     0.48140   0.42280   0.90890   0.01267  Uiso   1.00
C31    C     0.59790   0.43460   0.95940   0.01267  Uiso   1.00
C32    C     0.56980   0.37490   0.00190   0.01267  Uiso   1.00
C33    C     0.70510   0.39140   0.05250   0.01267  Uiso   1.00
C34    C     0.82350   0.46560   0.05510   0.01267  Uiso   1.00
C35    C     0.83340   0.52910   0.01740   0.01267  Uiso   1.00
C36    C     0.71990   0.50330   0.96780   0.01267  Uiso   1.00
C37    C     0.95460   0.49530   0.10810   0.01267  Uiso   1.00
C38    C     0.44490   0.63830   0.34520   0.01267  Uiso   1.00
C39    C     0.37550   0.58310   0.39230   0.01267  Uiso   1.00
C40    C     0.24820   0.51260   0.38470   0.01267  Uiso   1.00
C41    C     0.15630   0.47960   0.32130   0.01267  Uiso   1.00
C42    C     0.20380   0.47520   0.43640   0.01267  Uiso   1.00
C43    C     0.27990   0.50650   0.49554   0.01267  Uiso   1.00
C44    C     0.22360   0.46340   0.55060   0.01267  Uiso   1.00
C45    C     0.40690   0.57620   0.50090   0.01267  Uiso   1.00
C46    C     0.50800   0.62280   0.55920   0.01267  Uiso   1.00
C47    C     0.88570   0.81910   0.52270   0.01267  Uiso   1.00
C48    C     0.02070   0.87950   0.53150   0.01267  Uiso   1.00
C49    C     0.07750   0.91810   0.48270   0.01267  Uiso   1.00
C50    C     0.99470   0.89250   0.42610   0.01267  Uiso   1.00
C51    C     0.86160   0.83130   0.42110   0.01267  Uiso   1.00
C52    C     0.21990   0.98490   0.48920   0.01267  Uiso   1.00
C53    C     0.30400   0.01180   0.53970   0.01267  Uiso   1.00
C54    C     0.44610   0.07950   0.55190   0.01267  Uiso   1.00
C55    C     0.52120   0.09430   0.60900   0.01267  Uiso   1.00
C56    C     0.65340   0.15900   0.62430   0.01267  Uiso   1.00
C57    C     0.70790   0.21090   0.58060   0.01267  Uiso   1.00
C58    C     0.63280   0.19840   0.52260   0.01267  Uiso   1.00
C59    C     0.49970   0.13260   0.50810   0.01267  Uiso   1.00
C60    C     0.84650   0.28400   0.59850   0.01267  Uiso   1.00
C61    C     0.84500   0.60530   0.24490   0.01267  Uiso   1.00
C62    C     0.75120   0.59580   0.19200   0.01267  Uiso   1.00
C63    C     0.61430   0.54340   0.18970   0.01267  Uiso   1.00
C64    C     0.57850   0.50520   0.23980   0.01267  Uiso   1.00
C65    C     0.67610   0.51870   0.29120   0.01267  Uiso   1.00
C66    C     0.50710   0.53200   0.13480   0.01267  Uiso   1.00
C67    C     0.51860   0.57720   0.09110   0.01267  Uiso   1.00
C68    C     0.40210   0.56540   0.04060   0.01267  Uiso   1.00
C69    C     0.43020   0.62510   0.99810   0.01267  Uiso   1.00
C70    C     0.29490   0.60860   0.94750   0.01267  Uiso   1.00
C71    C     0.17650   0.53440   0.94490   0.01267  Uiso   1.00
C72    C     0.16660   0.47090   0.98260   0.01267  Uiso   1.00
C73    C     0.28010   0.49670   0.03220   0.01267  Uiso   1.00
C74    C     0.04540   0.50470   0.89190   0.01267  Uiso   1.00
N1     N     0.55260   0.39020   0.55013   0.01267  Uiso   1.00
N2     N     0.19370   0.20470   0.53150   0.01267  Uiso   1.00
N3     N     0.19090   0.43120   0.70558   0.01267  Uiso   1.00
N4     N     0.44740   0.60980   0.44987   0.01267  Uiso   1.00
N5     N     0.80630   0.79530   0.46850   0.01267  Uiso   1.00
N6     N     0.80910   0.56880   0.29442   0.01267  Uiso   1.00
O1     O     0.61620   0.37150   0.70805   0.01267  Uiso   1.00
O2     O     0.43460   0.30400   0.63315   0.01267  Uiso   1.00
O3     O     0.94540   0.49290   0.68627   0.01267  Uiso   1.00
O4     O     0.81160   0.57220   0.71906   0.01267  Uiso   1.00
O5     O     0.75480   0.60640   0.44147   0.01267  Uiso   1.00
O6     O     0.85170   0.50213   0.41696   0.01267  Uiso   1.00
O7     O     0.51320   0.40260   0.39082   0.01267  Uiso   1.00
O8     O     0.38850   0.31152   0.45025   0.01267  Uiso   1.00
O9     O     0.08330   0.70790   0.34860   0.01267  Uiso   1.00
O10    O     0.10760   0.66022   0.43670   0.01267  Uiso   1.00
O11    O     0.04750   0.57550   0.12100   0.01267  Uiso   1.00
O12    O     0.93710   0.41530   0.13185   0.01267  Uiso   1.00
O13    O     0.38380   0.62850   0.29195   0.01267  Uiso   1.00
O14    O     0.56540   0.69600   0.36685   0.01267  Uiso   1.00
O15    O     0.05460   0.50710   0.31373   0.01267  Uiso   1.00
O16    O     0.18840   0.42780   0.28094   0.01267  Uiso   1.00
O17    O     0.24520   0.39360   0.55853   0.01267  Uiso   1.00
O18    O     0.14830   0.49787   0.58304   0.01267  Uiso   1.00
O19    O     0.48680   0.59740   0.60918   0.01267  Uiso   1.00
O20    O     0.61150   0.68848   0.54975   0.01267  Uiso   1.00
O21    O     0.91670   0.29210   0.65140   0.01267  Uiso   1.00
O22    O     0.89240   0.33978   0.56330   0.01267  Uiso   1.00
O23    O     0.95250   0.42450   0.87900   0.01267  Uiso   1.00
O24    O     0.06290   0.58470   0.86815   0.01267  Uiso   1.00
