data_AMUXAI_clean
_audit_creation_date              2014-07-02
_audit_creation_method            'Materials Studio'
_symmetry_space_group_name_H-M    'P1'
_symmetry_Int_Tables_number       1
_symmetry_cell_setting            triclinic
loop_
_symmetry_equiv_pos_as_xyz
  x,y,z
_cell_length_a                    9.9506
_cell_length_b                    15.6823
_cell_length_c                    21.5000
_cell_angle_alpha                 100.0720
_cell_angle_beta                  93.0600
_cell_angle_gamma                 106.8340
loop_
_atom_site_label
_atom_site_type_symbol
_atom_site_fract_x
_atom_site_fract_y
_atom_site_fract_z
_atom_site_U_iso_or_equiv
_atom_site_adp_type
_atom_site_occupancy
Cu1    Cu    0.37635   0.79975   0.54398   0.01267  Uiso   1.00
Cu2    Cu    0.94938   0.08688   0.36590   0.01267  Uiso   1.00
Cu3    Cu    0.93454   0.09959   0.80276   0.01267  Uiso   1.00
Cu4    Cu    0.62365   0.20025   0.45602   0.01267  Uiso   1.00
Cu5    Cu    0.05062   0.91312   0.63410   0.01267  Uiso   1.00
Cu6    Cu    0.06546   0.90041   0.19724   0.01267  Uiso   1.00
H1     H     0.29750   0.32750   0.33420   0.01267  Uiso   1.00
H2     H     0.51340   0.44250   0.36400   0.01267  Uiso   1.00
H3     H     0.54750   0.37600   0.53230   0.01267  Uiso   1.00
H4     H     0.33000   0.26240   0.50490   0.01267  Uiso   1.00
H5     H     0.75110   0.49240   0.55050   0.01267  Uiso   1.00
H6     H     0.72240   0.51710   0.42810   0.01267  Uiso   1.00
H7     H     0.19790   0.68400   0.62060   0.01267  Uiso   1.00
H8     H     0.97900   0.58160   0.61280   0.01267  Uiso   1.00
H9     H     0.91830   0.60360   0.43050   0.01267  Uiso   1.00
H10    H     0.15650   0.70980   0.44470   0.01267  Uiso   1.00
H11    H     0.29440   0.15160   0.93120   0.01267  Uiso   1.00
H12    H     0.49340   0.16350   0.01330   0.01267  Uiso   1.00
H13    H     0.26050   0.93620   0.05830   0.01267  Uiso   1.00
H14    H     0.08630   0.92100   0.98040   0.01267  Uiso   1.00
H15    H     0.59610   0.10820   0.09020   0.01267  Uiso   1.00
H16    H     0.42330   0.97540   0.13380   0.01267  Uiso   1.00
H17    H     0.93250   0.12440   0.24120   0.01267  Uiso   1.00
H18    H     0.78360   0.11530   0.15640   0.01267  Uiso   1.00
H19    H     0.48360   0.95720   0.23940   0.01267  Uiso   1.00
H20    H     0.64690   0.98030   0.32350   0.01267  Uiso   1.00
H21    H     0.87980   0.07660   0.57230   0.01267  Uiso   1.00
H22    H     0.19800   0.11170   0.76120   0.01267  Uiso   1.00
H23    H     0.37850   0.20970   0.72070   0.01267  Uiso   1.00
H24    H     0.37490   0.35660   0.71900   0.01267  Uiso   1.00
H25    H     0.19090   0.40540   0.75770   0.01267  Uiso   1.00
H26    H     0.01050   0.30730   0.79820   0.01267  Uiso   1.00
H27    H     0.70250   0.67250   0.66580   0.01267  Uiso   1.00
H28    H     0.48660   0.55750   0.63600   0.01267  Uiso   1.00
H29    H     0.45250   0.62400   0.46770   0.01267  Uiso   1.00
H30    H     0.67000   0.73760   0.49510   0.01267  Uiso   1.00
H31    H     0.24890   0.50760   0.44950   0.01267  Uiso   1.00
H32    H     0.27760   0.48290   0.57190   0.01267  Uiso   1.00
H33    H     0.80210   0.31600   0.37940   0.01267  Uiso   1.00
H34    H     0.02100   0.41840   0.38720   0.01267  Uiso   1.00
H35    H     0.08170   0.39640   0.56950   0.01267  Uiso   1.00
H36    H     0.84350   0.29020   0.55530   0.01267  Uiso   1.00
H37    H     0.70560   0.84840   0.06880   0.01267  Uiso   1.00
H38    H     0.50660   0.83650   0.98670   0.01267  Uiso   1.00
H39    H     0.73950   0.06380   0.94170   0.01267  Uiso   1.00
H40    H     0.91370   0.07900   0.01960   0.01267  Uiso   1.00
H41    H     0.40390   0.89180   0.90980   0.01267  Uiso   1.00
H42    H     0.57670   0.02460   0.86620   0.01267  Uiso   1.00
H43    H     0.06750   0.87560   0.75880   0.01267  Uiso   1.00
H44    H     0.21640   0.88470   0.84360   0.01267  Uiso   1.00
H45    H     0.51640   0.04280   0.76060   0.01267  Uiso   1.00
H46    H     0.35310   0.01970   0.67650   0.01267  Uiso   1.00
H47    H     0.12020   0.92340   0.42770   0.01267  Uiso   1.00
H48    H     0.80200   0.88830   0.23880   0.01267  Uiso   1.00
H49    H     0.62150   0.79030   0.27930   0.01267  Uiso   1.00
H50    H     0.62510   0.64340   0.28100   0.01267  Uiso   1.00
H51    H     0.80910   0.59460   0.24230   0.01267  Uiso   1.00
H52    H     0.98950   0.69270   0.20180   0.01267  Uiso   1.00
C1     C     0.15360   0.21400   0.40180   0.01267  Uiso   1.00
C2     C     0.29170   0.28630   0.42050   0.01267  Uiso   1.00
C3     C     0.34610   0.33790   0.37430   0.01267  Uiso   1.00
C4     C     0.47690   0.40530   0.39230   0.01267  Uiso   1.00
C5     C     0.55210   0.41810   0.44950   0.01267  Uiso   1.00
C6     C     0.49790   0.36660   0.49260   0.01267  Uiso   1.00
C7     C     0.36570   0.29890   0.47620   0.01267  Uiso   1.00
C8     C     0.78130   0.51670   0.51540   0.01267  Uiso   1.00
C9     C     0.69270   0.48890   0.46170   0.01267  Uiso   1.00
C10    C     0.14190   0.66670   0.58170   0.01267  Uiso   1.00
C11    C     0.00940   0.60630   0.57780   0.01267  Uiso   1.00
C12    C     0.92310   0.58290   0.52280   0.01267  Uiso   1.00
C13    C     0.97400   0.61930   0.46930   0.01267  Uiso   1.00
C14    C     0.11890   0.68310   0.47790   0.01267  Uiso   1.00
C15    C     0.05770   0.03800   0.89320   0.01267  Uiso   1.00
C16    C     0.17470   0.03110   0.94600   0.01267  Uiso   1.00
C17    C     0.28900   0.10680   0.95510   0.01267  Uiso   1.00
C18    C     0.41000   0.11500   0.00700   0.01267  Uiso   1.00
C19    C     0.39000   0.05100   0.04250   0.01267  Uiso   1.00
C20    C     0.27150   0.97960   0.03300   0.01267  Uiso   1.00
C21    C     0.16700   0.97080   0.98570   0.01267  Uiso   1.00
C22    C     0.51150   0.06430   0.09240   0.01267  Uiso   1.00
C23    C     0.50720   0.02180   0.13530   0.01267  Uiso   1.00
C24    C     0.83780   0.09260   0.24140   0.01267  Uiso   1.00
C25    C     0.75250   0.08620   0.18940   0.01267  Uiso   1.00
C26    C     0.61260   0.03210   0.18860   0.01267  Uiso   1.00
C27    C     0.57570   0.99360   0.23900   0.01267  Uiso   1.00
C28    C     0.67390   0.00820   0.28950   0.01267  Uiso   1.00
C29    C     0.56030   0.86910   0.65730   0.01267  Uiso   1.00
C30    C     0.62380   0.92200   0.60900   0.01267  Uiso   1.00
C31    C     0.75220   0.99460   0.61730   0.01267  Uiso   1.00
C32    C     0.83860   0.02910   0.68140   0.01267  Uiso   1.00
C33    C     0.79600   0.02900   0.56680   0.01267  Uiso   1.00
C34    C     0.77830   0.03480   0.44940   0.01267  Uiso   1.00
C35    C     0.72150   0.99690   0.50550   0.01267  Uiso   1.00
C36    C     0.59350   0.92240   0.50120   0.01267  Uiso   1.00
C37    C     0.49390   0.87360   0.44350   0.01267  Uiso   1.00
C38    C     0.19700   0.17050   0.76050   0.01267  Uiso   1.00
C39    C     0.30500   0.22900   0.73620   0.01267  Uiso   1.00
C40    C     0.30300   0.31700   0.73500   0.01267  Uiso   1.00
C41    C     0.19200   0.34650   0.75800   0.01267  Uiso   1.00
C42    C     0.08400   0.28770   0.78270   0.01267  Uiso   1.00
C43    C     0.84640   0.78600   0.59820   0.01267  Uiso   1.00
C44    C     0.70830   0.71370   0.57950   0.01267  Uiso   1.00
C45    C     0.65390   0.66210   0.62570   0.01267  Uiso   1.00
C46    C     0.52310   0.59470   0.60770   0.01267  Uiso   1.00
C47    C     0.44790   0.58190   0.55050   0.01267  Uiso   1.00
C48    C     0.50210   0.63340   0.50740   0.01267  Uiso   1.00
C49    C     0.63430   0.70110   0.52380   0.01267  Uiso   1.00
C50    C     0.21870   0.48330   0.48460   0.01267  Uiso   1.00
C51    C     0.30730   0.51110   0.53830   0.01267  Uiso   1.00
C52    C     0.85810   0.33330   0.41830   0.01267  Uiso   1.00
C53    C     0.99060   0.39370   0.42220   0.01267  Uiso   1.00
C54    C     0.07690   0.41710   0.47720   0.01267  Uiso   1.00
C55    C     0.02600   0.38070   0.53070   0.01267  Uiso   1.00
C56    C     0.88110   0.31690   0.52210   0.01267  Uiso   1.00
C57    C     0.94230   0.96200   0.10680   0.01267  Uiso   1.00
C58    C     0.82530   0.96890   0.05400   0.01267  Uiso   1.00
C59    C     0.71100   0.89320   0.04490   0.01267  Uiso   1.00
C60    C     0.59000   0.88500   0.99300   0.01267  Uiso   1.00
C61    C     0.61000   0.94900   0.95750   0.01267  Uiso   1.00
C62    C     0.72850   0.02040   0.96700   0.01267  Uiso   1.00
C63    C     0.83300   0.02920   0.01430   0.01267  Uiso   1.00
C64    C     0.48850   0.93570   0.90760   0.01267  Uiso   1.00
C65    C     0.49280   0.97820   0.86470   0.01267  Uiso   1.00
C66    C     0.16220   0.90740   0.75860   0.01267  Uiso   1.00
C67    C     0.24750   0.91380   0.81060   0.01267  Uiso   1.00
C68    C     0.38740   0.96790   0.81140   0.01267  Uiso   1.00
C69    C     0.42430   0.00640   0.76100   0.01267  Uiso   1.00
C70    C     0.32610   0.99180   0.71050   0.01267  Uiso   1.00
C71    C     0.43970   0.13090   0.34270   0.01267  Uiso   1.00
C72    C     0.37620   0.07800   0.39100   0.01267  Uiso   1.00
C73    C     0.24780   0.00540   0.38270   0.01267  Uiso   1.00
C74    C     0.16140   0.97090   0.31860   0.01267  Uiso   1.00
C75    C     0.20400   0.97100   0.43320   0.01267  Uiso   1.00
C76    C     0.22170   0.96520   0.55060   0.01267  Uiso   1.00
C77    C     0.27850   0.00310   0.49450   0.01267  Uiso   1.00
C78    C     0.40650   0.07760   0.49880   0.01267  Uiso   1.00
C79    C     0.50610   0.12640   0.55650   0.01267  Uiso   1.00
C80    C     0.80300   0.82950   0.23950   0.01267  Uiso   1.00
C81    C     0.69500   0.77100   0.26380   0.01267  Uiso   1.00
C82    C     0.69700   0.68300   0.26500   0.01267  Uiso   1.00
C83    C     0.80800   0.65350   0.24200   0.01267  Uiso   1.00
C84    C     0.91600   0.71230   0.21730   0.01267  Uiso   1.00
N1     N     0.19370   0.70130   0.53410   0.01267  Uiso   1.00
N2     N     0.80520   0.06000   0.29230   0.01267  Uiso   1.00
N3     N     0.55530   0.89350   0.55200   0.01267  Uiso   1.00
N4     N     0.08640   0.19980   0.78370   0.01267  Uiso   1.00
N5     N     0.80630   0.29870   0.46590   0.01267  Uiso   1.00
N6     N     0.19480   0.94000   0.70770   0.01267  Uiso   1.00
N7     N     0.44470   0.10650   0.44800   0.01267  Uiso   1.00
N8     N     0.91360   0.80020   0.21630   0.01267  Uiso   1.00
O1     O     0.10750   0.15760   0.43680   0.01267  Uiso   1.00
O2     O     0.08370   0.20520   0.34830   0.01267  Uiso   1.00
O3     O     0.96770   0.94640   0.88110   0.01267  Uiso   1.00
O4     O     0.06380   0.09700   0.86970   0.01267  Uiso   1.00
O5     O     0.61850   0.88020   0.71230   0.01267  Uiso   1.00
O6     O     0.43600   0.80840   0.63460   0.01267  Uiso   1.00
O7     O     0.81290   0.08690   0.72180   0.01267  Uiso   1.00
O8     O     0.94530   0.99990   0.68750   0.01267  Uiso   1.00
O9     O     0.84870   0.99520   0.41670   0.01267  Uiso   1.00
O10    O     0.75640   0.10550   0.44270   0.01267  Uiso   1.00
O11    O     0.51500   0.89640   0.39140   0.01267  Uiso   1.00
O12    O     0.38840   0.80650   0.45320   0.01267  Uiso   1.00
O13    O     0.89250   0.84240   0.56320   0.01267  Uiso   1.00
O14    O     0.91630   0.79480   0.65170   0.01267  Uiso   1.00
O15    O     0.03230   0.05360   0.11890   0.01267  Uiso   1.00
O16    O     0.93620   0.90300   0.13030   0.01267  Uiso   1.00
O17    O     0.38150   0.11980   0.28770   0.01267  Uiso   1.00
O18    O     0.56400   0.19160   0.36540   0.01267  Uiso   1.00
O19    O     0.18710   0.91310   0.27820   0.01267  Uiso   1.00
O20    O     0.05470   0.00010   0.31250   0.01267  Uiso   1.00
O21    O     0.15130   0.00480   0.58330   0.01267  Uiso   1.00
O22    O     0.24360   0.89450   0.55730   0.01267  Uiso   1.00
O23    O     0.48500   0.10360   0.60860   0.01267  Uiso   1.00
O24    O     0.61160   0.19350   0.54680   0.01267  Uiso   1.00
