data_image0
_cell_length_a       16.264
_cell_length_b       15.11
_cell_length_c       14.376
_cell_angle_alpha    90
_cell_angle_beta     115.148
_cell_angle_gamma    90

_symmetry_space_group_name_H-M    "P 1"
_symmetry_int_tables_number       1

loop_
  _symmetry_equiv_pos_as_xyz
  'x, y, z'

loop_
  _atom_site_label
  _atom_site_occupancy
  _atom_site_fract_x
  _atom_site_fract_y
  _atom_site_fract_z
  _atom_site_thermal_displace_type
  _atom_site_B_iso_or_equiv
  _atom_site_type_symbol
  C1       1.0000 0.68610  0.40430  0.56720  Biso   1.000  C
  C2       1.0000 0.74330  0.32570  0.62370  Biso   1.000  C
  C3       1.0000 0.70730  0.24140  0.60460  Biso   1.000  C
  C4       1.0000 0.75690  0.16910  0.66040  Biso   1.000  C
  C5       1.0000 0.84450  0.17960  0.73650  Biso   1.000  C
  C6       1.0000 0.88000  0.26410  0.75570  Biso   1.000  C
  C7       1.0000 0.83060  0.33600  0.69910  Biso   1.000  C
  C8       1.0000 0.89800  0.10030  0.79370  Biso   1.000  C
  O1       1.0000 0.61160  0.40980  0.57740  Biso   1.000  O
  O2       1.0000 0.71260  0.45360  0.51810  Biso   1.000  O
  O3       1.0000 0.93370  0.10470  0.88920  Biso   1.000  O
  O4       1.0000 0.90140  0.03700  0.73830  Biso   1.000  O
  O5       1.0000 0.44000  0.44420  0.58960  Biso   1.000  O
  H1       1.0000 0.39000  0.46900  0.57600  Biso   1.000  H
  F1       1.0000 0.62370  0.22700  0.53140  Biso   1.000  F
  F2       1.0000 0.71710  0.08970  0.64100  Biso   1.000  F
  F3       1.0000 0.96430  0.27780  0.82830  Biso   1.000  F
  F4       1.0000 0.86800  0.41640  0.72300  Biso   1.000  F
  C9       1.0000 0.18610  0.90430  0.56720  Biso   1.000  C
  C10      1.0000 0.24330  0.82570  0.62370  Biso   1.000  C
  C11      1.0000 0.20730  0.74140  0.60460  Biso   1.000  C
  C12      1.0000 0.25690  0.66910  0.66040  Biso   1.000  C
  C13      1.0000 0.34450  0.67960  0.73650  Biso   1.000  C
  C14      1.0000 0.38000  0.76410  0.75570  Biso   1.000  C
  C15      1.0000 0.33060  0.83600  0.69910  Biso   1.000  C
  C16      1.0000 0.39800  0.60030  0.79370  Biso   1.000  C
  O6       1.0000 0.11160  0.90980  0.57740  Biso   1.000  O
  O7       1.0000 0.21260  0.95360  0.51810  Biso   1.000  O
  O8       1.0000 0.43370  0.60470  0.88920  Biso   1.000  O
  O9       1.0000 0.40140  0.53700  0.73830  Biso   1.000  O
  O10      1.0000 0.94000  0.94420  0.58960  Biso   1.000  O
  H2       1.0000 0.89000  0.96900  0.57600  Biso   1.000  H
  F5       1.0000 0.12370  0.72700  0.53140  Biso   1.000  F
  F6       1.0000 0.21710  0.58970  0.64100  Biso   1.000  F
  F7       1.0000 0.46430  0.77780  0.82830  Biso   1.000  F
  F8       1.0000 0.36800  0.91640  0.72300  Biso   1.000  F
  C17      1.0000 0.31390  0.40430  0.93280  Biso   1.000  C
  C18      1.0000 0.25670  0.32570  0.87630  Biso   1.000  C
  C19      1.0000 0.29270  0.24140  0.89540  Biso   1.000  C
  C20      1.0000 0.24310  0.16910  0.83960  Biso   1.000  C
  C21      1.0000 0.15550  0.17960  0.76350  Biso   1.000  C
  C22      1.0000 0.12000  0.26410  0.74430  Biso   1.000  C
  C23      1.0000 0.16940  0.33600  0.80090  Biso   1.000  C
  C24      1.0000 0.10200  0.10030  0.70630  Biso   1.000  C
  O11      1.0000 0.38840  0.40980  0.92260  Biso   1.000  O
  O12      1.0000 0.28740  0.45360  0.98190  Biso   1.000  O
  O13      1.0000 0.06630  0.10470  0.61080  Biso   1.000  O
  O14      1.0000 0.09860  0.03700  0.76170  Biso   1.000  O
  O15      1.0000 0.56000  0.44420  0.91040  Biso   1.000  O
  H3       1.0000 0.61000  0.46900  0.92400  Biso   1.000  H
  F9       1.0000 0.37630  0.22700  0.96860  Biso   1.000  F
  F10      1.0000 0.28290  0.08970  0.85900  Biso   1.000  F
  F11      1.0000 0.03570  0.27780  0.67170  Biso   1.000  F
  F12      1.0000 0.13200  0.41640  0.77700  Biso   1.000  F
  C25      1.0000 0.81390  0.90430  0.93280  Biso   1.000  C
  C26      1.0000 0.75670  0.82570  0.87630  Biso   1.000  C
  C27      1.0000 0.79270  0.74140  0.89540  Biso   1.000  C
  C28      1.0000 0.74310  0.66910  0.83960  Biso   1.000  C
  C29      1.0000 0.65550  0.67960  0.76350  Biso   1.000  C
  C30      1.0000 0.62000  0.76410  0.74430  Biso   1.000  C
  C31      1.0000 0.66940  0.83600  0.80090  Biso   1.000  C
  C32      1.0000 0.60200  0.60030  0.70630  Biso   1.000  C
  O16      1.0000 0.88840  0.90980  0.92260  Biso   1.000  O
  O17      1.0000 0.78740  0.95360  0.98190  Biso   1.000  O
  O18      1.0000 0.56630  0.60470  0.61080  Biso   1.000  O
  O19      1.0000 0.59860  0.53700  0.76170  Biso   1.000  O
  O20      1.0000 0.06000  0.94420  0.91040  Biso   1.000  O
  H4       1.0000 0.11000  0.96900  0.92400  Biso   1.000  H
  F13      1.0000 0.87630  0.72700  0.96860  Biso   1.000  F
  F14      1.0000 0.78290  0.58970  0.85900  Biso   1.000  F
  F15      1.0000 0.53570  0.77780  0.67170  Biso   1.000  F
  F16      1.0000 0.63200  0.91640  0.77700  Biso   1.000  F
  C33      1.0000 0.31390  0.59570  0.43280  Biso   1.000  C
  C34      1.0000 0.25670  0.67430  0.37630  Biso   1.000  C
  C35      1.0000 0.29270  0.75860  0.39540  Biso   1.000  C
  C36      1.0000 0.24310  0.83090  0.33960  Biso   1.000  C
  C37      1.0000 0.15550  0.82040  0.26350  Biso   1.000  C
  C38      1.0000 0.12000  0.73590  0.24430  Biso   1.000  C
  C39      1.0000 0.16940  0.66400  0.30090  Biso   1.000  C
  C40      1.0000 0.10200  0.89970  0.20630  Biso   1.000  C
  O21      1.0000 0.38840  0.59020  0.42260  Biso   1.000  O
  O22      1.0000 0.28740  0.54640  0.48190  Biso   1.000  O
  O23      1.0000 0.06630  0.89530  0.11080  Biso   1.000  O
  O24      1.0000 0.09860  0.96300  0.26170  Biso   1.000  O
  O25      1.0000 0.56000  0.55580  0.41040  Biso   1.000  O
  H5       1.0000 0.61000  0.53100  0.42400  Biso   1.000  H
  F17      1.0000 0.37630  0.77300  0.46860  Biso   1.000  F
  F18      1.0000 0.28290  0.91030  0.35900  Biso   1.000  F
  F19      1.0000 0.03570  0.72220  0.17170  Biso   1.000  F
  F20      1.0000 0.13200  0.58360  0.27700  Biso   1.000  F
  C41      1.0000 0.81390  0.09570  0.43280  Biso   1.000  C
  C42      1.0000 0.75670  0.17430  0.37630  Biso   1.000  C
  C43      1.0000 0.79270  0.25860  0.39540  Biso   1.000  C
  C44      1.0000 0.74310  0.33090  0.33960  Biso   1.000  C
  C45      1.0000 0.65550  0.32040  0.26350  Biso   1.000  C
  C46      1.0000 0.62000  0.23590  0.24430  Biso   1.000  C
  C47      1.0000 0.66940  0.16400  0.30090  Biso   1.000  C
  C48      1.0000 0.60200  0.39970  0.20630  Biso   1.000  C
  O26      1.0000 0.88840  0.09020  0.42260  Biso   1.000  O
  O27      1.0000 0.78740  0.04640  0.48190  Biso   1.000  O
  O28      1.0000 0.56630  0.39530  0.11080  Biso   1.000  O
  O29      1.0000 0.59860  0.46300  0.26170  Biso   1.000  O
  O30      1.0000 0.06000  0.05580  0.41040  Biso   1.000  O
  H6       1.0000 0.11000  0.03100  0.42400  Biso   1.000  H
  F21      1.0000 0.87630  0.27300  0.46860  Biso   1.000  F
  F22      1.0000 0.78290  0.41030  0.35900  Biso   1.000  F
  F23      1.0000 0.53570  0.22220  0.17170  Biso   1.000  F
  F24      1.0000 0.63200  0.08360  0.27700  Biso   1.000  F
  C49      1.0000 0.68610  0.59570  0.06720  Biso   1.000  C
  C50      1.0000 0.74330  0.67430  0.12370  Biso   1.000  C
  C51      1.0000 0.70730  0.75860  0.10460  Biso   1.000  C
  C52      1.0000 0.75690  0.83090  0.16040  Biso   1.000  C
  C53      1.0000 0.84450  0.82040  0.23650  Biso   1.000  C
  C54      1.0000 0.88000  0.73590  0.25570  Biso   1.000  C
  C55      1.0000 0.83060  0.66400  0.19910  Biso   1.000  C
  C56      1.0000 0.89800  0.89970  0.29370  Biso   1.000  C
  O31      1.0000 0.61160  0.59020  0.07740  Biso   1.000  O
  O32      1.0000 0.71260  0.54640  0.01810  Biso   1.000  O
  O33      1.0000 0.93370  0.89530  0.38920  Biso   1.000  O
  O34      1.0000 0.90140  0.96300  0.23830  Biso   1.000  O
  O35      1.0000 0.44000  0.55580  0.08960  Biso   1.000  O
  H7       1.0000 0.39000  0.53100  0.07600  Biso   1.000  H
  F25      1.0000 0.62370  0.77300  0.03140  Biso   1.000  F
  F26      1.0000 0.71710  0.91030  0.14100  Biso   1.000  F
  F27      1.0000 0.96430  0.72220  0.32830  Biso   1.000  F
  F28      1.0000 0.86800  0.58360  0.22300  Biso   1.000  F
  C57      1.0000 0.18610  0.09570  0.06720  Biso   1.000  C
  C58      1.0000 0.24330  0.17430  0.12370  Biso   1.000  C
  C59      1.0000 0.20730  0.25860  0.10460  Biso   1.000  C
  C60      1.0000 0.25690  0.33090  0.16040  Biso   1.000  C
  C61      1.0000 0.34450  0.32040  0.23650  Biso   1.000  C
  C62      1.0000 0.38000  0.23590  0.25570  Biso   1.000  C
  C63      1.0000 0.33060  0.16400  0.19910  Biso   1.000  C
  C64      1.0000 0.39800  0.39970  0.29370  Biso   1.000  C
  O36      1.0000 0.11160  0.09020  0.07740  Biso   1.000  O
  O37      1.0000 0.21260  0.04640  0.01810  Biso   1.000  O
  O38      1.0000 0.43370  0.39530  0.38920  Biso   1.000  O
  O39      1.0000 0.40140  0.46300  0.23830  Biso   1.000  O
  O40      1.0000 0.94000  0.05580  0.08960  Biso   1.000  O
  H8       1.0000 0.89000  0.03100  0.07600  Biso   1.000  H
  F29      1.0000 0.12370  0.27300  0.03140  Biso   1.000  F
  F30      1.0000 0.21710  0.41030  0.14100  Biso   1.000  F
  F31      1.0000 0.46430  0.22220  0.32830  Biso   1.000  F
  F32      1.0000 0.36800  0.08360  0.22300  Biso   1.000  F
  In1      1.0000 0.50000  0.50000  0.50000  Biso   1.000  In
  In2      1.0000 0.00000  0.00000  0.50000  Biso   1.000  In
  In3      1.0000 0.50000  0.50000  0.00000  Biso   1.000  In
  In4      1.0000 0.00000  0.00000  0.00000  Biso   1.000  In
  In5      1.0000 0.50000  0.43551  0.75000  Biso   1.000  In
  In6      1.0000 0.00000  0.93551  0.75000  Biso   1.000  In
  In7      1.0000 0.50000  0.56449  0.25000  Biso   1.000  In
  In8      1.0000 0.00000  0.06449  0.25000  Biso   1.000  In
