data_image0
_cell_length_a       14.9215
_cell_length_b       15.3226
_cell_length_c       15.984
_cell_angle_alpha    72.669
_cell_angle_beta     63.676
_cell_angle_gamma    63.788

_symmetry_space_group_name_H-M    "P 1"
_symmetry_int_tables_number       1

loop_
  _symmetry_equiv_pos_as_xyz
  'x, y, z'

loop_
  _atom_site_label
  _atom_site_occupancy
  _atom_site_fract_x
  _atom_site_fract_y
  _atom_site_fract_z
  _atom_site_thermal_displace_type
  _atom_site_B_iso_or_equiv
  _atom_site_type_symbol
  Zn1      1.0000 0.69815  0.10632  0.15399  Biso   1.000  Zn
  Zn2      1.0000 0.21081  0.99600  0.39022  Biso   1.000  Zn
  Zn3      1.0000 0.31402  0.09747  0.48442  Biso   1.000  Zn
  Zn4      1.0000 0.84251  0.34088  0.35260  Biso   1.000  Zn
  C1       1.0000 0.27870  0.97810  0.66730  Biso   1.000  C
  H1       1.0000 0.29540  0.02340  0.67990  Biso   1.000  H
  C2       1.0000 0.24780  0.91750  0.57790  Biso   1.000  C
  C3       1.0000 0.22700  0.83760  0.64210  Biso   1.000  C
  C4       1.0000 0.23110  0.83300  0.72710  Biso   1.000  C
  C5       1.0000 0.20970  0.82540  0.52540  Biso   1.000  C
  C6       1.0000 0.14720  0.29450  0.50750  Biso   1.000  C
  H2       1.0000 0.19220  0.29810  0.53120  Biso   1.000  H
  C7       1.0000 0.11050  0.20940  0.44540  Biso   1.000  C
  C8       1.0000 0.01940  0.29040  0.43820  Biso   1.000  C
  C9       1.0000 0.99580  0.37610  0.47100  Biso   1.000  C
  C10      1.0000 0.02860  0.17210  0.38650  Biso   1.000  C
  H3       1.0000 0.01410  0.13570  0.36000  Biso   1.000  H
  C11      1.0000 0.36660  0.97190  0.20530  Biso   1.000  C
  H4       1.0000 0.32000  0.94710  0.20500  Biso   1.000  H
  C12      1.0000 0.41690  0.03250  0.28270  Biso   1.000  C
  C13      1.0000 0.50160  0.04000  0.20440  Biso   1.000  C
  C14      1.0000 0.51830  0.01680  0.11940  Biso   1.000  C
  C15      1.0000 0.49570  0.09820  0.31320  Biso   1.000  C
  H5       1.0000 0.51110  0.12780  0.34550  Biso   1.000  H
  C16      1.0000 0.07010  0.85910  0.31800  Biso   1.000  C
  H6       1.0000 0.01940  0.84860  0.38160  Biso   1.000  H
  C17      1.0000 0.00880  0.93290  0.26640  Biso   1.000  C
  H7       1.0000 0.97640  0.99350  0.29350  Biso   1.000  H
  H8       1.0000 0.95130  0.91460  0.27320  Biso   1.000  H
  C18      1.0000 0.07500  0.95190  0.15850  Biso   1.000  C
  H9       1.0000 0.02910  0.00410  0.12710  Biso   1.000  H
  H10      1.0000 0.13310  0.97060  0.14970  Biso   1.000  H
  C19      1.0000 0.11980  0.85510  0.11820  Biso   1.000  C
  H11      1.0000 0.05950  0.83750  0.12890  Biso   1.000  H
  C20      1.0000 0.18730  0.77690  0.16990  Biso   1.000  C
  H12      1.0000 0.24620  0.79430  0.16110  Biso   1.000  H
  H13      1.0000 0.21720  0.71570  0.14440  Biso   1.000  H
  C21      1.0000 0.12100  0.76280  0.27600  Biso   1.000  C
  H14      1.0000 0.06520  0.74080  0.28510  Biso   1.000  H
  H15      1.0000 0.16720  0.71290  0.30830  Biso   1.000  H
  C22      1.0000 0.15190  0.88640  0.32860  Biso   1.000  C
  C23      1.0000 0.17970  0.86720  0.01670  Biso   1.000  C
  C24      1.0000 0.47420  0.20230  0.57550  Biso   1.000  C
  H16      1.0000 0.53780  0.14190  0.56840  Biso   1.000  H
  C25      1.0000 0.45520  0.23900  0.66110  Biso   1.000  C
  H17      1.0000 0.43110  0.19500  0.71630  Biso   1.000  H
  H18      1.0000 0.52250  0.23750  0.65730  Biso   1.000  H
  C26      1.0000 0.37430  0.34060  0.67290  Biso   1.000  C
  H19      1.0000 0.36880  0.36170  0.72710  Biso   1.000  H
  H20      1.0000 0.30460  0.34150  0.68380  Biso   1.000  H
  C27      1.0000 0.40760  0.41070  0.58480  Biso   1.000  C
  H21      1.0000 0.47840  0.40730  0.57560  Biso   1.000  H
  C28      1.0000 0.41900  0.37700  0.49970  Biso   1.000  C
  H22      1.0000 0.44050  0.42160  0.44390  Biso   1.000  H
  H23      1.0000 0.35060  0.37750  0.50730  Biso   1.000  H
  C29      1.0000 0.50420  0.27210  0.48760  Biso   1.000  C
  H24      1.0000 0.50930  0.25000  0.43430  Biso   1.000  H
  H25      1.0000 0.57370  0.27270  0.47530  Biso   1.000  H
  C30      1.0000 0.38260  0.17240  0.58470  Biso   1.000  C
  C31      1.0000 0.33120  0.51360  0.60110  Biso   1.000  C
  C32      1.0000 0.95620  0.48580  0.09780  Biso   1.000  C
  H26      1.0000 0.93250  0.55500  0.10430  Biso   1.000  H
  C33      1.0000 0.89950  0.48750  0.04670  Biso   1.000  C
  H27      1.0000 0.82330  0.51950  0.07950  Biso   1.000  H
  H28      1.0000 0.91230  0.42070  0.04300  Biso   1.000  H
  C34      1.0000 0.06630  0.45730  0.05530  Biso   1.000  C
  H29      1.0000 0.09730  0.38720  0.05250  Biso   1.000  H
  H30      1.0000 0.09390  0.47080  0.09280  Biso   1.000  H
  C35      1.0000 0.92530  0.43730  0.19720  Biso   1.000  C
  N1       1.0000 0.26030  0.90590  0.73300  Biso   1.000  N
  N2       1.0000 0.27430  0.98900  0.58160  Biso   1.000  N
  N3       1.0000 0.20090  0.77830  0.61290  Biso   1.000  N
  N4       1.0000 0.23480  0.90740  0.50190  Biso   1.000  N
  N5       1.0000 0.20200  0.75720  0.79500  Biso   1.000  N
  H31      1.0000 0.24410  0.73040  0.82680  Biso   1.000  H
  H32      1.0000 0.13670  0.78240  0.83330  Biso   1.000  H
  N6       1.0000 0.06810  0.37170  0.50540  Biso   1.000  N
  N7       1.0000 0.17690  0.20770  0.48090  Biso   1.000  N
  N8       1.0000 0.96780  0.26360  0.40110  Biso   1.000  N
  N9       1.0000 0.11380  0.13550  0.41310  Biso   1.000  N
  N10      1.0000 0.91640  0.45630  0.46510  Biso   1.000  N
  H33      1.0000 0.90770  0.50820  0.48270  Biso   1.000  H
  H34      1.0000 0.87210  0.45780  0.44350  Biso   1.000  H
  N11      1.0000 0.44780  0.97870  0.12350  Biso   1.000  N
  N12      1.0000 0.34630  0.99680  0.28640  Biso   1.000  N
  N13      1.0000 0.55600  0.08150  0.22540  Biso   1.000  N
  N14      1.0000 0.41030  0.06990  0.35370  Biso   1.000  N
  N15      1.0000 0.59090  0.02920  0.03760  Biso   1.000  N
  H35      1.0000 0.59360  0.01390  0.98880  Biso   1.000  H
  H36      1.0000 0.63610  0.05280  0.03250  Biso   1.000  H
  O1       1.0000 0.14770  0.86170  0.95920  Biso   1.000  O
  O2       1.0000 0.26660  0.88520  0.98530  Biso   1.000  O
  O3       1.0000 0.12440  0.95920  0.35480  Biso   1.000  O
  O4       1.0000 0.24850  0.81760  0.31960  Biso   1.000  O
  O5       1.0000 0.40120  0.14180  0.51150  Biso   1.000  O
  O6       1.0000 0.30220  0.17790  0.65710  Biso   1.000  O
  O7       1.0000 0.26760  0.55820  0.55470  Biso   1.000  O
  O8       1.0000 0.31790  0.54940  0.66780  Biso   1.000  O
  O9       1.0000 0.91380  0.35120  0.21190  Biso   1.000  O
  O10      1.0000 0.90360  0.47380  0.26700  Biso   1.000  O
  Zn5      1.0000 0.30185  0.89368  0.84601  Biso   1.000  Zn
  Zn6      1.0000 0.78919  0.00400  0.60978  Biso   1.000  Zn
  Zn7      1.0000 0.68598  0.90253  0.51558  Biso   1.000  Zn
  Zn8      1.0000 0.15749  0.65912  0.64740  Biso   1.000  Zn
  C36      1.0000 0.72130  0.02190  0.33270  Biso   1.000  C
  H37      1.0000 0.70460  0.97660  0.32010  Biso   1.000  H
  C37      1.0000 0.75220  0.08250  0.42210  Biso   1.000  C
  C38      1.0000 0.77300  0.16240  0.35790  Biso   1.000  C
  C39      1.0000 0.76890  0.16700  0.27290  Biso   1.000  C
  C40      1.0000 0.79030  0.17460  0.47460  Biso   1.000  C
  C41      1.0000 0.85280  0.70550  0.49250  Biso   1.000  C
  H38      1.0000 0.80780  0.70190  0.46880  Biso   1.000  H
  C42      1.0000 0.88950  0.79060  0.55460  Biso   1.000  C
  C43      1.0000 0.98060  0.70960  0.56180  Biso   1.000  C
  C44      1.0000 0.00420  0.62390  0.52900  Biso   1.000  C
  C45      1.0000 0.97140  0.82790  0.61350  Biso   1.000  C
  H39      1.0000 0.98590  0.86430  0.64000  Biso   1.000  H
  C46      1.0000 0.63340  0.02810  0.79470  Biso   1.000  C
  H40      1.0000 0.68000  0.05290  0.79500  Biso   1.000  H
  C47      1.0000 0.58310  0.96750  0.71730  Biso   1.000  C
  C48      1.0000 0.49840  0.96000  0.79560  Biso   1.000  C
  C49      1.0000 0.48170  0.98320  0.88060  Biso   1.000  C
  C50      1.0000 0.50430  0.90180  0.68680  Biso   1.000  C
  H41      1.0000 0.48890  0.87220  0.65450  Biso   1.000  H
  C51      1.0000 0.92990  0.14090  0.68200  Biso   1.000  C
  H42      1.0000 0.98060  0.15140  0.61840  Biso   1.000  H
  C52      1.0000 0.99120  0.06710  0.73360  Biso   1.000  C
  H43      1.0000 0.02360  0.00650  0.70650  Biso   1.000  H
  H44      1.0000 0.04870  0.08540  0.72680  Biso   1.000  H
  C53      1.0000 0.92500  0.04810  0.84150  Biso   1.000  C
  H45      1.0000 0.97090  0.99590  0.87290  Biso   1.000  H
  H46      1.0000 0.86690  0.02940  0.85030  Biso   1.000  H
  C54      1.0000 0.88020  0.14490  0.88180  Biso   1.000  C
  H47      1.0000 0.94050  0.16250  0.87110  Biso   1.000  H
  C55      1.0000 0.81270  0.22310  0.83010  Biso   1.000  C
  H48      1.0000 0.75380  0.20570  0.83890  Biso   1.000  H
  H49      1.0000 0.78280  0.28430  0.85560  Biso   1.000  H
  C56      1.0000 0.87900  0.23720  0.72400  Biso   1.000  C
  H50      1.0000 0.93480  0.25920  0.71490  Biso   1.000  H
  H51      1.0000 0.83280  0.28710  0.69170  Biso   1.000  H
  C57      1.0000 0.84810  0.11360  0.67140  Biso   1.000  C
  C58      1.0000 0.82030  0.13280  0.98330  Biso   1.000  C
  C59      1.0000 0.52580  0.79770  0.42450  Biso   1.000  C
  H52      1.0000 0.46220  0.85810  0.43160  Biso   1.000  H
  C60      1.0000 0.54480  0.76100  0.33890  Biso   1.000  C
  H53      1.0000 0.56890  0.80500  0.28370  Biso   1.000  H
  H54      1.0000 0.47750  0.76250  0.34270  Biso   1.000  H
  C61      1.0000 0.62570  0.65940  0.32710  Biso   1.000  C
  H55      1.0000 0.63120  0.63830  0.27290  Biso   1.000  H
  H56      1.0000 0.69540  0.65850  0.31620  Biso   1.000  H
  C62      1.0000 0.59240  0.58930  0.41520  Biso   1.000  C
  H57      1.0000 0.52160  0.59270  0.42440  Biso   1.000  H
  C63      1.0000 0.58100  0.62300  0.50030  Biso   1.000  C
  H58      1.0000 0.55950  0.57840  0.55610  Biso   1.000  H
  H59      1.0000 0.64940  0.62250  0.49270  Biso   1.000  H
  C64      1.0000 0.49580  0.72790  0.51240  Biso   1.000  C
  H60      1.0000 0.49070  0.75000  0.56570  Biso   1.000  H
  H61      1.0000 0.42630  0.72730  0.52470  Biso   1.000  H
  C65      1.0000 0.61740  0.82760  0.41530  Biso   1.000  C
  C66      1.0000 0.66880  0.48640  0.39890  Biso   1.000  C
  C67      1.0000 0.04380  0.51420  0.90220  Biso   1.000  C
  H62      1.0000 0.06750  0.44500  0.89570  Biso   1.000  H
  C68      1.0000 0.10050  0.51250  0.95330  Biso   1.000  C
  H63      1.0000 0.17670  0.48050  0.92050  Biso   1.000  H
  H64      1.0000 0.08770  0.57930  0.95700  Biso   1.000  H
  C69      1.0000 0.93370  0.54270  0.94470  Biso   1.000  C
  H65      1.0000 0.90270  0.61280  0.94750  Biso   1.000  H
  H66      1.0000 0.90610  0.52920  0.90720  Biso   1.000  H
  C70      1.0000 0.07470  0.56270  0.80280  Biso   1.000  C
  N16      1.0000 0.73970  0.09410  0.26700  Biso   1.000  N
  N17      1.0000 0.72570  0.01100  0.41840  Biso   1.000  N
  N18      1.0000 0.79910  0.22170  0.38710  Biso   1.000  N
  N19      1.0000 0.76520  0.09260  0.49810  Biso   1.000  N
  N20      1.0000 0.79800  0.24280  0.20500  Biso   1.000  N
  H67      1.0000 0.75590  0.26960  0.17320  Biso   1.000  H
  H68      1.0000 0.86330  0.21760  0.16670  Biso   1.000  H
  N21      1.0000 0.93190  0.62830  0.49460  Biso   1.000  N
  N22      1.0000 0.82310  0.79230  0.51910  Biso   1.000  N
  N23      1.0000 0.03220  0.73640  0.59890  Biso   1.000  N
  N24      1.0000 0.88620  0.86450  0.58690  Biso   1.000  N
  N25      1.0000 0.08360  0.54370  0.53490  Biso   1.000  N
  H69      1.0000 0.09230  0.49180  0.51730  Biso   1.000  H
  H70      1.0000 0.12790  0.54220  0.55650  Biso   1.000  H
  N26      1.0000 0.55220  0.02130  0.87650  Biso   1.000  N
  N27      1.0000 0.65370  0.00320  0.71360  Biso   1.000  N
  N28      1.0000 0.44400  0.91850  0.77460  Biso   1.000  N
  N29      1.0000 0.58970  0.93010  0.64630  Biso   1.000  N
  N30      1.0000 0.40910  0.97080  0.96240  Biso   1.000  N
  H71      1.0000 0.40640  0.98610  0.01120  Biso   1.000  H
  H72      1.0000 0.36390  0.94720  0.96750  Biso   1.000  H
  O11      1.0000 0.85230  0.13830  0.04080  Biso   1.000  O
  O12      1.0000 0.73340  0.11480  0.01470  Biso   1.000  O
  O13      1.0000 0.87560  0.04080  0.64520  Biso   1.000  O
  O14      1.0000 0.75150  0.18240  0.68040  Biso   1.000  O
  O15      1.0000 0.59880  0.85820  0.48850  Biso   1.000  O
  O16      1.0000 0.69780  0.82210  0.34290  Biso   1.000  O
  O17      1.0000 0.73240  0.44180  0.44530  Biso   1.000  O
  O18      1.0000 0.68210  0.45060  0.33220  Biso   1.000  O
  O19      1.0000 0.08620  0.64880  0.78810  Biso   1.000  O
  O20      1.0000 0.09640  0.52620  0.73300  Biso   1.000  O
