data_ANENIR_clean
_audit_creation_date              2014-07-02
_audit_creation_method            'Materials Studio'
_symmetry_space_group_name_H-M    'P1'
_symmetry_Int_Tables_number       1
_symmetry_cell_setting            triclinic
loop_
_symmetry_equiv_pos_as_xyz
  x,y,z
_cell_length_a                    9.7792
_cell_length_b                    11.3331
_cell_length_c                    15.9240
_cell_angle_alpha                 71.0420
_cell_angle_beta                  85.2900
_cell_angle_gamma                 70.9070
loop_
_atom_site_label
_atom_site_type_symbol
_atom_site_fract_x
_atom_site_fract_y
_atom_site_fract_z
_atom_site_U_iso_or_equiv
_atom_site_adp_type
_atom_site_occupancy
La1    La    0.46104   0.09449   0.91594   0.01267  Uiso   1.00
La2    La    0.90113   0.99316   0.93722   0.01267  Uiso   1.00
H1     H     0.70900   0.72800   0.45200   0.01267  Uiso   1.00
H2     H     0.54450   0.81610   0.57600   0.01267  Uiso   1.00
H3     H     0.52050   0.88980   0.69890   0.01267  Uiso   1.00
H4     H     0.93310   0.86100   0.69700   0.01267  Uiso   1.00
H5     H     0.96160   0.78440   0.57580   0.01267  Uiso   1.00
H6     H     0.66280   0.96710   0.39840   0.01267  Uiso   1.00
H7     H     0.76790   0.98130   0.31860   0.01267  Uiso   1.00
H8     H     0.67240   0.88970   0.33130   0.01267  Uiso   1.00
H9     H     0.97400   0.58000   0.53500   0.01267  Uiso   1.00
H10    H     0.66300   0.51770   0.50840   0.01267  Uiso   1.00
H11    H     0.55200   0.38360   0.62110   0.01267  Uiso   1.00
H12    H     0.84030   0.34670   0.80120   0.01267  Uiso   1.00
H13    H     0.94640   0.48010   0.69090   0.01267  Uiso   1.00
H14    H     0.99530   0.35750   0.47820   0.01267  Uiso   1.00
H15    H     0.07590   0.43270   0.40100   0.01267  Uiso   1.00
H16    H     0.08920   0.43460   0.49800   0.01267  Uiso   1.00
H17    H     0.39400   0.55400   0.36600   0.01267  Uiso   1.00
H18    H     0.64960   0.60960   0.33880   0.01267  Uiso   1.00
H19    H     0.78400   0.71020   0.23740   0.01267  Uiso   1.00
H20    H     0.53400   0.73160   0.04440   0.01267  Uiso   1.00
H21    H     0.41560   0.60730   0.14660   0.01267  Uiso   1.00
H22    H     0.20890   0.71740   0.26950   0.01267  Uiso   1.00
H23    H     0.13460   0.66560   0.21170   0.01267  Uiso   1.00
H24    H     0.10600   0.63470   0.31370   0.01267  Uiso   1.00
H25    H     0.44600   0.33000   0.38900   0.01267  Uiso   1.00
H26    H     0.76490   0.32630   0.26210   0.01267  Uiso   1.00
H27    H     0.82540   0.24590   0.14360   0.01267  Uiso   1.00
H28    H     0.42880   0.20700   0.15580   0.01267  Uiso   1.00
H29    H     0.38420   0.27130   0.27810   0.01267  Uiso   1.00
H30    H     0.73360   0.16730   0.43400   0.01267  Uiso   1.00
H31    H     0.77490   0.22790   0.50000   0.01267  Uiso   1.00
H32    H     0.62480   0.20390   0.50650   0.01267  Uiso   1.00
H33    H     0.04900   0.14700   0.39700   0.01267  Uiso   1.00
H34    H     0.97240   0.03760   0.57280   0.01267  Uiso   1.00
H35    H     0.96650   0.06860   0.71020   0.01267  Uiso   1.00
H36    H     0.34380   0.14510   0.66160   0.01267  Uiso   1.00
H37    H     0.34970   0.11400   0.52420   0.01267  Uiso   1.00
H38    H     0.02530   0.32140   0.32530   0.01267  Uiso   1.00
H39    H     0.15730   0.31520   0.26200   0.01267  Uiso   1.00
H40    H     0.06600   0.22080   0.27190   0.01267  Uiso   1.00
H41    H     0.08700   0.94200   0.45600   0.01267  Uiso   1.00
H42    H     0.40520   0.95620   0.31110   0.01267  Uiso   1.00
H43    H     0.41720   0.95770   0.16490   0.01267  Uiso   1.00
H44    H     0.99430   0.98620   0.17010   0.01267  Uiso   1.00
H45    H     0.99030   0.00770   0.30950   0.01267  Uiso   1.00
H46    H     0.24620   0.73170   0.48440   0.01267  Uiso   1.00
H47    H     0.39570   0.72080   0.43820   0.01267  Uiso   1.00
H48    H     0.38710   0.69240   0.54130   0.01267  Uiso   1.00
C1     C     0.77340   0.74050   0.48750   0.01267  Uiso   1.00
C2     C     0.75980   0.78830   0.56400   0.01267  Uiso   1.00
C3     C     0.62430   0.82270   0.59990   0.01267  Uiso   1.00
C4     C     0.61080   0.86800   0.67370   0.01267  Uiso   1.00
C5     C     0.72120   0.88090   0.70880   0.01267  Uiso   1.00
C6     C     0.85510   0.85100   0.67350   0.01267  Uiso   1.00
C7     C     0.87080   0.80490   0.60060   0.01267  Uiso   1.00
C8     C     0.70300   0.93730   0.78650   0.01267  Uiso   1.00
C9     C     0.72600   0.92180   0.36150   0.01267  Uiso   1.00
C10    C     0.87820   0.59700   0.51260   0.01267  Uiso   1.00
C11    C     0.81360   0.50790   0.58690   0.01267  Uiso   1.00
C12    C     0.69920   0.48350   0.56660   0.01267  Uiso   1.00
C13    C     0.63050   0.40360   0.63500   0.01267  Uiso   1.00
C14    C     0.68470   0.35700   0.72280   0.01267  Uiso   1.00
C15    C     0.80300   0.38170   0.74320   0.01267  Uiso   1.00
C16    C     0.86830   0.45960   0.67690   0.01267  Uiso   1.00
C17    C     0.61290   0.27080   0.79240   0.01267  Uiso   1.00
C18    C     0.02600   0.43420   0.45530   0.01267  Uiso   1.00
C19    C     0.43440   0.51430   0.32060   0.01267  Uiso   1.00
C20    C     0.51730   0.59460   0.25250   0.01267  Uiso   1.00
C21    C     0.62910   0.63090   0.27870   0.01267  Uiso   1.00
C22    C     0.70540   0.69500   0.21870   0.01267  Uiso   1.00
C23    C     0.66960   0.73870   0.13010   0.01267  Uiso   1.00
C24    C     0.55930   0.70450   0.10430   0.01267  Uiso   1.00
C25    C     0.48680   0.63140   0.16570   0.01267  Uiso   1.00
C26    C     0.74180   0.82040   0.06270   0.01267  Uiso   1.00
C27    C     0.17690   0.64610   0.26900   0.01267  Uiso   1.00
C28    C     0.51660   0.36910   0.35670   0.01267  Uiso   1.00
C29    C     0.56940   0.30420   0.28240   0.01267  Uiso   1.00
C30    C     0.69950   0.29760   0.24140   0.01267  Uiso   1.00
C31    C     0.73660   0.24960   0.17040   0.01267  Uiso   1.00
C32    C     0.63570   0.20620   0.13940   0.01267  Uiso   1.00
C33    C     0.50120   0.22470   0.17920   0.01267  Uiso   1.00
C34    C     0.47250   0.26730   0.25060   0.01267  Uiso   1.00
C35    C     0.67200   0.15260   0.06500   0.01267  Uiso   1.00
C36    C     0.69700   0.22860   0.46660   0.01267  Uiso   1.00
C37    C     0.12980   0.08230   0.43480   0.01267  Uiso   1.00
C38    C     0.16160   0.07270   0.53490   0.01267  Uiso   1.00
C39    C     0.04680   0.05910   0.59060   0.01267  Uiso   1.00
C40    C     0.04330   0.07770   0.67290   0.01267  Uiso   1.00
C41    C     0.15460   0.10990   0.69950   0.01267  Uiso   1.00
C42    C     0.26930   0.12350   0.64380   0.01267  Uiso   1.00
C43    C     0.27290   0.10490   0.56150   0.01267  Uiso   1.00
C44    C     0.15030   0.12180   0.79080   0.01267  Uiso   1.00
C45    C     0.10400   0.26400   0.30250   0.01267  Uiso   1.00
C46    C     0.18020   0.94400   0.43340   0.01267  Uiso   1.00
C47    C     0.19980   0.95490   0.33190   0.01267  Uiso   1.00
C48    C     0.32420   0.95760   0.28360   0.01267  Uiso   1.00
C49    C     0.33080   0.96230   0.19490   0.01267  Uiso   1.00
C50    C     0.20570   0.97400   0.15130   0.01267  Uiso   1.00
C51    C     0.07770   0.98220   0.19660   0.01267  Uiso   1.00
C52    C     0.07910   0.98400   0.28300   0.01267  Uiso   1.00
C53    C     0.21190   0.96350   0.05840   0.01267  Uiso   1.00
C54    C     0.33800   0.74530   0.48520   0.01267  Uiso   1.00
O1     O     0.57490   0.97360   0.81260   0.01267  Uiso   1.00
O2     O     0.81000   0.94370   0.81510   0.01267  Uiso   1.00
O3     O     0.83770   0.81480   0.41470   0.01267  Uiso   1.00
O4     O     0.48750   0.28740   0.78170   0.01267  Uiso   1.00
O5     O     0.68940   0.18640   0.85710   0.01267  Uiso   1.00
O6     O     0.89250   0.55860   0.43700   0.01267  Uiso   1.00
O7     O     0.87470   0.81100   0.07490   0.01267  Uiso   1.00
O8     O     0.67810   0.89950   0.98910   0.01267  Uiso   1.00
O9     O     0.29960   0.52580   0.28710   0.01267  Uiso   1.00
O10    O     0.79530   0.12500   0.03760   0.01267  Uiso   1.00
O11    O     0.56390   0.13450   0.03300   0.01267  Uiso   1.00
O12    O     0.63600   0.35420   0.40780   0.01267  Uiso   1.00
O13    O     0.03870   0.11640   0.83450   0.01267  Uiso   1.00
O14    O     0.25700   0.14290   0.81670   0.01267  Uiso   1.00
O15    O     0.20090   0.16460   0.37700   0.01267  Uiso   1.00
O16    O     0.32290   0.97220   0.01430   0.01267  Uiso   1.00
O17    O     0.11110   0.94600   0.03130   0.01267  Uiso   1.00
O18    O     0.31580   0.87620   0.47360   0.01267  Uiso   1.00
