data_ANENEN_clean
_audit_creation_date              2014-07-02
_audit_creation_method            'Materials Studio'
_symmetry_space_group_name_H-M    'P1'
_symmetry_Int_Tables_number       1
_symmetry_cell_setting            triclinic
loop_
_symmetry_equiv_pos_as_xyz
  x,y,z
_cell_length_a                    9.7990
_cell_length_b                    11.2720
_cell_length_c                    15.9350
_cell_angle_alpha                 70.5170
_cell_angle_beta                  84.6680
_cell_angle_gamma                 71.0460
loop_
_atom_site_label
_atom_site_type_symbol
_atom_site_fract_x
_atom_site_fract_y
_atom_site_fract_z
_atom_site_U_iso_or_equiv
_atom_site_adp_type
_atom_site_occupancy
La1    La    0.78091   0.55068   0.98927   0.01267  Uiso   1.00
La2    La    0.21909   0.44932   0.01073   0.01267  Uiso   1.00
H1     H     0.89950   0.24770   0.65420   0.01267  Uiso   1.00
H2     H     0.85290   0.31710   0.77770   0.01267  Uiso   1.00
H3     H     0.25250   0.33910   0.76810   0.01267  Uiso   1.00
H4     H     0.30150   0.26040   0.64980   0.01267  Uiso   1.00
H5     H     0.02320   0.95130   0.58300   0.01267  Uiso   1.00
H6     H     0.89250   0.84120   0.69000   0.01267  Uiso   1.00
H7     H     0.15230   0.81550   0.87760   0.01267  Uiso   1.00
H8     H     0.27150   0.93970   0.77130   0.01267  Uiso   1.00
H9     H     0.00010   0.34680   0.39620   0.01267  Uiso   1.00
H10    H     0.97530   0.42870   0.46190   0.01267  Uiso   1.00
H11    H     0.08900   0.44380   0.38630   0.01267  Uiso   1.00
H12    H     0.42450   0.88330   0.58540   0.01267  Uiso   1.00
H13    H     0.34080   0.82640   0.53740   0.01267  Uiso   1.00
H14    H     0.43000   0.91830   0.48160   0.01267  Uiso   1.00
H15    H     0.72530   0.44430   0.36950   0.01267  Uiso   1.00
H16    H     0.72560   0.44050   0.22530   0.01267  Uiso   1.00
H17    H     0.31880   0.43250   0.25100   0.01267  Uiso   1.00
H18    H     0.31870   0.43670   0.39480   0.01267  Uiso   1.00
H19    H     0.10050   0.75230   0.34580   0.01267  Uiso   1.00
H20    H     0.14710   0.68290   0.22230   0.01267  Uiso   1.00
H21    H     0.74750   0.66090   0.23190   0.01267  Uiso   1.00
H22    H     0.69850   0.73960   0.35020   0.01267  Uiso   1.00
H23    H     0.97680   0.04870   0.41700   0.01267  Uiso   1.00
H24    H     0.10750   0.15880   0.31000   0.01267  Uiso   1.00
H25    H     0.84770   0.18450   0.12240   0.01267  Uiso   1.00
H26    H     0.72850   0.06030   0.22870   0.01267  Uiso   1.00
H27    H     0.99990   0.65320   0.60380   0.01267  Uiso   1.00
H28    H     0.02470   0.57130   0.53810   0.01267  Uiso   1.00
H29    H     0.91100   0.55620   0.61370   0.01267  Uiso   1.00
H30    H     0.57550   0.11670   0.41460   0.01267  Uiso   1.00
H31    H     0.65920   0.17360   0.46260   0.01267  Uiso   1.00
H32    H     0.57000   0.08170   0.51840   0.01267  Uiso   1.00
H33    H     0.27470   0.55570   0.63050   0.01267  Uiso   1.00
H34    H     0.27440   0.55950   0.77470   0.01267  Uiso   1.00
H35    H     0.68120   0.56750   0.74900   0.01267  Uiso   1.00
H36    H     0.68130   0.56330   0.60520   0.01267  Uiso   1.00
C1     C     0.15700   0.18470   0.56470   0.01267  Uiso   1.00
C2     C     0.10580   0.24430   0.63900   0.01267  Uiso   1.00
C3     C     0.97210   0.26440   0.67780   0.01267  Uiso   1.00
C4     C     0.94250   0.30860   0.75100   0.01267  Uiso   1.00
C5     C     0.04530   0.33970   0.78360   0.01267  Uiso   1.00
C6     C     0.18100   0.32010   0.74540   0.01267  Uiso   1.00
C7     C     0.21010   0.27310   0.67450   0.01267  Uiso   1.00
C8     C     0.01720   0.39360   0.85960   0.01267  Uiso   1.00
C9     C     0.25060   0.04020   0.60020   0.01267  Uiso   1.00
C10    C     0.15970   0.95970   0.66560   0.01267  Uiso   1.00
C11    C     0.04770   0.92670   0.64280   0.01267  Uiso   1.00
C12    C     0.97100   0.85790   0.70680   0.01267  Uiso   1.00
C13    C     0.01100   0.81350   0.79610   0.01267  Uiso   1.00
C14    C     0.12380   0.84450   0.81820   0.01267  Uiso   1.00
C15    C     0.19680   0.91830   0.75410   0.01267  Uiso   1.00
C16    C     0.93760   0.72940   0.86550   0.01267  Uiso   1.00
C17    C     0.04600   0.38300   0.42800   0.01267  Uiso   1.00
C18    C     0.37100   0.90100   0.53300   0.01267  Uiso   1.00
C19    C     0.53700   0.43610   0.49160   0.01267  Uiso   1.00
C20    C     0.52140   0.43940   0.39740   0.01267  Uiso   1.00
C21    C     0.64370   0.44100   0.34610   0.01267  Uiso   1.00
C22    C     0.64400   0.43780   0.25980   0.01267  Uiso   1.00
C23    C     0.52590   0.43090   0.22500   0.01267  Uiso   1.00
C24    C     0.40130   0.43320   0.27520   0.01267  Uiso   1.00
C25    C     0.40140   0.43650   0.36100   0.01267  Uiso   1.00
C26    C     0.52960   0.41890   0.13360   0.01267  Uiso   1.00
C27    C     0.60700   0.22750   0.55630   0.01267  Uiso   1.00
C28    C     0.84300   0.81530   0.43530   0.01267  Uiso   1.00
C29    C     0.89420   0.75570   0.36100   0.01267  Uiso   1.00
C30    C     0.02790   0.73560   0.32220   0.01267  Uiso   1.00
C31    C     0.05750   0.69140   0.24900   0.01267  Uiso   1.00
C32    C     0.95470   0.66030   0.21640   0.01267  Uiso   1.00
C33    C     0.81900   0.67990   0.25460   0.01267  Uiso   1.00
C34    C     0.78990   0.72690   0.32550   0.01267  Uiso   1.00
C35    C     0.98280   0.60640   0.14040   0.01267  Uiso   1.00
C36    C     0.74940   0.95980   0.39980   0.01267  Uiso   1.00
C37    C     0.84030   0.04030   0.33440   0.01267  Uiso   1.00
C38    C     0.95230   0.07330   0.35720   0.01267  Uiso   1.00
C39    C     0.02900   0.14210   0.29320   0.01267  Uiso   1.00
C40    C     0.98900   0.18650   0.20390   0.01267  Uiso   1.00
C41    C     0.87620   0.15550   0.18180   0.01267  Uiso   1.00
C42    C     0.80320   0.08170   0.24590   0.01267  Uiso   1.00
C43    C     0.06240   0.27060   0.13450   0.01267  Uiso   1.00
C44    C     0.95400   0.61700   0.57200   0.01267  Uiso   1.00
C45    C     0.62900   0.09900   0.46700   0.01267  Uiso   1.00
C46    C     0.46300   0.56390   0.50840   0.01267  Uiso   1.00
C47    C     0.47860   0.56060   0.60260   0.01267  Uiso   1.00
C48    C     0.35630   0.55900   0.65390   0.01267  Uiso   1.00
C49    C     0.35600   0.56220   0.74020   0.01267  Uiso   1.00
C50    C     0.47410   0.56910   0.77500   0.01267  Uiso   1.00
C51    C     0.59870   0.56680   0.72480   0.01267  Uiso   1.00
C52    C     0.59860   0.56350   0.63900   0.01267  Uiso   1.00
C53    C     0.47040   0.58110   0.86640   0.01267  Uiso   1.00
C54    C     0.39300   0.77250   0.44370   0.01267  Uiso   1.00
O1     O     0.89040   0.42600   0.88660   0.01267  Uiso   1.00
O2     O     0.12220   0.40810   0.88960   0.01267  Uiso   1.00
O3     O     0.80870   0.74380   0.85440   0.01267  Uiso   1.00
O4     O     0.00660   0.64520   0.93450   0.01267  Uiso   1.00
O5     O     0.15600   0.27680   0.48740   0.01267  Uiso   1.00
O6     O     0.24400   0.01700   0.52390   0.01267  Uiso   1.00
O7     O     0.63910   0.42530   0.08830   0.01267  Uiso   1.00
O8     O     0.42390   0.39990   0.10770   0.01267  Uiso   1.00
O9     O     0.64160   0.34860   0.54190   0.01267  Uiso   1.00
O10    O     0.10960   0.57400   0.11340   0.01267  Uiso   1.00
O11    O     0.87780   0.59190   0.11040   0.01267  Uiso   1.00
O12    O     0.19130   0.25620   0.14560   0.01267  Uiso   1.00
O13    O     0.99340   0.35480   0.06550   0.01267  Uiso   1.00
O14    O     0.84400   0.72320   0.51260   0.01267  Uiso   1.00
O15    O     0.75600   0.98300   0.47610   0.01267  Uiso   1.00
O16    O     0.36090   0.57470   0.91170   0.01267  Uiso   1.00
O17    O     0.57610   0.60010   0.89230   0.01267  Uiso   1.00
O18    O     0.35840   0.65140   0.45810   0.01267  Uiso   1.00
