data_ANEPIT_clean
_audit_creation_date              2014-07-02
_audit_creation_method            'Materials Studio'
_symmetry_space_group_name_H-M    'P1'
_symmetry_Int_Tables_number       1
_symmetry_cell_setting            triclinic
loop_
_symmetry_equiv_pos_as_xyz
  x,y,z
_cell_length_a                    14.3810
_cell_length_b                    16.1730
_cell_length_c                    21.0490
_cell_angle_alpha                 89.8800
_cell_angle_beta                  89.8800
_cell_angle_gamma                 65.1000
loop_
_atom_site_label
_atom_site_type_symbol
_atom_site_fract_x
_atom_site_fract_y
_atom_site_fract_z
_atom_site_U_iso_or_equiv
_atom_site_adp_type
_atom_site_occupancy
Co1    Co    0.80012   0.23484   0.43895   0.01267  Uiso   1.00
Co2    Co    0.57241   0.44542   0.43668   0.01267  Uiso   1.00
Co3    Co    0.06225   0.94164   0.06520   0.01267  Uiso   1.00
Co4    Co    0.30188   0.74291   0.06509   0.01267  Uiso   1.00
Co5    Co    0.19988   0.76516   0.56105   0.01267  Uiso   1.00
Co6    Co    0.42759   0.55458   0.56332   0.01267  Uiso   1.00
Co7    Co    0.93775   0.05836   0.93480   0.01267  Uiso   1.00
Co8    Co    0.69812   0.25709   0.93491   0.01267  Uiso   1.00
H1     H     0.63510   0.09810   0.37050   0.01267  Uiso   1.00
H2     H     0.43700   0.32690   0.28780   0.01267  Uiso   1.00
H3     H     0.37670   0.24260   0.22590   0.01267  Uiso   1.00
H4     H     0.46870   0.89410   0.12770   0.01267  Uiso   1.00
H5     H     0.19590   0.08070   0.18350   0.01267  Uiso   1.00
H6     H     0.27560   0.15270   0.24090   0.01267  Uiso   1.00
H7     H     0.82040   0.97690   0.46110   0.01267  Uiso   1.00
H8     H     0.60660   0.07380   0.59640   0.01267  Uiso   1.00
H9     H     0.60010   0.93310   0.60210   0.01267  Uiso   1.00
H10    H     0.79690   0.57160   0.58240   0.01267  Uiso   1.00
H11    H     0.52590   0.70360   0.49660   0.01267  Uiso   1.00
H12    H     0.55080   0.83570   0.49630   0.01267  Uiso   1.00
H13    H     0.92090   0.35270   0.29010   0.01267  Uiso   1.00
H14    H     0.77550   0.58160   0.38950   0.01267  Uiso   1.00
H15    H     0.86220   0.64920   0.33450   0.01267  Uiso   1.00
H16    H     0.19470   0.61680   0.19710   0.01267  Uiso   1.00
H17    H     0.90750   0.78770   0.15500   0.01267  Uiso   1.00
H18    H     0.84820   0.69710   0.21080   0.01267  Uiso   1.00
H19    H     0.32350   0.06030   0.97480   0.01267  Uiso   1.00
H20    H     0.02250   0.20400   0.00270   0.01267  Uiso   1.00
H21    H     0.04560   0.33600   0.00700   0.01267  Uiso   1.00
H22    H     0.29240   0.49770   0.07020   0.01267  Uiso   1.00
H23    H     0.12460   0.55790   0.91280   0.01267  Uiso   1.00
H24    H     0.11950   0.41780   0.91660   0.01267  Uiso   1.00
H25    H     0.83260   0.05920   0.36930   0.01267  Uiso   1.00
H26    H     0.94990   0.94770   0.30810   0.01267  Uiso   1.00
H27    H     0.13190   0.07730   0.31850   0.01267  Uiso   1.00
H28    H     0.01000   0.18560   0.38020   0.01267  Uiso   1.00
H29    H     0.16730   0.95630   0.23910   0.01267  Uiso   1.00
H30    H     0.10040   0.90080   0.23800   0.01267  Uiso   1.00
H31    H     0.18270   0.81730   0.32470   0.01267  Uiso   1.00
H32    H     0.23680   0.88170   0.33850   0.01267  Uiso   1.00
H33    H     0.28080   0.77450   0.22630   0.01267  Uiso   1.00
H34    H     0.34420   0.82650   0.25160   0.01267  Uiso   1.00
H35    H     0.57360   0.62120   0.38880   0.01267  Uiso   1.00
H36    H     0.48240   0.74760   0.32860   0.01267  Uiso   1.00
H37    H     0.29090   0.63800   0.28560   0.01267  Uiso   1.00
H38    H     0.38910   0.51080   0.34360   0.01267  Uiso   1.00
H39    H     0.50990   0.70230   0.13530   0.01267  Uiso   1.00
H40    H     0.63490   0.58910   0.19060   0.01267  Uiso   1.00
H41    H     0.45690   0.45670   0.19340   0.01267  Uiso   1.00
H42    H     0.33940   0.57210   0.13760   0.01267  Uiso   1.00
H43    H     0.68810   0.45150   0.25550   0.01267  Uiso   1.00
H44    H     0.60400   0.41700   0.27150   0.01267  Uiso   1.00
H45    H     0.74320   0.35910   0.17180   0.01267  Uiso   1.00
H46    H     0.64790   0.33590   0.17410   0.01267  Uiso   1.00
H47    H     0.79440   0.28070   0.27250   0.01267  Uiso   1.00
H48    H     0.70850   0.24630   0.26240   0.01267  Uiso   1.00
H49    H     0.03170   0.12300   0.11500   0.01267  Uiso   1.00
H50    H     0.92570   0.24160   0.17610   0.01267  Uiso   1.00
H51    H     0.75970   0.10230   0.21290   0.01267  Uiso   1.00
H52    H     0.87040   0.98590   0.15130   0.01267  Uiso   1.00
H53    H     0.36490   0.90190   0.62950   0.01267  Uiso   1.00
H54    H     0.56300   0.67310   0.71220   0.01267  Uiso   1.00
H55    H     0.62330   0.75740   0.77410   0.01267  Uiso   1.00
H56    H     0.53130   0.10590   0.87230   0.01267  Uiso   1.00
H57    H     0.80410   0.91930   0.81650   0.01267  Uiso   1.00
H58    H     0.72440   0.84730   0.75910   0.01267  Uiso   1.00
H59    H     0.17960   0.02310   0.53890   0.01267  Uiso   1.00
H60    H     0.39340   0.92620   0.40360   0.01267  Uiso   1.00
H61    H     0.39990   0.06690   0.39790   0.01267  Uiso   1.00
H62    H     0.20310   0.42840   0.41760   0.01267  Uiso   1.00
H63    H     0.47410   0.29640   0.50340   0.01267  Uiso   1.00
H64    H     0.44920   0.16430   0.50370   0.01267  Uiso   1.00
H65    H     0.07910   0.64730   0.70990   0.01267  Uiso   1.00
H66    H     0.22450   0.41840   0.61050   0.01267  Uiso   1.00
H67    H     0.13780   0.35080   0.66550   0.01267  Uiso   1.00
H68    H     0.80530   0.38320   0.80290   0.01267  Uiso   1.00
H69    H     0.09250   0.21230   0.84500   0.01267  Uiso   1.00
H70    H     0.15180   0.30290   0.78920   0.01267  Uiso   1.00
H71    H     0.67650   0.93970   0.02520   0.01267  Uiso   1.00
H72    H     0.97750   0.79600   0.99730   0.01267  Uiso   1.00
H73    H     0.95440   0.66400   0.99300   0.01267  Uiso   1.00
H74    H     0.70760   0.50230   0.92980   0.01267  Uiso   1.00
H75    H     0.87540   0.44210   0.08720   0.01267  Uiso   1.00
H76    H     0.88050   0.58220   0.08340   0.01267  Uiso   1.00
H77    H     0.16740   0.94080   0.63070   0.01267  Uiso   1.00
H78    H     0.05010   0.05230   0.69190   0.01267  Uiso   1.00
H79    H     0.86810   0.92270   0.68150   0.01267  Uiso   1.00
H80    H     0.99000   0.81440   0.61980   0.01267  Uiso   1.00
H81    H     0.83270   0.04370   0.76090   0.01267  Uiso   1.00
H82    H     0.89960   0.09920   0.76200   0.01267  Uiso   1.00
H83    H     0.81730   0.18270   0.67530   0.01267  Uiso   1.00
H84    H     0.76320   0.11830   0.66150   0.01267  Uiso   1.00
H85    H     0.71920   0.22550   0.77370   0.01267  Uiso   1.00
H86    H     0.65580   0.17350   0.74840   0.01267  Uiso   1.00
H87    H     0.42640   0.37880   0.61120   0.01267  Uiso   1.00
H88    H     0.51760   0.25240   0.67140   0.01267  Uiso   1.00
H89    H     0.70910   0.36200   0.71440   0.01267  Uiso   1.00
H90    H     0.61090   0.48920   0.65640   0.01267  Uiso   1.00
H91    H     0.49010   0.29770   0.86470   0.01267  Uiso   1.00
H92    H     0.36510   0.41090   0.80940   0.01267  Uiso   1.00
H93    H     0.54310   0.54330   0.80660   0.01267  Uiso   1.00
H94    H     0.66060   0.42790   0.86240   0.01267  Uiso   1.00
H95    H     0.31190   0.54850   0.74450   0.01267  Uiso   1.00
H96    H     0.39600   0.58300   0.72850   0.01267  Uiso   1.00
H97    H     0.25680   0.64090   0.82820   0.01267  Uiso   1.00
H98    H     0.35210   0.66410   0.82590   0.01267  Uiso   1.00
H99    H     0.20560   0.71930   0.72750   0.01267  Uiso   1.00
H100   H     0.29150   0.75370   0.73760   0.01267  Uiso   1.00
H101   H     0.96830   0.87700   0.88500   0.01267  Uiso   1.00
H102   H     0.07430   0.75840   0.82390   0.01267  Uiso   1.00
H103   H     0.24030   0.89770   0.78710   0.01267  Uiso   1.00
H104   H     0.12960   0.01410   0.84870   0.01267  Uiso   1.00
C1     C     0.46650   0.11800   0.26110   0.01267  Uiso   1.00
C2     C     0.54250   0.07810   0.30750   0.01267  Uiso   1.00
C3     C     0.58250   0.12770   0.34170   0.01267  Uiso   1.00
C4     C     0.54540   0.22150   0.33380   0.01267  Uiso   1.00
C5     C     0.46600   0.26380   0.29180   0.01267  Uiso   1.00
C6     C     0.42850   0.21270   0.25520   0.01267  Uiso   1.00
C7     C     0.59450   0.27230   0.37080   0.01267  Uiso   1.00
C8     C     0.42190   0.06820   0.22040   0.01267  Uiso   1.00
C9     C     0.47700   0.99120   0.18370   0.01267  Uiso   1.00
C10    C     0.42920   0.94620   0.15070   0.01267  Uiso   1.00
C11    C     0.32440   0.97690   0.15120   0.01267  Uiso   1.00
C12    C     0.26710   0.05660   0.18430   0.01267  Uiso   1.00
C13    C     0.31550   0.10020   0.21850   0.01267  Uiso   1.00
C14    C     0.27430   0.92320   0.11830   0.01267  Uiso   1.00
C15    C     0.70310   0.87050   0.53430   0.01267  Uiso   1.00
C16    C     0.76680   0.88630   0.49190   0.01267  Uiso   1.00
C17    C     0.77450   0.96940   0.48920   0.01267  Uiso   1.00
C18    C     0.71470   0.04000   0.52790   0.01267  Uiso   1.00
C19    C     0.64840   0.02650   0.57010   0.01267  Uiso   1.00
C20    C     0.64410   0.94150   0.57300   0.01267  Uiso   1.00
C21    C     0.71950   0.13110   0.52260   0.01267  Uiso   1.00
C22    C     0.68840   0.78420   0.53810   0.01267  Uiso   1.00
C23    C     0.75790   0.70510   0.56630   0.01267  Uiso   1.00
C24    C     0.74670   0.62450   0.56530   0.01267  Uiso   1.00
C25    C     0.65920   0.62370   0.53820   0.01267  Uiso   1.00
C26    C     0.58590   0.70300   0.51340   0.01267  Uiso   1.00
C27    C     0.60100   0.78260   0.51340   0.01267  Uiso   1.00
C28    C     0.64880   0.53540   0.53390   0.01267  Uiso   1.00
C29    C     0.93780   0.54670   0.27400   0.01267  Uiso   1.00
C30    C     0.95180   0.45730   0.26150   0.01267  Uiso   1.00
C31    C     0.90640   0.41340   0.29810   0.01267  Uiso   1.00
C32    C     0.83930   0.45950   0.34660   0.01267  Uiso   1.00
C33    C     0.82200   0.54890   0.35810   0.01267  Uiso   1.00
C34    C     0.87240   0.59020   0.32390   0.01267  Uiso   1.00
C35    C     0.78390   0.41360   0.38270   0.01267  Uiso   1.00
C36    C     0.98430   0.60000   0.23730   0.01267  Uiso   1.00
C37    C     0.08960   0.57880   0.23370   0.01267  Uiso   1.00
C38    C     0.12450   0.63340   0.20020   0.01267  Uiso   1.00
C39    C     0.05670   0.71260   0.17130   0.01267  Uiso   1.00
C40    C     0.95380   0.73520   0.17490   0.01267  Uiso   1.00
C41    C     0.91850   0.67990   0.20810   0.01267  Uiso   1.00
C42    C     0.09870   0.77100   0.13570   0.01267  Uiso   1.00
C43    C     0.19860   0.28000   0.99370   0.01267  Uiso   1.00
C44    C     0.28000   0.19600   0.98470   0.01267  Uiso   1.00
C45    C     0.26720   0.11580   0.98090   0.01267  Uiso   1.00
C46    C     0.17020   0.11960   0.98640   0.01267  Uiso   1.00
C47    C     0.08770   0.20180   0.99740   0.01267  Uiso   1.00
C48    C     0.10200   0.28080   0.00040   0.01267  Uiso   1.00
C49    C     0.15650   0.03270   0.98230   0.01267  Uiso   1.00
C50    C     0.20540   0.37010   0.99520   0.01267  Uiso   1.00
C51    C     0.25340   0.39860   0.04130   0.01267  Uiso   1.00
C52    C     0.25740   0.48190   0.03880   0.01267  Uiso   1.00
C53    C     0.21000   0.54260   0.99000   0.01267  Uiso   1.00
C54    C     0.15850   0.51750   0.94540   0.01267  Uiso   1.00
C55    C     0.15560   0.43290   0.94760   0.01267  Uiso   1.00
C56    C     0.21470   0.63370   0.98950   0.01267  Uiso   1.00
C57    C     0.89340   0.06330   0.35870   0.01267  Uiso   1.00
C58    C     0.96380   0.99580   0.32210   0.01267  Uiso   1.00
C59    C     0.05470   0.99910   0.30600   0.01267  Uiso   1.00
C60    C     0.07140   0.07220   0.32830   0.01267  Uiso   1.00
C61    C     0.99740   0.13740   0.36500   0.01267  Uiso   1.00
C62    C     0.13380   0.92790   0.26560   0.01267  Uiso   1.00
C63    C     0.21330   0.85400   0.30500   0.01267  Uiso   1.00
C64    C     0.30520   0.79270   0.26440   0.01267  Uiso   1.00
C65    C     0.51550   0.62430   0.36760   0.01267  Uiso   1.00
C66    C     0.46060   0.70120   0.33190   0.01267  Uiso   1.00
C67    C     0.37430   0.70810   0.30150   0.01267  Uiso   1.00
C68    C     0.34890   0.63580   0.30640   0.01267  Uiso   1.00
C69    C     0.40750   0.55940   0.34180   0.01267  Uiso   1.00
C70    C     0.50040   0.65020   0.14480   0.01267  Uiso   1.00
C71    C     0.57540   0.58300   0.17990   0.01267  Uiso   1.00
C72    C     0.56270   0.50830   0.19890   0.01267  Uiso   1.00
C73    C     0.47070   0.50570   0.18130   0.01267  Uiso   1.00
C74    C     0.40170   0.57410   0.14670   0.01267  Uiso   1.00
C75    C     0.63940   0.43140   0.23690   0.01267  Uiso   1.00
C76    C     0.69600   0.34840   0.20010   0.01267  Uiso   1.00
C77    C     0.75610   0.26490   0.24050   0.01267  Uiso   1.00
C78    C     0.97630   0.11840   0.13500   0.01267  Uiso   1.00
C79    C     0.91260   0.19030   0.17160   0.01267  Uiso   1.00
C80    C     0.82900   0.18650   0.20200   0.01267  Uiso   1.00
C81    C     0.81480   0.10800   0.19340   0.01267  Uiso   1.00
C82    C     0.88150   0.03810   0.15620   0.01267  Uiso   1.00
C83    C     0.53350   0.88200   0.73890   0.01267  Uiso   1.00
C84    C     0.45750   0.92190   0.69250   0.01267  Uiso   1.00
C85    C     0.41750   0.87230   0.65830   0.01267  Uiso   1.00
C86    C     0.45460   0.77850   0.66620   0.01267  Uiso   1.00
C87    C     0.53400   0.73620   0.70820   0.01267  Uiso   1.00
C88    C     0.57150   0.78730   0.74480   0.01267  Uiso   1.00
C89    C     0.40550   0.72770   0.62920   0.01267  Uiso   1.00
C90    C     0.57810   0.93180   0.77960   0.01267  Uiso   1.00
C91    C     0.52300   0.00880   0.81630   0.01267  Uiso   1.00
C92    C     0.57080   0.05380   0.84930   0.01267  Uiso   1.00
C93    C     0.67560   0.02310   0.84880   0.01267  Uiso   1.00
C94    C     0.73290   0.94340   0.81570   0.01267  Uiso   1.00
C95    C     0.68450   0.89980   0.78150   0.01267  Uiso   1.00
C96    C     0.72570   0.07680   0.88170   0.01267  Uiso   1.00
C97    C     0.29690   0.12950   0.46570   0.01267  Uiso   1.00
C98    C     0.23320   0.11370   0.50810   0.01267  Uiso   1.00
C99    C     0.22550   0.03060   0.51080   0.01267  Uiso   1.00
C100   C     0.28530   0.96000   0.47210   0.01267  Uiso   1.00
C101   C     0.35160   0.97350   0.42990   0.01267  Uiso   1.00
C102   C     0.35590   0.05850   0.42700   0.01267  Uiso   1.00
C103   C     0.28050   0.86890   0.47740   0.01267  Uiso   1.00
C104   C     0.31160   0.21580   0.46190   0.01267  Uiso   1.00
C105   C     0.24210   0.29490   0.43370   0.01267  Uiso   1.00
C106   C     0.25330   0.37550   0.43470   0.01267  Uiso   1.00
C107   C     0.34080   0.37630   0.46180   0.01267  Uiso   1.00
C108   C     0.41410   0.29700   0.48660   0.01267  Uiso   1.00
C109   C     0.39900   0.21740   0.48660   0.01267  Uiso   1.00
C110   C     0.35120   0.46460   0.46610   0.01267  Uiso   1.00
C111   C     0.06220   0.45330   0.72600   0.01267  Uiso   1.00
C112   C     0.04820   0.54270   0.73850   0.01267  Uiso   1.00
C113   C     0.09360   0.58660   0.70190   0.01267  Uiso   1.00
C114   C     0.16070   0.54050   0.65340   0.01267  Uiso   1.00
C115   C     0.17800   0.45110   0.64190   0.01267  Uiso   1.00
C116   C     0.12760   0.40980   0.67610   0.01267  Uiso   1.00
C117   C     0.21610   0.58640   0.61730   0.01267  Uiso   1.00
C118   C     0.01570   0.40000   0.76270   0.01267  Uiso   1.00
C119   C     0.91040   0.42120   0.76630   0.01267  Uiso   1.00
C120   C     0.87550   0.36660   0.79980   0.01267  Uiso   1.00
C121   C     0.94330   0.28740   0.82870   0.01267  Uiso   1.00
C122   C     0.04620   0.26480   0.82510   0.01267  Uiso   1.00
C123   C     0.08150   0.32010   0.79190   0.01267  Uiso   1.00
C124   C     0.90130   0.22900   0.86430   0.01267  Uiso   1.00
C125   C     0.80140   0.72000   0.00630   0.01267  Uiso   1.00
C126   C     0.72000   0.80400   0.01530   0.01267  Uiso   1.00
C127   C     0.73280   0.88420   0.01910   0.01267  Uiso   1.00
C128   C     0.82980   0.88040   0.01360   0.01267  Uiso   1.00
C129   C     0.91230   0.79820   0.00260   0.01267  Uiso   1.00
C130   C     0.89800   0.71920   0.99960   0.01267  Uiso   1.00
C131   C     0.84350   0.96730   0.01770   0.01267  Uiso   1.00
C132   C     0.79460   0.62990   0.00480   0.01267  Uiso   1.00
C133   C     0.74660   0.60140   0.95870   0.01267  Uiso   1.00
C134   C     0.74260   0.51810   0.96120   0.01267  Uiso   1.00
C135   C     0.79000   0.45740   0.01000   0.01267  Uiso   1.00
C136   C     0.84150   0.48250   0.05460   0.01267  Uiso   1.00
C137   C     0.84440   0.56710   0.05240   0.01267  Uiso   1.00
C138   C     0.78530   0.36630   0.01050   0.01267  Uiso   1.00
C139   C     0.10660   0.93670   0.64130   0.01267  Uiso   1.00
C140   C     0.03620   0.00420   0.67790   0.01267  Uiso   1.00
C141   C     0.94530   0.00090   0.69400   0.01267  Uiso   1.00
C142   C     0.92860   0.92780   0.67170   0.01267  Uiso   1.00
C143   C     0.00260   0.86260   0.63500   0.01267  Uiso   1.00
C144   C     0.86620   0.07210   0.73440   0.01267  Uiso   1.00
C145   C     0.78670   0.14600   0.69500   0.01267  Uiso   1.00
C146   C     0.69480   0.20730   0.73560   0.01267  Uiso   1.00
C147   C     0.48450   0.37570   0.63240   0.01267  Uiso   1.00
C148   C     0.53940   0.29880   0.66810   0.01267  Uiso   1.00
C149   C     0.62570   0.29190   0.69850   0.01267  Uiso   1.00
C150   C     0.65110   0.36420   0.69360   0.01267  Uiso   1.00
C151   C     0.59250   0.44060   0.65820   0.01267  Uiso   1.00
C152   C     0.49960   0.34980   0.85520   0.01267  Uiso   1.00
C153   C     0.42460   0.41700   0.82010   0.01267  Uiso   1.00
C154   C     0.43730   0.49170   0.80110   0.01267  Uiso   1.00
C155   C     0.52930   0.49430   0.81870   0.01267  Uiso   1.00
C156   C     0.59830   0.42590   0.85330   0.01267  Uiso   1.00
C157   C     0.36060   0.56860   0.76310   0.01267  Uiso   1.00
C158   C     0.30400   0.65160   0.79990   0.01267  Uiso   1.00
C159   C     0.24390   0.73510   0.75950   0.01267  Uiso   1.00
C160   C     0.02370   0.88160   0.86500   0.01267  Uiso   1.00
C161   C     0.08740   0.80970   0.82840   0.01267  Uiso   1.00
C162   C     0.17100   0.81350   0.79800   0.01267  Uiso   1.00
C163   C     0.18520   0.89200   0.80660   0.01267  Uiso   1.00
C164   C     0.11850   0.96190   0.84380   0.01267  Uiso   1.00
N1     N     0.58380   0.98100   0.32260   0.01267  Uiso   1.00
N2     N     0.59020   0.95290   0.17740   0.01267  Uiso   1.00
N3     N     0.82950   0.81810   0.44520   0.01267  Uiso   1.00
N4     N     0.85010   0.70240   0.59790   0.01267  Uiso   1.00
N5     N     0.01580   0.40550   0.20840   0.01267  Uiso   1.00
N6     N     0.16640   0.49940   0.26480   0.01267  Uiso   1.00
N7     N     0.38710   0.18390   0.97940   0.01267  Uiso   1.00
N8     N     0.30180   0.34120   0.09640   0.01267  Uiso   1.00
N9     N     0.90810   0.13480   0.38010   0.01267  Uiso   1.00
N10    N     0.49050   0.55420   0.37340   0.01267  Uiso   1.00
N11    N     0.96270   0.04300   0.12670   0.01267  Uiso   1.00
N12    N     0.41800   0.64620   0.12420   0.01267  Uiso   1.00
N13    N     0.41620   0.01900   0.67740   0.01267  Uiso   1.00
N14    N     0.40980   0.04710   0.82260   0.01267  Uiso   1.00
N15    N     0.17050   0.18190   0.55480   0.01267  Uiso   1.00
N16    N     0.14990   0.29760   0.40210   0.01267  Uiso   1.00
N17    N     0.98420   0.59450   0.79160   0.01267  Uiso   1.00
N18    N     0.83360   0.50060   0.73520   0.01267  Uiso   1.00
N19    N     0.61290   0.81610   0.02060   0.01267  Uiso   1.00
N20    N     0.69820   0.65880   0.90360   0.01267  Uiso   1.00
N21    N     0.09190   0.86520   0.61990   0.01267  Uiso   1.00
N22    N     0.50950   0.44580   0.62660   0.01267  Uiso   1.00
N23    N     0.03730   0.95700   0.87330   0.01267  Uiso   1.00
N24    N     0.58200   0.35380   0.87580   0.01267  Uiso   1.00
O1     O     0.68180   0.22310   0.39130   0.01267  Uiso   1.00
O2     O     0.54640   0.35640   0.37610   0.01267  Uiso   1.00
O3     O     0.33310   0.84370   0.10300   0.01267  Uiso   1.00
O4     O     0.17930   0.96130   0.11180   0.01267  Uiso   1.00
O5     O     0.63040   0.00590   0.18280   0.01267  Uiso   1.00
O6     O     0.63700   0.87340   0.16580   0.01267  Uiso   1.00
O7     O     0.68430   0.94220   0.32720   0.01267  Uiso   1.00
O8     O     0.54170   0.93530   0.30910   0.01267  Uiso   1.00
O9     O     0.79880   0.13000   0.49590   0.01267  Uiso   1.00
O10    O     0.64680   0.19910   0.54300   0.01267  Uiso   1.00
O11    O     0.56480   0.53830   0.51139   0.01267  Uiso   1.00
O12    O     0.72170   0.46420   0.55130   0.01267  Uiso   1.00
O13    O     0.84940   0.73860   0.45430   0.01267  Uiso   1.00
O14    O     0.87270   0.83820   0.40170   0.01267  Uiso   1.00
O15    O     0.92460   0.63750   0.60050   0.01267  Uiso   1.00
O16    O     0.85910   0.76150   0.61930   0.01267  Uiso   1.00
O17    O     0.69990   0.46360   0.40710   0.01267  Uiso   1.00
O18    O     0.82520   0.32840   0.38460   0.01267  Uiso   1.00
O19    O     0.19360   0.74100   0.13090   0.01267  Uiso   1.00
O20    O     0.03490   0.84530   0.11420   0.01267  Uiso   1.00
O21    O     0.05070   0.32120   0.21060   0.01267  Uiso   1.00
O22    O     0.03030   0.44690   0.16470   0.01267  Uiso   1.00
O23    O     0.15350   0.43240   0.28270   0.01267  Uiso   1.00
O24    O     0.25370   0.49830   0.27740   0.01267  Uiso   1.00
O25    O     0.06690   0.03740   0.99766   0.01267  Uiso   1.00
O26    O     0.23010   0.96200   0.96590   0.01267  Uiso   1.00
O27    O     0.28840   0.63660   0.02080   0.01267  Uiso   1.00
O28    O     0.14900   0.69770   0.95940   0.01267  Uiso   1.00
O29    O     0.45610   0.11420   0.99440   0.01267  Uiso   1.00
O30    O     0.39970   0.25000   0.95850   0.01267  Uiso   1.00
O31    O     0.39430   0.34360   0.11140   0.01267  Uiso   1.00
O32    O     0.33140   0.25760   0.09460   0.01267  Uiso   1.00
O33    O     0.67720   0.33620   0.49722   0.01267  Uiso   1.00
O34    O     0.17590   0.83680   0.00679   0.01267  Uiso   1.00
O35    O     0.31820   0.77690   0.60870   0.01267  Uiso   1.00
O36    O     0.45360   0.64360   0.62390   0.01267  Uiso   1.00
O37    O     0.66690   0.15630   0.89700   0.01267  Uiso   1.00
O38    O     0.82070   0.03870   0.88820   0.01267  Uiso   1.00
O39    O     0.36960   0.99410   0.81720   0.01267  Uiso   1.00
O40    O     0.36300   0.12660   0.83420   0.01267  Uiso   1.00
O41    O     0.31570   0.05780   0.67280   0.01267  Uiso   1.00
O42    O     0.45830   0.06470   0.69090   0.01267  Uiso   1.00
O43    O     0.20120   0.87000   0.50410   0.01267  Uiso   1.00
O44    O     0.35320   0.80090   0.45700   0.01267  Uiso   1.00
O45    O     0.43520   0.46170   0.48861   0.01267  Uiso   1.00
O46    O     0.27830   0.53580   0.44870   0.01267  Uiso   1.00
O47    O     0.15060   0.26140   0.54570   0.01267  Uiso   1.00
O48    O     0.12730   0.16180   0.59830   0.01267  Uiso   1.00
O49    O     0.07540   0.36250   0.39950   0.01267  Uiso   1.00
O50    O     0.14090   0.23850   0.38070   0.01267  Uiso   1.00
O51    O     0.30010   0.53640   0.59290   0.01267  Uiso   1.00
O52    O     0.17480   0.67160   0.61540   0.01267  Uiso   1.00
O53    O     0.80640   0.25900   0.86910   0.01267  Uiso   1.00
O54    O     0.96510   0.15470   0.88580   0.01267  Uiso   1.00
O55    O     0.94930   0.67880   0.78940   0.01267  Uiso   1.00
O56    O     0.96970   0.55310   0.83530   0.01267  Uiso   1.00
O57    O     0.84650   0.56760   0.71730   0.01267  Uiso   1.00
O58    O     0.74630   0.50170   0.72260   0.01267  Uiso   1.00
O59    O     0.93310   0.96260   0.00234   0.01267  Uiso   1.00
O60    O     0.76990   0.03800   0.03410   0.01267  Uiso   1.00
O61    O     0.71160   0.36340   0.97920   0.01267  Uiso   1.00
O62    O     0.85100   0.30230   0.04060   0.01267  Uiso   1.00
O63    O     0.54390   0.88580   0.00560   0.01267  Uiso   1.00
O64    O     0.60030   0.75000   0.04150   0.01267  Uiso   1.00
O65    O     0.60570   0.65640   0.88860   0.01267  Uiso   1.00
O66    O     0.66860   0.74240   0.90540   0.01267  Uiso   1.00
O67    O     0.32280   0.66380   0.50278   0.01267  Uiso   1.00
O68    O     0.82410   0.16320   0.99321   0.01267  Uiso   1.00
