data_ANUGOG_clean
_audit_creation_date              2014-07-02
_audit_creation_method            'Materials Studio'
_symmetry_space_group_name_H-M    'P1'
_symmetry_Int_Tables_number       1
_symmetry_cell_setting            triclinic
loop_
_symmetry_equiv_pos_as_xyz
  x,y,z
_cell_length_a                    18.1148
_cell_length_b                    18.1148
_cell_length_c                    24.3970
_cell_angle_alpha                 74.5422
_cell_angle_beta                  74.5422
_cell_angle_gamma                 106.3840
loop_
_atom_site_label
_atom_site_type_symbol
_atom_site_fract_x
_atom_site_fract_y
_atom_site_fract_z
_atom_site_U_iso_or_equiv
_atom_site_adp_type
_atom_site_occupancy
Cu1    Cu    0.55266   0.99526   0.95382   0.01267  Uiso   1.00
Cu2    Cu    0.49352   0.55092   0.95382   0.01267  Uiso   1.00
Cu3    Cu    0.50474   0.94734   0.54618   0.01267  Uiso   1.00
Cu4    Cu    0.94908   0.00648   0.54618   0.01267  Uiso   1.00
Cu5    Cu    0.44734   0.00474   0.04618   0.01267  Uiso   1.00
Cu6    Cu    0.50648   0.44908   0.04618   0.01267  Uiso   1.00
Cu7    Cu    0.49526   0.05266   0.45382   0.01267  Uiso   1.00
Cu8    Cu    0.05092   0.99352   0.45382   0.01267  Uiso   1.00
H1     H     0.77170   0.57110   0.00520   0.01267  Uiso   1.00
H2     H     0.87720   0.81220   0.83640   0.01267  Uiso   1.00
H3     H     0.91200   0.65080   0.96380   0.01267  Uiso   1.00
H4     H     0.73580   0.73060   0.87660   0.01267  Uiso   1.00
H5     H     0.99640   0.81060   0.77720   0.01267  Uiso   1.00
H6     H     0.05010   0.91450   0.68360   0.01267  Uiso   1.00
H7     H     0.22310   0.92370   0.00520   0.01267  Uiso   1.00
H8     H     0.28640   0.85140   0.83640   0.01267  Uiso   1.00
H9     H     0.12420   0.88540   0.96380   0.01267  Uiso   1.00
H10    H     0.38760   0.89280   0.87660   0.01267  Uiso   1.00
H11    H     0.22640   0.91220   0.77720   0.01267  Uiso   1.00
H12    H     0.26630   0.90190   0.68360   0.01267  Uiso   1.00
H13    H     0.92890   0.72830   0.49480   0.01267  Uiso   1.00
H14    H     0.68780   0.62280   0.66360   0.01267  Uiso   1.00
H15    H     0.84920   0.58800   0.53620   0.01267  Uiso   1.00
H16    H     0.76940   0.76420   0.62340   0.01267  Uiso   1.00
H17    H     0.68940   0.50360   0.72280   0.01267  Uiso   1.00
H18    H     0.58550   0.44990   0.81640   0.01267  Uiso   1.00
H19    H     0.57630   0.27690   0.49480   0.01267  Uiso   1.00
H20    H     0.64860   0.21360   0.66360   0.01267  Uiso   1.00
H21    H     0.61460   0.37580   0.53620   0.01267  Uiso   1.00
H22    H     0.60720   0.11240   0.62340   0.01267  Uiso   1.00
H23    H     0.58780   0.27360   0.72280   0.01267  Uiso   1.00
H24    H     0.59810   0.23370   0.81640   0.01267  Uiso   1.00
H25    H     0.22830   0.42890   0.99480   0.01267  Uiso   1.00
H26    H     0.12280   0.18780   0.16360   0.01267  Uiso   1.00
H27    H     0.08800   0.34920   0.03620   0.01267  Uiso   1.00
H28    H     0.26420   0.26940   0.12340   0.01267  Uiso   1.00
H29    H     0.00360   0.18940   0.22280   0.01267  Uiso   1.00
H30    H     0.94990   0.08550   0.31640   0.01267  Uiso   1.00
H31    H     0.77690   0.07630   0.99480   0.01267  Uiso   1.00
H32    H     0.71360   0.14860   0.16360   0.01267  Uiso   1.00
H33    H     0.87580   0.11460   0.03620   0.01267  Uiso   1.00
H34    H     0.61240   0.10720   0.12340   0.01267  Uiso   1.00
H35    H     0.77360   0.08780   0.22280   0.01267  Uiso   1.00
H36    H     0.73370   0.09810   0.31640   0.01267  Uiso   1.00
H37    H     0.07110   0.27170   0.50520   0.01267  Uiso   1.00
H38    H     0.31220   0.37720   0.33640   0.01267  Uiso   1.00
H39    H     0.15080   0.41200   0.46380   0.01267  Uiso   1.00
H40    H     0.23060   0.23580   0.37660   0.01267  Uiso   1.00
H41    H     0.31060   0.49640   0.27720   0.01267  Uiso   1.00
H42    H     0.41450   0.55010   0.18360   0.01267  Uiso   1.00
H43    H     0.42370   0.72310   0.50520   0.01267  Uiso   1.00
H44    H     0.35140   0.78640   0.33640   0.01267  Uiso   1.00
H45    H     0.38540   0.62420   0.46380   0.01267  Uiso   1.00
H46    H     0.39280   0.88760   0.37660   0.01267  Uiso   1.00
H47    H     0.41220   0.72640   0.27720   0.01267  Uiso   1.00
H48    H     0.40190   0.76630   0.18360   0.01267  Uiso   1.00
H49    H     0.03290   0.78290   0.93420   0.01267  Uiso   1.00
H50    H     0.23770   0.98770   0.52460   0.01267  Uiso   1.00
H51    H     0.71710   0.46710   0.56580   0.01267  Uiso   1.00
H52    H     0.51230   0.26230   0.97540   0.01267  Uiso   1.00
H53    H     0.96710   0.21710   0.06580   0.01267  Uiso   1.00
H54    H     0.76230   0.01230   0.47540   0.01267  Uiso   1.00
H55    H     0.28290   0.53290   0.43420   0.01267  Uiso   1.00
H56    H     0.48770   0.73770   0.02460   0.01267  Uiso   1.00
C1     C     0.74275   0.64255   0.94190   0.01267  Uiso   1.00
C2     C     0.79355   0.61875   0.97010   0.01267  Uiso   1.00
C3     C     0.85626   0.76226   0.86948   0.01267  Uiso   1.00
C4     C     0.90877   0.73697   0.89406   0.01267  Uiso   1.00
C5     C     0.87693   0.66633   0.94554   0.01267  Uiso   1.00
C6     C     0.77149   0.71389   0.89362   0.01267  Uiso   1.00
C7     C     0.00197   0.78997   0.86026   0.01267  Uiso   1.00
C8     C     0.03193   0.82053   0.79794   0.01267  Uiso   1.00
C9     C     0.10420   0.92080   0.66360   0.01267  Uiso   1.00
C10    C     0.13476   0.94936   0.60068   0.01267  Uiso   1.00
C11    C     0.64863   0.58783   0.96474   0.01267  Uiso   1.00
C12    C     0.08115   0.96535   0.56630   0.01267  Uiso   1.00
C13    C     0.31535   0.91555   0.94190   0.01267  Uiso   1.00
C14    C     0.23635   0.91115   0.97010   0.01267  Uiso   1.00
C15    C     0.27426   0.86826   0.86948   0.01267  Uiso   1.00
C16    C     0.19717   0.86897   0.89406   0.01267  Uiso   1.00
C17    C     0.17753   0.88813   0.94554   0.01267  Uiso   1.00
C18    C     0.33489   0.89249   0.89362   0.01267  Uiso   1.00
C19    C     0.13777   0.84977   0.86026   0.01267  Uiso   1.00
C20    C     0.17013   0.88153   0.79794   0.01267  Uiso   1.00
C21    C     0.23220   0.91560   0.66360   0.01267  Uiso   1.00
C22    C     0.26456   0.94996   0.60068   0.01267  Uiso   1.00
C23    C     0.38663   0.94743   0.96474   0.01267  Uiso   1.00
C24    C     0.35255   0.96835   0.56630   0.01267  Uiso   1.00
C25    C     0.85745   0.75725   0.55810   0.01267  Uiso   1.00
C26    C     0.88125   0.70645   0.52990   0.01267  Uiso   1.00
C27    C     0.73774   0.64374   0.63052   0.01267  Uiso   1.00
C28    C     0.76303   0.59123   0.60594   0.01267  Uiso   1.00
C29    C     0.83367   0.62307   0.55446   0.01267  Uiso   1.00
C30    C     0.78611   0.72851   0.60638   0.01267  Uiso   1.00
C31    C     0.71003   0.49803   0.63974   0.01267  Uiso   1.00
C32    C     0.67947   0.46807   0.70206   0.01267  Uiso   1.00
C33    C     0.57920   0.39580   0.83640   0.01267  Uiso   1.00
C34    C     0.55064   0.36524   0.89932   0.01267  Uiso   1.00
C35    C     0.91217   0.85137   0.53526   0.01267  Uiso   1.00
C36    C     0.53465   0.41885   0.93370   0.01267  Uiso   1.00
C37    C     0.58445   0.18465   0.55810   0.01267  Uiso   1.00
C38    C     0.58885   0.26365   0.52990   0.01267  Uiso   1.00
C39    C     0.63174   0.22574   0.63052   0.01267  Uiso   1.00
C40    C     0.63103   0.30283   0.60594   0.01267  Uiso   1.00
C41    C     0.61187   0.32247   0.55446   0.01267  Uiso   1.00
C42    C     0.60751   0.16511   0.60638   0.01267  Uiso   1.00
C43    C     0.65023   0.36223   0.63974   0.01267  Uiso   1.00
C44    C     0.61847   0.32987   0.70206   0.01267  Uiso   1.00
C45    C     0.58440   0.26780   0.83640   0.01267  Uiso   1.00
C46    C     0.55004   0.23544   0.89932   0.01267  Uiso   1.00
C47    C     0.55257   0.11337   0.53526   0.01267  Uiso   1.00
C48    C     0.53165   0.14745   0.93370   0.01267  Uiso   1.00
C49    C     0.25725   0.35745   0.05810   0.01267  Uiso   1.00
C50    C     0.20645   0.38125   0.02990   0.01267  Uiso   1.00
C51    C     0.14374   0.23774   0.13052   0.01267  Uiso   1.00
C52    C     0.09123   0.26303   0.10594   0.01267  Uiso   1.00
C53    C     0.12307   0.33367   0.05446   0.01267  Uiso   1.00
C54    C     0.22851   0.28611   0.10638   0.01267  Uiso   1.00
C55    C     0.99803   0.21003   0.13974   0.01267  Uiso   1.00
C56    C     0.96807   0.17947   0.20206   0.01267  Uiso   1.00
C57    C     0.89580   0.07920   0.33640   0.01267  Uiso   1.00
C58    C     0.86524   0.05064   0.39932   0.01267  Uiso   1.00
C59    C     0.35137   0.41217   0.03526   0.01267  Uiso   1.00
C60    C     0.91885   0.03465   0.43370   0.01267  Uiso   1.00
C61    C     0.68465   0.08445   0.05810   0.01267  Uiso   1.00
C62    C     0.76365   0.08885   0.02990   0.01267  Uiso   1.00
C63    C     0.72574   0.13174   0.13052   0.01267  Uiso   1.00
C64    C     0.80283   0.13103   0.10594   0.01267  Uiso   1.00
C65    C     0.82247   0.11187   0.05446   0.01267  Uiso   1.00
C66    C     0.66511   0.10751   0.10638   0.01267  Uiso   1.00
C67    C     0.86223   0.15023   0.13974   0.01267  Uiso   1.00
C68    C     0.82987   0.11847   0.20206   0.01267  Uiso   1.00
C69    C     0.76780   0.08440   0.33640   0.01267  Uiso   1.00
C70    C     0.73544   0.05004   0.39932   0.01267  Uiso   1.00
C71    C     0.61337   0.05257   0.03526   0.01267  Uiso   1.00
C72    C     0.64745   0.03165   0.43370   0.01267  Uiso   1.00
C73    C     0.14255   0.24275   0.44190   0.01267  Uiso   1.00
C74    C     0.11875   0.29355   0.47010   0.01267  Uiso   1.00
C75    C     0.26226   0.35626   0.36948   0.01267  Uiso   1.00
C76    C     0.23697   0.40877   0.39406   0.01267  Uiso   1.00
C77    C     0.16633   0.37693   0.44554   0.01267  Uiso   1.00
C78    C     0.21389   0.27149   0.39362   0.01267  Uiso   1.00
C79    C     0.28997   0.50197   0.36026   0.01267  Uiso   1.00
C80    C     0.32053   0.53193   0.29794   0.01267  Uiso   1.00
C81    C     0.42080   0.60420   0.16360   0.01267  Uiso   1.00
C82    C     0.44936   0.63476   0.10068   0.01267  Uiso   1.00
C83    C     0.08783   0.14863   0.46474   0.01267  Uiso   1.00
C84    C     0.46535   0.58115   0.06630   0.01267  Uiso   1.00
C85    C     0.41555   0.81535   0.44190   0.01267  Uiso   1.00
C86    C     0.41115   0.73635   0.47010   0.01267  Uiso   1.00
C87    C     0.36826   0.77426   0.36948   0.01267  Uiso   1.00
C88    C     0.36897   0.69717   0.39406   0.01267  Uiso   1.00
C89    C     0.38813   0.67753   0.44554   0.01267  Uiso   1.00
C90    C     0.39249   0.83489   0.39362   0.01267  Uiso   1.00
C91    C     0.34977   0.63777   0.36026   0.01267  Uiso   1.00
C92    C     0.38153   0.67013   0.29794   0.01267  Uiso   1.00
C93    C     0.41560   0.73220   0.16360   0.01267  Uiso   1.00
C94    C     0.44996   0.76456   0.10068   0.01267  Uiso   1.00
C95    C     0.44743   0.88663   0.46474   0.01267  Uiso   1.00
C96    C     0.46835   0.85255   0.06630   0.01267  Uiso   1.00
C97    C     0.05415   0.80415   0.89170   0.01267  Uiso   1.00
C98    C     0.11750   0.86750   0.76500   0.01267  Uiso   1.00
C99    C     0.15010   0.90010   0.69980   0.01267  Uiso   1.00
C100   C     0.21646   0.96646   0.56708   0.01267  Uiso   1.00
C101   C     0.69585   0.44585   0.60830   0.01267  Uiso   1.00
C102   C     0.63250   0.38250   0.73500   0.01267  Uiso   1.00
C103   C     0.59990   0.34990   0.80020   0.01267  Uiso   1.00
C104   C     0.53354   0.28354   0.93292   0.01267  Uiso   1.00
C105   C     0.94585   0.19585   0.10830   0.01267  Uiso   1.00
C106   C     0.88250   0.13250   0.23500   0.01267  Uiso   1.00
C107   C     0.84990   0.09990   0.30020   0.01267  Uiso   1.00
C108   C     0.78354   0.03354   0.43292   0.01267  Uiso   1.00
C109   C     0.30415   0.55415   0.39170   0.01267  Uiso   1.00
C110   C     0.36750   0.61750   0.26500   0.01267  Uiso   1.00
C111   C     0.40010   0.65010   0.19980   0.01267  Uiso   1.00
C112   C     0.46646   0.71646   0.06708   0.01267  Uiso   1.00
O1     O     0.61023   0.61151   0.93364   0.01267  Uiso   1.00
O2     O     0.01819   0.97741   0.59168   0.01267  Uiso   1.00
O3     O     0.62251   0.52409   0.01370   0.01267  Uiso   1.00
O4     O     0.10413   0.96869   0.51190   0.01267  Uiso   1.00
O5     O     0.45613   0.95485   0.93364   0.01267  Uiso   1.00
O6     O     0.39013   0.93091   0.59168   0.01267  Uiso   1.00
O7     O     0.36379   0.96221   0.01370   0.01267  Uiso   1.00
O8     O     0.38397   0.01941   0.51190   0.01267  Uiso   1.00
O9     O     0.88849   0.88977   0.56636   0.01267  Uiso   1.00
O10    O     0.52259   0.48181   0.90832   0.01267  Uiso   1.00
O11    O     0.97591   0.87749   0.48630   0.01267  Uiso   1.00
O12    O     0.53131   0.39587   0.98810   0.01267  Uiso   1.00
O13    O     0.54515   0.04387   0.56636   0.01267  Uiso   1.00
O14    O     0.56909   0.10987   0.90832   0.01267  Uiso   1.00
O15    O     0.53779   0.13621   0.48630   0.01267  Uiso   1.00
O16    O     0.48059   0.11603   0.98810   0.01267  Uiso   1.00
O17    O     0.38977   0.38849   0.06636   0.01267  Uiso   1.00
O18    O     0.98181   0.02259   0.40832   0.01267  Uiso   1.00
O19    O     0.37749   0.47591   0.98630   0.01267  Uiso   1.00
O20    O     0.89587   0.03131   0.48810   0.01267  Uiso   1.00
O21    O     0.54387   0.04515   0.06636   0.01267  Uiso   1.00
O22    O     0.60987   0.06909   0.40832   0.01267  Uiso   1.00
O23    O     0.63621   0.03779   0.98630   0.01267  Uiso   1.00
O24    O     0.61603   0.98059   0.48810   0.01267  Uiso   1.00
O25    O     0.11151   0.11023   0.43364   0.01267  Uiso   1.00
O26    O     0.47741   0.51819   0.09168   0.01267  Uiso   1.00
O27    O     0.02409   0.12251   0.51370   0.01267  Uiso   1.00
O28    O     0.46869   0.60413   0.01190   0.01267  Uiso   1.00
O29    O     0.45485   0.95613   0.43364   0.01267  Uiso   1.00
O30    O     0.43091   0.89013   0.09168   0.01267  Uiso   1.00
O31    O     0.46221   0.86379   0.51370   0.01267  Uiso   1.00
O32    O     0.51941   0.88397   0.01190   0.01267  Uiso   1.00
