data_ANUGEW_clean
_audit_creation_date              2014-07-02
_audit_creation_method            'Materials Studio'
_symmetry_space_group_name_H-M    'P1'
_symmetry_Int_Tables_number       1
_symmetry_cell_setting            triclinic
loop_
_symmetry_equiv_pos_as_xyz
  x,y,z
_cell_length_a                    24.6055
_cell_length_b                    26.5489
_cell_length_c                    26.5488
_cell_angle_alpha                 77.5996
_cell_angle_beta                  62.3931
_cell_angle_gamma                 62.3931
loop_
_atom_site_label
_atom_site_type_symbol
_atom_site_fract_x
_atom_site_fract_y
_atom_site_fract_z
_atom_site_U_iso_or_equiv
_atom_site_adp_type
_atom_site_occupancy
Cu1    Cu    0.04565   0.49251   0.01659   0.01267  Uiso   1.00
Cu2    Cu    0.44525   0.01659   0.49251   0.01267  Uiso   1.00
Cu3    Cu    0.95435   0.98341   0.50749   0.01267  Uiso   1.00
Cu4    Cu    0.55475   0.50749   0.98341   0.01267  Uiso   1.00
Cu5    Cu    0.95435   0.50749   0.98341   0.01267  Uiso   1.00
Cu6    Cu    0.55475   0.98341   0.50749   0.01267  Uiso   1.00
Cu7    Cu    0.04565   0.01659   0.49251   0.01267  Uiso   1.00
Cu8    Cu    0.44525   0.49251   0.01659   0.01267  Uiso   1.00
Cu9    Cu    0.53981   0.46019   0.46019   0.01267  Uiso   1.00
Cu10   Cu    0.46019   0.53981   0.53981   0.01267  Uiso   1.00
Cu11   Cu    0.00000   0.96013   0.03987   0.01267  Uiso   1.00
Cu12   Cu    0.00000   0.03987   0.96013   0.01267  Uiso   1.00
H1     H     0.66850   0.53650   0.34510   0.01267  Uiso   1.00
H2     H     0.82500   0.59680   0.27460   0.01267  Uiso   1.00
H3     H     0.90960   0.56490   0.18690   0.01267  Uiso   1.00
H4     H     0.78980   0.53340   0.14960   0.01267  Uiso   1.00
H5     H     0.70090   0.56740   0.24080   0.01267  Uiso   1.00
H6     H     0.04310   0.65920   0.98500   0.01267  Uiso   1.00
H7     H     0.03950   0.74820   0.95380   0.01267  Uiso   1.00
H8     H     0.90470   0.77310   0.89370   0.01267  Uiso   1.00
H9     H     0.91360   0.68170   0.92210   0.01267  Uiso   1.00
H10    H     0.97300   0.84910   0.96770   0.01267  Uiso   1.00
H11    H     0.44990   0.34510   0.53650   0.01267  Uiso   1.00
H12    H     0.30360   0.27460   0.59680   0.01267  Uiso   1.00
H13    H     0.33860   0.18690   0.56490   0.01267  Uiso   1.00
H14    H     0.52720   0.14960   0.53340   0.01267  Uiso   1.00
H15    H     0.49090   0.24080   0.56740   0.01267  Uiso   1.00
H16    H     0.31270   0.98500   0.65920   0.01267  Uiso   1.00
H17    H     0.25850   0.95380   0.74820   0.01267  Uiso   1.00
H18    H     0.42850   0.89370   0.77310   0.01267  Uiso   1.00
H19    H     0.48260   0.92210   0.68170   0.01267  Uiso   1.00
H20    H     0.21020   0.96770   0.84910   0.01267  Uiso   1.00
H21    H     0.33150   0.65490   0.46350   0.01267  Uiso   1.00
H22    H     0.17500   0.72540   0.40320   0.01267  Uiso   1.00
H23    H     0.09040   0.81310   0.43510   0.01267  Uiso   1.00
H24    H     0.21020   0.85040   0.46660   0.01267  Uiso   1.00
H25    H     0.29910   0.75920   0.43260   0.01267  Uiso   1.00
H26    H     0.95690   0.01500   0.34080   0.01267  Uiso   1.00
H27    H     0.96050   0.04620   0.25180   0.01267  Uiso   1.00
H28    H     0.09530   0.10630   0.22690   0.01267  Uiso   1.00
H29    H     0.08640   0.07790   0.31830   0.01267  Uiso   1.00
H30    H     0.02700   0.03230   0.15090   0.01267  Uiso   1.00
H31    H     0.55010   0.46350   0.65490   0.01267  Uiso   1.00
H32    H     0.69640   0.40320   0.72540   0.01267  Uiso   1.00
H33    H     0.66140   0.43510   0.81310   0.01267  Uiso   1.00
H34    H     0.47280   0.46660   0.85040   0.01267  Uiso   1.00
H35    H     0.50910   0.43260   0.75920   0.01267  Uiso   1.00
H36    H     0.68730   0.34080   0.01500   0.01267  Uiso   1.00
H37    H     0.74150   0.25180   0.04620   0.01267  Uiso   1.00
H38    H     0.57150   0.22690   0.10630   0.01267  Uiso   1.00
H39    H     0.51740   0.31830   0.07790   0.01267  Uiso   1.00
H40    H     0.78980   0.15090   0.03230   0.01267  Uiso   1.00
H41    H     0.33150   0.46350   0.65490   0.01267  Uiso   1.00
H42    H     0.17500   0.40320   0.72540   0.01267  Uiso   1.00
H43    H     0.09040   0.43510   0.81310   0.01267  Uiso   1.00
H44    H     0.21020   0.46660   0.85040   0.01267  Uiso   1.00
H45    H     0.29910   0.43260   0.75920   0.01267  Uiso   1.00
H46    H     0.95690   0.34080   0.01500   0.01267  Uiso   1.00
H47    H     0.96050   0.25180   0.04620   0.01267  Uiso   1.00
H48    H     0.09530   0.22690   0.10630   0.01267  Uiso   1.00
H49    H     0.08640   0.31830   0.07790   0.01267  Uiso   1.00
H50    H     0.02700   0.15090   0.03230   0.01267  Uiso   1.00
H51    H     0.55010   0.65490   0.46350   0.01267  Uiso   1.00
H52    H     0.69640   0.72540   0.40320   0.01267  Uiso   1.00
H53    H     0.66140   0.81310   0.43510   0.01267  Uiso   1.00
H54    H     0.47280   0.85040   0.46660   0.01267  Uiso   1.00
H55    H     0.50910   0.75920   0.43260   0.01267  Uiso   1.00
H56    H     0.68730   0.01500   0.34080   0.01267  Uiso   1.00
H57    H     0.74150   0.04620   0.25180   0.01267  Uiso   1.00
H58    H     0.57150   0.10630   0.22690   0.01267  Uiso   1.00
H59    H     0.51740   0.07790   0.31830   0.01267  Uiso   1.00
H60    H     0.78980   0.03230   0.15090   0.01267  Uiso   1.00
H61    H     0.66850   0.34510   0.53650   0.01267  Uiso   1.00
H62    H     0.82500   0.27460   0.59680   0.01267  Uiso   1.00
H63    H     0.90960   0.18690   0.56490   0.01267  Uiso   1.00
H64    H     0.78980   0.14960   0.53340   0.01267  Uiso   1.00
H65    H     0.70090   0.24080   0.56740   0.01267  Uiso   1.00
H66    H     0.04310   0.98500   0.65920   0.01267  Uiso   1.00
H67    H     0.03950   0.95380   0.74820   0.01267  Uiso   1.00
H68    H     0.90470   0.89370   0.77310   0.01267  Uiso   1.00
H69    H     0.91360   0.92210   0.68170   0.01267  Uiso   1.00
H70    H     0.97300   0.96770   0.84910   0.01267  Uiso   1.00
H71    H     0.44990   0.53650   0.34510   0.01267  Uiso   1.00
H72    H     0.30360   0.59680   0.27460   0.01267  Uiso   1.00
H73    H     0.33860   0.56490   0.18690   0.01267  Uiso   1.00
H74    H     0.52720   0.53340   0.14960   0.01267  Uiso   1.00
H75    H     0.49090   0.56740   0.24080   0.01267  Uiso   1.00
H76    H     0.31270   0.65920   0.98500   0.01267  Uiso   1.00
H77    H     0.25850   0.74820   0.95380   0.01267  Uiso   1.00
H78    H     0.42850   0.77310   0.89370   0.01267  Uiso   1.00
H79    H     0.48260   0.68170   0.92210   0.01267  Uiso   1.00
H80    H     0.21020   0.84910   0.96770   0.01267  Uiso   1.00
H81    H     0.70800   0.67650   0.32350   0.01267  Uiso   1.00
H82    H     0.29200   0.32350   0.67650   0.01267  Uiso   1.00
H83    H     0.29200   0.67650   0.32350   0.01267  Uiso   1.00
H84    H     0.70800   0.32350   0.67650   0.01267  Uiso   1.00
H85    H     0.96910   0.82450   0.82450   0.01267  Uiso   1.00
H86    H     0.38190   0.82450   0.82450   0.01267  Uiso   1.00
H87    H     0.03090   0.17550   0.17550   0.01267  Uiso   1.00
H88    H     0.61810   0.17550   0.17550   0.01267  Uiso   1.00
C1     C     0.65958   0.57020   0.35964   0.01267  Uiso   1.00
C2     C     0.70118   0.60123   0.32601   0.01267  Uiso   1.00
C3     C     0.75840   0.58140   0.26880   0.01267  Uiso   1.00
C4     C     0.81710   0.58280   0.25020   0.01267  Uiso   1.00
C5     C     0.86730   0.56520   0.19740   0.01267  Uiso   1.00
C6     C     0.85610   0.54820   0.15980   0.01267  Uiso   1.00
C7     C     0.79670   0.54670   0.17530   0.01267  Uiso   1.00
C8     C     0.74390   0.56550   0.23030   0.01267  Uiso   1.00
C9     C     0.91530   0.52758   0.10102   0.01267  Uiso   1.00
C10    C     0.98720   0.60180   0.97480   0.01267  Uiso   1.00
C11    C     0.97990   0.66190   0.95610   0.01267  Uiso   1.00
C12    C     0.01600   0.68210   0.96570   0.01267  Uiso   1.00
C13    C     0.01350   0.73510   0.94770   0.01267  Uiso   1.00
C14    C     0.97250   0.76935   0.92025   0.01267  Uiso   1.00
C15    C     0.93360   0.74975   0.91125   0.01267  Uiso   1.00
C16    C     0.93850   0.69570   0.92870   0.01267  Uiso   1.00
C17    C     0.97040   0.82729   0.90191   0.01267  Uiso   1.00
C18    C     0.97311   0.86135   0.93163   0.01267  Uiso   1.00
C19    C     0.41058   0.35964   0.57020   0.01267  Uiso   1.00
C20    C     0.37158   0.32601   0.60123   0.01267  Uiso   1.00
C21    C     0.39140   0.26880   0.58140   0.01267  Uiso   1.00
C22    C     0.34990   0.25020   0.58280   0.01267  Uiso   1.00
C23    C     0.37010   0.19740   0.56520   0.01267  Uiso   1.00
C24    C     0.43590   0.15980   0.54820   0.01267  Uiso   1.00
C25    C     0.48130   0.17530   0.54670   0.01267  Uiso   1.00
C26    C     0.46030   0.23030   0.56550   0.01267  Uiso   1.00
C27    C     0.45610   0.10102   0.52758   0.01267  Uiso   1.00
C28    C     0.43620   0.97480   0.60180   0.01267  Uiso   1.00
C29    C     0.40210   0.95610   0.66190   0.01267  Uiso   1.00
C30    C     0.33620   0.96570   0.68210   0.01267  Uiso   1.00
C31    C     0.30370   0.94770   0.73510   0.01267  Uiso   1.00
C32    C     0.33790   0.92025   0.76935   0.01267  Uiso   1.00
C33    C     0.40540   0.91125   0.74975   0.01267  Uiso   1.00
C34    C     0.43710   0.92870   0.69570   0.01267  Uiso   1.00
C35    C     0.30040   0.90191   0.82729   0.01267  Uiso   1.00
C36    C     0.23391   0.93163   0.86135   0.01267  Uiso   1.00
C37    C     0.34042   0.64036   0.42980   0.01267  Uiso   1.00
C38    C     0.29882   0.67399   0.39877   0.01267  Uiso   1.00
C39    C     0.24160   0.73120   0.41860   0.01267  Uiso   1.00
C40    C     0.18290   0.74980   0.41720   0.01267  Uiso   1.00
C41    C     0.13270   0.80260   0.43480   0.01267  Uiso   1.00
C42    C     0.14390   0.84020   0.45180   0.01267  Uiso   1.00
C43    C     0.20330   0.82470   0.45330   0.01267  Uiso   1.00
C44    C     0.25610   0.76970   0.43450   0.01267  Uiso   1.00
C45    C     0.08470   0.89898   0.47242   0.01267  Uiso   1.00
C46    C     0.01280   0.02520   0.39820   0.01267  Uiso   1.00
C47    C     0.02010   0.04390   0.33810   0.01267  Uiso   1.00
C48    C     0.98400   0.03430   0.31790   0.01267  Uiso   1.00
C49    C     0.98650   0.05230   0.26490   0.01267  Uiso   1.00
C50    C     0.02750   0.07975   0.23065   0.01267  Uiso   1.00
C51    C     0.06640   0.08875   0.25025   0.01267  Uiso   1.00
C52    C     0.06150   0.07130   0.30430   0.01267  Uiso   1.00
C53    C     0.02960   0.09809   0.17271   0.01267  Uiso   1.00
C54    C     0.02689   0.06837   0.13865   0.01267  Uiso   1.00
C55    C     0.58942   0.42980   0.64036   0.01267  Uiso   1.00
C56    C     0.62842   0.39877   0.67399   0.01267  Uiso   1.00
C57    C     0.60860   0.41860   0.73120   0.01267  Uiso   1.00
C58    C     0.65010   0.41720   0.74980   0.01267  Uiso   1.00
C59    C     0.62990   0.43480   0.80260   0.01267  Uiso   1.00
C60    C     0.56410   0.45180   0.84020   0.01267  Uiso   1.00
C61    C     0.51870   0.45330   0.82470   0.01267  Uiso   1.00
C62    C     0.53970   0.43450   0.76970   0.01267  Uiso   1.00
C63    C     0.54390   0.47242   0.89898   0.01267  Uiso   1.00
C64    C     0.56380   0.39820   0.02520   0.01267  Uiso   1.00
C65    C     0.59790   0.33810   0.04390   0.01267  Uiso   1.00
C66    C     0.66380   0.31790   0.03430   0.01267  Uiso   1.00
C67    C     0.69630   0.26490   0.05230   0.01267  Uiso   1.00
C68    C     0.66210   0.23065   0.07975   0.01267  Uiso   1.00
C69    C     0.59460   0.25025   0.08875   0.01267  Uiso   1.00
C70    C     0.56290   0.30430   0.07130   0.01267  Uiso   1.00
C71    C     0.69960   0.17271   0.09809   0.01267  Uiso   1.00
C72    C     0.76609   0.13865   0.06837   0.01267  Uiso   1.00
C73    C     0.34042   0.42980   0.64036   0.01267  Uiso   1.00
C74    C     0.29882   0.39877   0.67399   0.01267  Uiso   1.00
C75    C     0.24160   0.41860   0.73120   0.01267  Uiso   1.00
C76    C     0.18290   0.41720   0.74980   0.01267  Uiso   1.00
C77    C     0.13270   0.43480   0.80260   0.01267  Uiso   1.00
C78    C     0.14390   0.45180   0.84020   0.01267  Uiso   1.00
C79    C     0.20330   0.45330   0.82470   0.01267  Uiso   1.00
C80    C     0.25610   0.43450   0.76970   0.01267  Uiso   1.00
C81    C     0.08470   0.47242   0.89898   0.01267  Uiso   1.00
C82    C     0.01280   0.39820   0.02520   0.01267  Uiso   1.00
C83    C     0.02010   0.33810   0.04390   0.01267  Uiso   1.00
C84    C     0.98400   0.31790   0.03430   0.01267  Uiso   1.00
C85    C     0.98650   0.26490   0.05230   0.01267  Uiso   1.00
C86    C     0.02750   0.23065   0.07975   0.01267  Uiso   1.00
C87    C     0.06640   0.25025   0.08875   0.01267  Uiso   1.00
C88    C     0.06150   0.30430   0.07130   0.01267  Uiso   1.00
C89    C     0.02960   0.17271   0.09809   0.01267  Uiso   1.00
C90    C     0.02689   0.13865   0.06837   0.01267  Uiso   1.00
C91    C     0.58942   0.64036   0.42980   0.01267  Uiso   1.00
C92    C     0.62842   0.67399   0.39877   0.01267  Uiso   1.00
C93    C     0.60860   0.73120   0.41860   0.01267  Uiso   1.00
C94    C     0.65010   0.74980   0.41720   0.01267  Uiso   1.00
C95    C     0.62990   0.80260   0.43480   0.01267  Uiso   1.00
C96    C     0.56410   0.84020   0.45180   0.01267  Uiso   1.00
C97    C     0.51870   0.82470   0.45330   0.01267  Uiso   1.00
C98    C     0.53970   0.76970   0.43450   0.01267  Uiso   1.00
C99    C     0.54390   0.89898   0.47242   0.01267  Uiso   1.00
C100   C     0.56380   0.02520   0.39820   0.01267  Uiso   1.00
C101   C     0.59790   0.04390   0.33810   0.01267  Uiso   1.00
C102   C     0.66380   0.03430   0.31790   0.01267  Uiso   1.00
C103   C     0.69630   0.05230   0.26490   0.01267  Uiso   1.00
C104   C     0.66210   0.07975   0.23065   0.01267  Uiso   1.00
C105   C     0.59460   0.08875   0.25025   0.01267  Uiso   1.00
C106   C     0.56290   0.07130   0.30430   0.01267  Uiso   1.00
C107   C     0.69960   0.09809   0.17271   0.01267  Uiso   1.00
C108   C     0.76609   0.06837   0.13865   0.01267  Uiso   1.00
C109   C     0.65958   0.35964   0.57020   0.01267  Uiso   1.00
C110   C     0.70118   0.32601   0.60123   0.01267  Uiso   1.00
C111   C     0.75840   0.26880   0.58140   0.01267  Uiso   1.00
C112   C     0.81710   0.25020   0.58280   0.01267  Uiso   1.00
C113   C     0.86730   0.19740   0.56520   0.01267  Uiso   1.00
C114   C     0.85610   0.15980   0.54820   0.01267  Uiso   1.00
C115   C     0.79670   0.17530   0.54670   0.01267  Uiso   1.00
C116   C     0.74390   0.23030   0.56550   0.01267  Uiso   1.00
C117   C     0.91530   0.10102   0.52758   0.01267  Uiso   1.00
C118   C     0.98720   0.97480   0.60180   0.01267  Uiso   1.00
C119   C     0.97990   0.95610   0.66190   0.01267  Uiso   1.00
C120   C     0.01600   0.96570   0.68210   0.01267  Uiso   1.00
C121   C     0.01350   0.94770   0.73510   0.01267  Uiso   1.00
C122   C     0.97250   0.92025   0.76935   0.01267  Uiso   1.00
C123   C     0.93360   0.91125   0.74975   0.01267  Uiso   1.00
C124   C     0.93850   0.92870   0.69570   0.01267  Uiso   1.00
C125   C     0.97040   0.90191   0.82729   0.01267  Uiso   1.00
C126   C     0.97311   0.93163   0.86135   0.01267  Uiso   1.00
C127   C     0.41058   0.57020   0.35964   0.01267  Uiso   1.00
C128   C     0.37158   0.60123   0.32601   0.01267  Uiso   1.00
C129   C     0.39140   0.58140   0.26880   0.01267  Uiso   1.00
C130   C     0.34990   0.58280   0.25020   0.01267  Uiso   1.00
C131   C     0.37010   0.56520   0.19740   0.01267  Uiso   1.00
C132   C     0.43590   0.54820   0.15980   0.01267  Uiso   1.00
C133   C     0.48130   0.54670   0.17530   0.01267  Uiso   1.00
C134   C     0.46030   0.56550   0.23030   0.01267  Uiso   1.00
C135   C     0.45610   0.52758   0.10102   0.01267  Uiso   1.00
C136   C     0.43620   0.60180   0.97480   0.01267  Uiso   1.00
C137   C     0.40210   0.66190   0.95610   0.01267  Uiso   1.00
C138   C     0.33620   0.68210   0.96570   0.01267  Uiso   1.00
C139   C     0.30370   0.73510   0.94770   0.01267  Uiso   1.00
C140   C     0.33790   0.76935   0.92025   0.01267  Uiso   1.00
C141   C     0.40540   0.74975   0.91125   0.01267  Uiso   1.00
C142   C     0.43710   0.69570   0.92870   0.01267  Uiso   1.00
C143   C     0.30040   0.82729   0.90191   0.01267  Uiso   1.00
C144   C     0.23391   0.86135   0.93163   0.01267  Uiso   1.00
C145   C     0.57100   0.55470   0.44530   0.01267  Uiso   1.00
C146   C     0.60890   0.58910   0.41090   0.01267  Uiso   1.00
C147   C     0.68370   0.65470   0.34530   0.01267  Uiso   1.00
C148   C     0.42900   0.44530   0.55470   0.01267  Uiso   1.00
C149   C     0.39110   0.41090   0.58910   0.01267  Uiso   1.00
C150   C     0.31630   0.34530   0.65470   0.01267  Uiso   1.00
C151   C     0.42900   0.55470   0.44530   0.01267  Uiso   1.00
C152   C     0.39110   0.58910   0.41090   0.01267  Uiso   1.00
C153   C     0.31630   0.65470   0.34530   0.01267  Uiso   1.00
C154   C     0.57100   0.44530   0.55470   0.01267  Uiso   1.00
C155   C     0.60890   0.41090   0.58910   0.01267  Uiso   1.00
C156   C     0.68370   0.34530   0.65470   0.01267  Uiso   1.00
C157   C     0.96980   0.84690   0.84690   0.01267  Uiso   1.00
C158   C     0.97600   0.91190   0.91190   0.01267  Uiso   1.00
C159   C     0.97850   0.94740   0.94740   0.01267  Uiso   1.00
C160   C     0.33640   0.84690   0.84690   0.01267  Uiso   1.00
C161   C     0.20020   0.91190   0.91190   0.01267  Uiso   1.00
C162   C     0.12670   0.94740   0.94740   0.01267  Uiso   1.00
C163   C     0.03020   0.15310   0.15310   0.01267  Uiso   1.00
C164   C     0.02400   0.08810   0.08810   0.01267  Uiso   1.00
C165   C     0.02150   0.05260   0.05260   0.01267  Uiso   1.00
C166   C     0.66360   0.15310   0.15310   0.01267  Uiso   1.00
C167   C     0.79980   0.08810   0.08810   0.01267  Uiso   1.00
C168   C     0.87330   0.05260   0.05260   0.01267  Uiso   1.00
O1     O     0.58969   0.50843   0.42373   0.01267  Uiso   1.00
O2     O     0.97304   0.51741   0.09051   0.01267  Uiso   1.00
O3     O     0.02952   0.57121   0.99235   0.01267  Uiso   1.00
O4     O     0.89288   0.52885   0.06359   0.01267  Uiso   1.00
O5     O     0.95113   0.58497   0.96617   0.01267  Uiso   1.00
O6     O     0.98775   0.92367   0.99183   0.01267  Uiso   1.00
O7     O     0.47815   0.42373   0.50843   0.01267  Uiso   1.00
O8     O     0.41904   0.09051   0.51741   0.01267  Uiso   1.00
O9     O     0.40692   0.99235   0.57121   0.01267  Uiso   1.00
O10    O     0.51468   0.06359   0.52885   0.01267  Uiso   1.00
O11    O     0.49773   0.96617   0.58497   0.01267  Uiso   1.00
O12    O     0.09675   0.99183   0.92367   0.01267  Uiso   1.00
O13    O     0.41031   0.57627   0.49157   0.01267  Uiso   1.00
O14    O     0.02696   0.90949   0.48259   0.01267  Uiso   1.00
O15    O     0.97048   0.00765   0.42879   0.01267  Uiso   1.00
O16    O     0.10712   0.93641   0.47115   0.01267  Uiso   1.00
O17    O     0.04887   0.03383   0.41503   0.01267  Uiso   1.00
O18    O     0.01225   0.00817   0.07633   0.01267  Uiso   1.00
O19    O     0.52185   0.49157   0.57627   0.01267  Uiso   1.00
O20    O     0.58096   0.48259   0.90949   0.01267  Uiso   1.00
O21    O     0.59308   0.42879   0.00765   0.01267  Uiso   1.00
O22    O     0.48532   0.47115   0.93641   0.01267  Uiso   1.00
O23    O     0.50227   0.41503   0.03383   0.01267  Uiso   1.00
O24    O     0.90325   0.07633   0.00817   0.01267  Uiso   1.00
O25    O     0.41031   0.49157   0.57627   0.01267  Uiso   1.00
O26    O     0.02696   0.48259   0.90949   0.01267  Uiso   1.00
O27    O     0.97048   0.42879   0.00765   0.01267  Uiso   1.00
O28    O     0.10712   0.47115   0.93641   0.01267  Uiso   1.00
O29    O     0.04887   0.41503   0.03383   0.01267  Uiso   1.00
O30    O     0.01225   0.07633   0.00817   0.01267  Uiso   1.00
O31    O     0.52185   0.57627   0.49157   0.01267  Uiso   1.00
O32    O     0.58096   0.90949   0.48259   0.01267  Uiso   1.00
O33    O     0.59308   0.00765   0.42879   0.01267  Uiso   1.00
O34    O     0.48532   0.93641   0.47115   0.01267  Uiso   1.00
O35    O     0.50227   0.03383   0.41503   0.01267  Uiso   1.00
O36    O     0.90325   0.00817   0.07633   0.01267  Uiso   1.00
O37    O     0.58969   0.42373   0.50843   0.01267  Uiso   1.00
O38    O     0.97304   0.09051   0.51741   0.01267  Uiso   1.00
O39    O     0.02952   0.99235   0.57121   0.01267  Uiso   1.00
O40    O     0.89288   0.06359   0.52885   0.01267  Uiso   1.00
O41    O     0.95113   0.96617   0.58497   0.01267  Uiso   1.00
O42    O     0.98775   0.99183   0.92367   0.01267  Uiso   1.00
O43    O     0.47815   0.50843   0.42373   0.01267  Uiso   1.00
O44    O     0.41904   0.51741   0.09051   0.01267  Uiso   1.00
O45    O     0.40692   0.57121   0.99235   0.01267  Uiso   1.00
O46    O     0.51468   0.52885   0.06359   0.01267  Uiso   1.00
O47    O     0.49773   0.58497   0.96617   0.01267  Uiso   1.00
O48    O     0.09675   0.92367   0.99183   0.01267  Uiso   1.00
