data_image0
_cell_length_a       22.2003
_cell_length_b       22.2003
_cell_length_c       7.7298
_cell_angle_alpha    90
_cell_angle_beta     90
_cell_angle_gamma    120

_symmetry_space_group_name_H-M    "P 1"
_symmetry_int_tables_number       1

loop_
  _symmetry_equiv_pos_as_xyz
  'x, y, z'

loop_
  _atom_site_label
  _atom_site_occupancy
  _atom_site_fract_x
  _atom_site_fract_y
  _atom_site_fract_z
  _atom_site_thermal_displace_type
  _atom_site_B_iso_or_equiv
  _atom_site_type_symbol
  C1       1.0000 0.48180  0.81250  0.85450  Biso   1.000  C
  H1       1.0000 0.45660  0.83520  0.86860  Biso   1.000  H
  O1       1.0000 0.50480  0.91910  0.63640  Biso   1.000  O
  O2       1.0000 0.57750  0.00090  0.33260  Biso   1.000  O
  N1       1.0000 0.50180  0.58060  0.32140  Biso   1.000  N
  C2       1.0000 0.52810  0.83050  0.71250  Biso   1.000  C
  C3       1.0000 0.53540  0.88590  0.59200  Biso   1.000  C
  C4       1.0000 0.51040  0.62000  0.03150  Biso   1.000  C
  H2       1.0000 0.51500  0.61230  0.91530  Biso   1.000  H
  F1       1.0000 0.59970  0.95630  0.01980  Biso   1.000  F
  C5       1.0000 0.50590  0.57330  0.15380  Biso   1.000  C
  H3       1.0000 0.50580  0.53350  0.11550  Biso   1.000  H
  C6       1.0000 0.63350  0.95640  0.16730  Biso   1.000  C
  C7       1.0000 0.59270  0.95380  0.32380  Biso   1.000  C
  C8       1.0000 0.51400  0.73030  0.95390  Biso   1.000  C
  C9       1.0000 0.57460  0.89840  0.43580  Biso   1.000  C
  H4       1.0000 0.58900  0.86690  0.40710  Biso   1.000  H
  F2       1.0000 0.64860  0.90620  0.15110  Biso   1.000  F
  C10      1.0000 0.47320  0.76250  0.97120  Biso   1.000  C
  H5       1.0000 0.44100  0.74990  0.06040  Biso   1.000  H
  C11      1.0000 0.56310  0.79680  0.69530  Biso   1.000  C
  H6       1.0000 0.59460  0.80850  0.60470  Biso   1.000  H
  C12      1.0000 0.55390  0.74410  0.80950  Biso   1.000  C
  H7       1.0000 0.57520  0.71800  0.78650  Biso   1.000  H
  F3       1.0000 0.69250  0.01500  0.16250  Biso   1.000  F
  C13      1.0000 0.49550  0.68170  0.25640  Biso   1.000  C
  H8       1.0000 0.48820  0.71700  0.29650  Biso   1.000  H
  C14      1.0000 0.49440  0.63420  0.36560  Biso   1.000  C
  H9       1.0000 0.48780  0.63930  0.48240  Biso   1.000  H
  C15      1.0000 0.50790  0.67690  0.07970  Biso   1.000  C
  C16      1.0000 0.18750  0.66930  0.85450  Biso   1.000  C
  H10      1.0000 0.16480  0.62140  0.86860  Biso   1.000  H
  O3       1.0000 0.08090  0.58570  0.63640  Biso   1.000  O
  O4       1.0000 0.99910  0.57660  0.33260  Biso   1.000  O
  N2       1.0000 0.41940  0.92120  0.32140  Biso   1.000  N
  C17      1.0000 0.16950  0.69760  0.71250  Biso   1.000  C
  C18      1.0000 0.11410  0.64950  0.59200  Biso   1.000  C
  C19      1.0000 0.38000  0.89040  0.03150  Biso   1.000  C
  H11      1.0000 0.38770  0.90270  0.91530  Biso   1.000  H
  F4       1.0000 0.04370  0.64340  0.01980  Biso   1.000  F
  C20      1.0000 0.42670  0.93260  0.15380  Biso   1.000  C
  H12      1.0000 0.46650  0.97230  0.11550  Biso   1.000  H
  C21      1.0000 0.04360  0.67710  0.16730  Biso   1.000  C
  C22      1.0000 0.04620  0.63890  0.32380  Biso   1.000  C
  C23      1.0000 0.26970  0.78370  0.95390  Biso   1.000  C
  C24      1.0000 0.10160  0.67620  0.43580  Biso   1.000  C
  H13      1.0000 0.13310  0.72210  0.40710  Biso   1.000  H
  F5       1.0000 0.09380  0.74240  0.15110  Biso   1.000  F
  C25      1.0000 0.23750  0.71070  0.97120  Biso   1.000  C
  H14      1.0000 0.25010  0.69110  0.06040  Biso   1.000  H
  C26      1.0000 0.20320  0.76630  0.69530  Biso   1.000  C
  H15      1.0000 0.19150  0.78610  0.60470  Biso   1.000  H
  C27      1.0000 0.25590  0.80980  0.80950  Biso   1.000  C
  H16      1.0000 0.28200  0.85720  0.78650  Biso   1.000  H
  F6       1.0000 0.98500  0.67750  0.16250  Biso   1.000  F
  C28      1.0000 0.31830  0.81380  0.25640  Biso   1.000  C
  H17      1.0000 0.28300  0.77120  0.29650  Biso   1.000  H
  C29      1.0000 0.36580  0.86020  0.36560  Biso   1.000  C
  H18      1.0000 0.36070  0.84850  0.48240  Biso   1.000  H
  C30      1.0000 0.32310  0.83100  0.07970  Biso   1.000  C
  C31      1.0000 0.33070  0.51820  0.85450  Biso   1.000  C
  H19      1.0000 0.37860  0.54340  0.86860  Biso   1.000  H
  O5       1.0000 0.41430  0.49520  0.63640  Biso   1.000  O
  O6       1.0000 0.42340  0.42250  0.33260  Biso   1.000  O
  N3       1.0000 0.07880  0.49820  0.32140  Biso   1.000  N
  C32      1.0000 0.30240  0.47190  0.71250  Biso   1.000  C
  C33      1.0000 0.35050  0.46460  0.59200  Biso   1.000  C
  C34      1.0000 0.10960  0.48960  0.03150  Biso   1.000  C
  H20      1.0000 0.09730  0.48500  0.91530  Biso   1.000  H
  F7       1.0000 0.35660  0.40030  0.01980  Biso   1.000  F
  C35      1.0000 0.06740  0.49410  0.15380  Biso   1.000  C
  H21      1.0000 0.02770  0.49420  0.11550  Biso   1.000  H
  C36      1.0000 0.32290  0.36650  0.16730  Biso   1.000  C
  C37      1.0000 0.36110  0.40730  0.32380  Biso   1.000  C
  C38      1.0000 0.21630  0.48600  0.95390  Biso   1.000  C
  C39      1.0000 0.32380  0.42540  0.43580  Biso   1.000  C
  H22      1.0000 0.27790  0.41100  0.40710  Biso   1.000  H
  F8       1.0000 0.25760  0.35140  0.15110  Biso   1.000  F
  C40      1.0000 0.28930  0.52680  0.97120  Biso   1.000  C
  H23      1.0000 0.30890  0.55900  0.06040  Biso   1.000  H
  C41      1.0000 0.23370  0.43690  0.69530  Biso   1.000  C
  H24      1.0000 0.21390  0.40540  0.60470  Biso   1.000  H
  C42      1.0000 0.19020  0.44610  0.80950  Biso   1.000  C
  H25      1.0000 0.14280  0.42480  0.78650  Biso   1.000  H
  F9       1.0000 0.32250  0.30750  0.16250  Biso   1.000  F
  C43      1.0000 0.18620  0.50450  0.25640  Biso   1.000  C
  H26      1.0000 0.22880  0.51180  0.29650  Biso   1.000  H
  C44      1.0000 0.13980  0.50560  0.36560  Biso   1.000  C
  H27      1.0000 0.15150  0.51220  0.48240  Biso   1.000  H
  C45      1.0000 0.16900  0.49210  0.07970  Biso   1.000  C
  C46      1.0000 0.51820  0.18750  0.14550  Biso   1.000  C
  H28      1.0000 0.54340  0.16480  0.13140  Biso   1.000  H
  O7       1.0000 0.49520  0.08090  0.36360  Biso   1.000  O
  O8       1.0000 0.42250  0.99910  0.66740  Biso   1.000  O
  N4       1.0000 0.49820  0.41940  0.67860  Biso   1.000  N
  C47      1.0000 0.47190  0.16950  0.28750  Biso   1.000  C
  C48      1.0000 0.46460  0.11410  0.40800  Biso   1.000  C
  C49      1.0000 0.48960  0.38000  0.96850  Biso   1.000  C
  H29      1.0000 0.48500  0.38770  0.08470  Biso   1.000  H
  F10      1.0000 0.40030  0.04370  0.98020  Biso   1.000  F
  C50      1.0000 0.49410  0.42670  0.84620  Biso   1.000  C
  H30      1.0000 0.49420  0.46650  0.88450  Biso   1.000  H
  C51      1.0000 0.36650  0.04360  0.83270  Biso   1.000  C
  C52      1.0000 0.40730  0.04620  0.67620  Biso   1.000  C
  C53      1.0000 0.48600  0.26970  0.04610  Biso   1.000  C
  C54      1.0000 0.42540  0.10160  0.56420  Biso   1.000  C
  H31      1.0000 0.41100  0.13310  0.59290  Biso   1.000  H
  F11      1.0000 0.35140  0.09380  0.84890  Biso   1.000  F
  C55      1.0000 0.52680  0.23750  0.02880  Biso   1.000  C
  H32      1.0000 0.55900  0.25010  0.93960  Biso   1.000  H
  C56      1.0000 0.43690  0.20320  0.30470  Biso   1.000  C
  H33      1.0000 0.40540  0.19150  0.39530  Biso   1.000  H
  C57      1.0000 0.44610  0.25590  0.19050  Biso   1.000  C
  H34      1.0000 0.42480  0.28200  0.21350  Biso   1.000  H
  F12      1.0000 0.30750  0.98500  0.83750  Biso   1.000  F
  C58      1.0000 0.50450  0.31830  0.74360  Biso   1.000  C
  H35      1.0000 0.51180  0.28300  0.70350  Biso   1.000  H
  C59      1.0000 0.50560  0.36580  0.63440  Biso   1.000  C
  H36      1.0000 0.51220  0.36070  0.51760  Biso   1.000  H
  C60      1.0000 0.49210  0.32310  0.92030  Biso   1.000  C
  C61      1.0000 0.81250  0.33070  0.14550  Biso   1.000  C
  H37      1.0000 0.83520  0.37860  0.13140  Biso   1.000  H
  O9       1.0000 0.91910  0.41430  0.36360  Biso   1.000  O
  O10      1.0000 0.00090  0.42340  0.66740  Biso   1.000  O
  N5       1.0000 0.58060  0.07880  0.67860  Biso   1.000  N
  C62      1.0000 0.83050  0.30240  0.28750  Biso   1.000  C
  C63      1.0000 0.88590  0.35050  0.40800  Biso   1.000  C
  C64      1.0000 0.62000  0.10960  0.96850  Biso   1.000  C
  H38      1.0000 0.61230  0.09730  0.08470  Biso   1.000  H
  F13      1.0000 0.95630  0.35660  0.98020  Biso   1.000  F
  C65      1.0000 0.57330  0.06740  0.84620  Biso   1.000  C
  H39      1.0000 0.53350  0.02770  0.88450  Biso   1.000  H
  C66      1.0000 0.95640  0.32290  0.83270  Biso   1.000  C
  C67      1.0000 0.95380  0.36110  0.67620  Biso   1.000  C
  C68      1.0000 0.73030  0.21630  0.04610  Biso   1.000  C
  C69      1.0000 0.89840  0.32380  0.56420  Biso   1.000  C
  H40      1.0000 0.86690  0.27790  0.59290  Biso   1.000  H
  F14      1.0000 0.90620  0.25760  0.84890  Biso   1.000  F
  C70      1.0000 0.76250  0.28930  0.02880  Biso   1.000  C
  H41      1.0000 0.74990  0.30890  0.93960  Biso   1.000  H
  C71      1.0000 0.79680  0.23370  0.30470  Biso   1.000  C
  H42      1.0000 0.80850  0.21390  0.39530  Biso   1.000  H
  C72      1.0000 0.74410  0.19020  0.19050  Biso   1.000  C
  H43      1.0000 0.71800  0.14280  0.21350  Biso   1.000  H
  F15      1.0000 0.01500  0.32250  0.83750  Biso   1.000  F
  C73      1.0000 0.68170  0.18620  0.74360  Biso   1.000  C
  H44      1.0000 0.71700  0.22880  0.70350  Biso   1.000  H
  C74      1.0000 0.63420  0.13980  0.63440  Biso   1.000  C
  H45      1.0000 0.63930  0.15150  0.51760  Biso   1.000  H
  C75      1.0000 0.67690  0.16900  0.92030  Biso   1.000  C
  C76      1.0000 0.66930  0.48180  0.14550  Biso   1.000  C
  H46      1.0000 0.62140  0.45660  0.13140  Biso   1.000  H
  O11      1.0000 0.58570  0.50480  0.36360  Biso   1.000  O
  O12      1.0000 0.57660  0.57750  0.66740  Biso   1.000  O
  N6       1.0000 0.92120  0.50180  0.67860  Biso   1.000  N
  C77      1.0000 0.69760  0.52810  0.28750  Biso   1.000  C
  C78      1.0000 0.64950  0.53540  0.40800  Biso   1.000  C
  C79      1.0000 0.89040  0.51040  0.96850  Biso   1.000  C
  H47      1.0000 0.90270  0.51500  0.08470  Biso   1.000  H
  F16      1.0000 0.64340  0.59970  0.98020  Biso   1.000  F
  C80      1.0000 0.93260  0.50590  0.84620  Biso   1.000  C
  H48      1.0000 0.97230  0.50580  0.88450  Biso   1.000  H
  C81      1.0000 0.67710  0.63350  0.83270  Biso   1.000  C
  C82      1.0000 0.63890  0.59270  0.67620  Biso   1.000  C
  C83      1.0000 0.78370  0.51400  0.04610  Biso   1.000  C
  C84      1.0000 0.67620  0.57460  0.56420  Biso   1.000  C
  H49      1.0000 0.72210  0.58900  0.59290  Biso   1.000  H
  F17      1.0000 0.74240  0.64860  0.84890  Biso   1.000  F
  C85      1.0000 0.71070  0.47320  0.02880  Biso   1.000  C
  H50      1.0000 0.69110  0.44100  0.93960  Biso   1.000  H
  C86      1.0000 0.76630  0.56310  0.30470  Biso   1.000  C
  H51      1.0000 0.78610  0.59460  0.39530  Biso   1.000  H
  C87      1.0000 0.80980  0.55390  0.19050  Biso   1.000  C
  H52      1.0000 0.85720  0.57520  0.21350  Biso   1.000  H
  F18      1.0000 0.67750  0.69250  0.83750  Biso   1.000  F
  C88      1.0000 0.81380  0.49550  0.74360  Biso   1.000  C
  H53      1.0000 0.77120  0.48820  0.70350  Biso   1.000  H
  C89      1.0000 0.86020  0.49440  0.63440  Biso   1.000  C
  H54      1.0000 0.84850  0.48780  0.51760  Biso   1.000  H
  C90      1.0000 0.83100  0.50790  0.92030  Biso   1.000  C
  Mn1      1.0000 0.50000  0.00000  0.50000  Biso   1.000  Mn
  Mn2      1.0000 0.00000  0.50000  0.50000  Biso   1.000  Mn
  Mn3      1.0000 0.50000  0.50000  0.50000  Biso   1.000  Mn
