data_image0
_cell_length_a       33.13
_cell_length_b       13.572
_cell_length_c       14.049
_cell_angle_alpha    90
_cell_angle_beta     101.324
_cell_angle_gamma    90

_symmetry_space_group_name_H-M    "P 1"
_symmetry_int_tables_number       1

loop_
  _symmetry_equiv_pos_as_xyz
  'x, y, z'

loop_
  _atom_site_label
  _atom_site_occupancy
  _atom_site_fract_x
  _atom_site_fract_y
  _atom_site_fract_z
  _atom_site_thermal_displace_type
  _atom_site_B_iso_or_equiv
  _atom_site_type_symbol
  C1       1.0000 0.24734  0.92420  0.92600  Biso   1.000  C
  C2       1.0000 0.22109  0.99750  0.86360  Biso   1.000  C
  C3       1.0000 0.23778  0.05380  0.79890  Biso   1.000  C
  H1       1.0000 0.26520  0.04620  0.79440  Biso   1.000  H
  C4       1.0000 0.21328  0.12160  0.74090  Biso   1.000  C
  C5       1.0000 0.17282  0.13620  0.75180  Biso   1.000  C
  H2       1.0000 0.15670  0.18300  0.71340  Biso   1.000  H
  C6       1.0000 0.15605  0.08310  0.81800  Biso   1.000  C
  C7       1.0000 0.18012  0.01160  0.87220  Biso   1.000  C
  H3       1.0000 0.16890  0.97250  0.91480  Biso   1.000  H
  C8       1.0000 0.22974  0.17810  0.66430  Biso   1.000  C
  C9       1.0000 0.11361  0.10290  0.83320  Biso   1.000  C
  C10      1.0000 0.09764  0.19870  0.82160  Biso   1.000  C
  H4       1.0000 0.11310  0.24860  0.80090  Biso   1.000  H
  C11      1.0000 0.05892  0.21990  0.84070  Biso   1.000  C
  H5       1.0000 0.04890  0.28390  0.83210  Biso   1.000  H
  C12      1.0000 0.03549  0.14990  0.87140  Biso   1.000  C
  C13      1.0000 0.05062  0.05270  0.88170  Biso   1.000  C
  H6       1.0000 0.03490  0.00300  0.90200  Biso   1.000  H
  C14      1.0000 0.08964  0.03090  0.86130  Biso   1.000  C
  H7       1.0000 0.09920  0.96640  0.86710  Biso   1.000  H
  C15      1.0000 0.99540  0.17350  0.90040  Biso   1.000  C
  C16      1.0000 0.98680  0.26670  0.92380  Biso   1.000  C
  H8       1.0000 0.00620  0.31600  0.92240  Biso   1.000  H
  C17      1.0000 0.94970  0.29070  0.94990  Biso   1.000  C
  H9       1.0000 0.94400  0.35610  0.96220  Biso   1.000  H
  C18      1.0000 0.92128  0.21900  0.95760  Biso   1.000  C
  C19      1.0000 0.92915  0.12610  0.93150  Biso   1.000  C
  H10      1.0000 0.90960  0.07730  0.93300  Biso   1.000  H
  C20      1.0000 0.96583  0.10110  0.90240  Biso   1.000  C
  H11      1.0000 0.97040  0.03670  0.88450  Biso   1.000  H
  C21      1.0000 0.88254  0.24450  0.99190  Biso   1.000  C
  O1       1.0000 0.28530  0.93850  0.94870  Biso   1.000  O
  O2       1.0000 0.23082  0.84810  0.95560  Biso   1.000  O
  O3       1.0000 0.86209  0.17530  0.01830  Biso   1.000  O
  O4       1.0000 0.87138  0.33130  0.99340  Biso   1.000  O
  O5       1.0000 0.20697  0.24190  0.61770  Biso   1.000  O
  O6       1.0000 0.26590  0.15810  0.65530  Biso   1.000  O
  Tb1      1.0000 0.30779  0.79391  0.04524  Biso   1.000  Tb
  C22      1.0000 0.74734  0.42420  0.92600  Biso   1.000  C
  C23      1.0000 0.72109  0.49750  0.86360  Biso   1.000  C
  C24      1.0000 0.73778  0.55380  0.79890  Biso   1.000  C
  H12      1.0000 0.76520  0.54620  0.79440  Biso   1.000  H
  C25      1.0000 0.71328  0.62160  0.74090  Biso   1.000  C
  C26      1.0000 0.67282  0.63620  0.75180  Biso   1.000  C
  H13      1.0000 0.65670  0.68300  0.71340  Biso   1.000  H
  C27      1.0000 0.65605  0.58310  0.81800  Biso   1.000  C
  C28      1.0000 0.68012  0.51160  0.87220  Biso   1.000  C
  H14      1.0000 0.66890  0.47250  0.91480  Biso   1.000  H
  C29      1.0000 0.72974  0.67810  0.66430  Biso   1.000  C
  C30      1.0000 0.61361  0.60290  0.83320  Biso   1.000  C
  C31      1.0000 0.59764  0.69870  0.82160  Biso   1.000  C
  H15      1.0000 0.61310  0.74860  0.80090  Biso   1.000  H
  C32      1.0000 0.55892  0.71990  0.84070  Biso   1.000  C
  H16      1.0000 0.54890  0.78390  0.83210  Biso   1.000  H
  C33      1.0000 0.53549  0.64990  0.87140  Biso   1.000  C
  C34      1.0000 0.55062  0.55270  0.88170  Biso   1.000  C
  H17      1.0000 0.53490  0.50300  0.90200  Biso   1.000  H
  C35      1.0000 0.58964  0.53090  0.86130  Biso   1.000  C
  H18      1.0000 0.59920  0.46640  0.86710  Biso   1.000  H
  C36      1.0000 0.49540  0.67350  0.90040  Biso   1.000  C
  C37      1.0000 0.48680  0.76670  0.92380  Biso   1.000  C
  H19      1.0000 0.50620  0.81600  0.92240  Biso   1.000  H
  C38      1.0000 0.44970  0.79070  0.94990  Biso   1.000  C
  H20      1.0000 0.44400  0.85610  0.96220  Biso   1.000  H
  C39      1.0000 0.42128  0.71900  0.95760  Biso   1.000  C
  C40      1.0000 0.42915  0.62610  0.93150  Biso   1.000  C
  H21      1.0000 0.40960  0.57730  0.93300  Biso   1.000  H
  C41      1.0000 0.46583  0.60110  0.90240  Biso   1.000  C
  H22      1.0000 0.47040  0.53670  0.88450  Biso   1.000  H
  C42      1.0000 0.38254  0.74450  0.99190  Biso   1.000  C
  O7       1.0000 0.78530  0.43850  0.94870  Biso   1.000  O
  O8       1.0000 0.73082  0.34810  0.95560  Biso   1.000  O
  O9       1.0000 0.36209  0.67530  0.01830  Biso   1.000  O
  O10      1.0000 0.37138  0.83130  0.99340  Biso   1.000  O
  O11      1.0000 0.70697  0.74190  0.61770  Biso   1.000  O
  O12      1.0000 0.76590  0.65810  0.65530  Biso   1.000  O
  Tb2      1.0000 0.80779  0.29391  0.04524  Biso   1.000  Tb
  C43      1.0000 0.75266  0.92420  0.57400  Biso   1.000  C
  C44      1.0000 0.77891  0.99750  0.63640  Biso   1.000  C
  C45      1.0000 0.76222  0.05380  0.70110  Biso   1.000  C
  H23      1.0000 0.73480  0.04620  0.70560  Biso   1.000  H
  C46      1.0000 0.78672  0.12160  0.75910  Biso   1.000  C
  C47      1.0000 0.82718  0.13620  0.74820  Biso   1.000  C
  H24      1.0000 0.84330  0.18300  0.78660  Biso   1.000  H
  C48      1.0000 0.84395  0.08310  0.68200  Biso   1.000  C
  C49      1.0000 0.81988  0.01160  0.62780  Biso   1.000  C
  H25      1.0000 0.83110  0.97250  0.58520  Biso   1.000  H
  C50      1.0000 0.77026  0.17810  0.83570  Biso   1.000  C
  C51      1.0000 0.88639  0.10290  0.66680  Biso   1.000  C
  C52      1.0000 0.90236  0.19870  0.67840  Biso   1.000  C
  H26      1.0000 0.88690  0.24860  0.69910  Biso   1.000  H
  C53      1.0000 0.94108  0.21990  0.65930  Biso   1.000  C
  H27      1.0000 0.95110  0.28390  0.66790  Biso   1.000  H
  C54      1.0000 0.96451  0.14990  0.62860  Biso   1.000  C
  C55      1.0000 0.94938  0.05270  0.61830  Biso   1.000  C
  H28      1.0000 0.96510  0.00300  0.59800  Biso   1.000  H
  C56      1.0000 0.91036  0.03090  0.63870  Biso   1.000  C
  H29      1.0000 0.90080  0.96640  0.63290  Biso   1.000  H
  C57      1.0000 0.00460  0.17350  0.59960  Biso   1.000  C
  C58      1.0000 0.01320  0.26670  0.57620  Biso   1.000  C
  H30      1.0000 0.99380  0.31600  0.57760  Biso   1.000  H
  C59      1.0000 0.05030  0.29070  0.55010  Biso   1.000  C
  H31      1.0000 0.05600  0.35610  0.53780  Biso   1.000  H
  C60      1.0000 0.07872  0.21900  0.54240  Biso   1.000  C
  C61      1.0000 0.07085  0.12610  0.56850  Biso   1.000  C
  H32      1.0000 0.09040  0.07730  0.56700  Biso   1.000  H
  C62      1.0000 0.03417  0.10110  0.59760  Biso   1.000  C
  H33      1.0000 0.02960  0.03670  0.61550  Biso   1.000  H
  C63      1.0000 0.11746  0.24450  0.50810  Biso   1.000  C
  O13      1.0000 0.71470  0.93850  0.55130  Biso   1.000  O
  O14      1.0000 0.76918  0.84810  0.54440  Biso   1.000  O
  O15      1.0000 0.13791  0.17530  0.48170  Biso   1.000  O
  O16      1.0000 0.12862  0.33130  0.50660  Biso   1.000  O
  O17      1.0000 0.79303  0.24190  0.88230  Biso   1.000  O
  O18      1.0000 0.73410  0.15810  0.84470  Biso   1.000  O
  Tb3      1.0000 0.69221  0.79391  0.45476  Biso   1.000  Tb
  C64      1.0000 0.25266  0.42420  0.57400  Biso   1.000  C
  C65      1.0000 0.27891  0.49750  0.63640  Biso   1.000  C
  C66      1.0000 0.26222  0.55380  0.70110  Biso   1.000  C
  H34      1.0000 0.23480  0.54620  0.70560  Biso   1.000  H
  C67      1.0000 0.28672  0.62160  0.75910  Biso   1.000  C
  C68      1.0000 0.32718  0.63620  0.74820  Biso   1.000  C
  H35      1.0000 0.34330  0.68300  0.78660  Biso   1.000  H
  C69      1.0000 0.34395  0.58310  0.68200  Biso   1.000  C
  C70      1.0000 0.31988  0.51160  0.62780  Biso   1.000  C
  H36      1.0000 0.33110  0.47250  0.58520  Biso   1.000  H
  C71      1.0000 0.27026  0.67810  0.83570  Biso   1.000  C
  C72      1.0000 0.38639  0.60290  0.66680  Biso   1.000  C
  C73      1.0000 0.40236  0.69870  0.67840  Biso   1.000  C
  H37      1.0000 0.38690  0.74860  0.69910  Biso   1.000  H
  C74      1.0000 0.44108  0.71990  0.65930  Biso   1.000  C
  H38      1.0000 0.45110  0.78390  0.66790  Biso   1.000  H
  C75      1.0000 0.46451  0.64990  0.62860  Biso   1.000  C
  C76      1.0000 0.44938  0.55270  0.61830  Biso   1.000  C
  H39      1.0000 0.46510  0.50300  0.59800  Biso   1.000  H
  C77      1.0000 0.41036  0.53090  0.63870  Biso   1.000  C
  H40      1.0000 0.40080  0.46640  0.63290  Biso   1.000  H
  C78      1.0000 0.50460  0.67350  0.59960  Biso   1.000  C
  C79      1.0000 0.51320  0.76670  0.57620  Biso   1.000  C
  H41      1.0000 0.49380  0.81600  0.57760  Biso   1.000  H
  C80      1.0000 0.55030  0.79070  0.55010  Biso   1.000  C
  H42      1.0000 0.55600  0.85610  0.53780  Biso   1.000  H
  C81      1.0000 0.57872  0.71900  0.54240  Biso   1.000  C
  C82      1.0000 0.57085  0.62610  0.56850  Biso   1.000  C
  H43      1.0000 0.59040  0.57730  0.56700  Biso   1.000  H
  C83      1.0000 0.53417  0.60110  0.59760  Biso   1.000  C
  H44      1.0000 0.52960  0.53670  0.61550  Biso   1.000  H
  C84      1.0000 0.61746  0.74450  0.50810  Biso   1.000  C
  O19      1.0000 0.21470  0.43850  0.55130  Biso   1.000  O
  O20      1.0000 0.26918  0.34810  0.54440  Biso   1.000  O
  O21      1.0000 0.63791  0.67530  0.48170  Biso   1.000  O
  O22      1.0000 0.62862  0.83130  0.50660  Biso   1.000  O
  O23      1.0000 0.29303  0.74190  0.88230  Biso   1.000  O
  O24      1.0000 0.23410  0.65810  0.84470  Biso   1.000  O
  Tb4      1.0000 0.19221  0.29391  0.45476  Biso   1.000  Tb
  C85      1.0000 0.75266  0.07580  0.07400  Biso   1.000  C
  C86      1.0000 0.77891  0.00250  0.13640  Biso   1.000  C
  C87      1.0000 0.76222  0.94620  0.20110  Biso   1.000  C
  H45      1.0000 0.73480  0.95380  0.20560  Biso   1.000  H
  C88      1.0000 0.78672  0.87840  0.25910  Biso   1.000  C
  C89      1.0000 0.82718  0.86380  0.24820  Biso   1.000  C
  H46      1.0000 0.84330  0.81700  0.28660  Biso   1.000  H
  C90      1.0000 0.84395  0.91690  0.18200  Biso   1.000  C
  C91      1.0000 0.81988  0.98840  0.12780  Biso   1.000  C
  H47      1.0000 0.83110  0.02750  0.08520  Biso   1.000  H
  C92      1.0000 0.77026  0.82190  0.33570  Biso   1.000  C
  C93      1.0000 0.88639  0.89710  0.16680  Biso   1.000  C
  C94      1.0000 0.90236  0.80130  0.17840  Biso   1.000  C
  H48      1.0000 0.88690  0.75140  0.19910  Biso   1.000  H
  C95      1.0000 0.94108  0.78010  0.15930  Biso   1.000  C
  H49      1.0000 0.95110  0.71610  0.16790  Biso   1.000  H
  C96      1.0000 0.96451  0.85010  0.12860  Biso   1.000  C
  C97      1.0000 0.94938  0.94730  0.11830  Biso   1.000  C
  H50      1.0000 0.96510  0.99700  0.09800  Biso   1.000  H
  C98      1.0000 0.91036  0.96910  0.13870  Biso   1.000  C
  H51      1.0000 0.90080  0.03360  0.13290  Biso   1.000  H
  C99      1.0000 0.00460  0.82650  0.09960  Biso   1.000  C
  C100     1.0000 0.01320  0.73330  0.07620  Biso   1.000  C
  H52      1.0000 0.99380  0.68400  0.07760  Biso   1.000  H
  C101     1.0000 0.05030  0.70930  0.05010  Biso   1.000  C
  H53      1.0000 0.05600  0.64390  0.03780  Biso   1.000  H
  C102     1.0000 0.07872  0.78100  0.04240  Biso   1.000  C
  C103     1.0000 0.07085  0.87390  0.06850  Biso   1.000  C
  H54      1.0000 0.09040  0.92270  0.06700  Biso   1.000  H
  C104     1.0000 0.03417  0.89890  0.09760  Biso   1.000  C
  H55      1.0000 0.02960  0.96330  0.11550  Biso   1.000  H
  C105     1.0000 0.11746  0.75550  0.00810  Biso   1.000  C
  O25      1.0000 0.71470  0.06150  0.05130  Biso   1.000  O
  O26      1.0000 0.76918  0.15190  0.04440  Biso   1.000  O
  O27      1.0000 0.13791  0.82470  0.98170  Biso   1.000  O
  O28      1.0000 0.12862  0.66870  0.00660  Biso   1.000  O
  O29      1.0000 0.79303  0.75810  0.38230  Biso   1.000  O
  O30      1.0000 0.73410  0.84190  0.34470  Biso   1.000  O
  Tb5      1.0000 0.69221  0.20609  0.95476  Biso   1.000  Tb
  C106     1.0000 0.25266  0.57580  0.07400  Biso   1.000  C
  C107     1.0000 0.27891  0.50250  0.13640  Biso   1.000  C
  C108     1.0000 0.26222  0.44620  0.20110  Biso   1.000  C
  H56      1.0000 0.23480  0.45380  0.20560  Biso   1.000  H
  C109     1.0000 0.28672  0.37840  0.25910  Biso   1.000  C
  C110     1.0000 0.32718  0.36380  0.24820  Biso   1.000  C
  H57      1.0000 0.34330  0.31700  0.28660  Biso   1.000  H
  C111     1.0000 0.34395  0.41690  0.18200  Biso   1.000  C
  C112     1.0000 0.31988  0.48840  0.12780  Biso   1.000  C
  H58      1.0000 0.33110  0.52750  0.08520  Biso   1.000  H
  C113     1.0000 0.27026  0.32190  0.33570  Biso   1.000  C
  C114     1.0000 0.38639  0.39710  0.16680  Biso   1.000  C
  C115     1.0000 0.40236  0.30130  0.17840  Biso   1.000  C
  H59      1.0000 0.38690  0.25140  0.19910  Biso   1.000  H
  C116     1.0000 0.44108  0.28010  0.15930  Biso   1.000  C
  H60      1.0000 0.45110  0.21610  0.16790  Biso   1.000  H
  C117     1.0000 0.46451  0.35010  0.12860  Biso   1.000  C
  C118     1.0000 0.44938  0.44730  0.11830  Biso   1.000  C
  H61      1.0000 0.46510  0.49700  0.09800  Biso   1.000  H
  C119     1.0000 0.41036  0.46910  0.13870  Biso   1.000  C
  H62      1.0000 0.40080  0.53360  0.13290  Biso   1.000  H
  C120     1.0000 0.50460  0.32650  0.09960  Biso   1.000  C
  C121     1.0000 0.51320  0.23330  0.07620  Biso   1.000  C
  H63      1.0000 0.49380  0.18400  0.07760  Biso   1.000  H
  C122     1.0000 0.55030  0.20930  0.05010  Biso   1.000  C
  H64      1.0000 0.55600  0.14390  0.03780  Biso   1.000  H
  C123     1.0000 0.57872  0.28100  0.04240  Biso   1.000  C
  C124     1.0000 0.57085  0.37390  0.06850  Biso   1.000  C
  H65      1.0000 0.59040  0.42270  0.06700  Biso   1.000  H
  C125     1.0000 0.53417  0.39890  0.09760  Biso   1.000  C
  H66      1.0000 0.52960  0.46330  0.11550  Biso   1.000  H
  C126     1.0000 0.61746  0.25550  0.00810  Biso   1.000  C
  O31      1.0000 0.21470  0.56150  0.05130  Biso   1.000  O
  O32      1.0000 0.26918  0.65190  0.04440  Biso   1.000  O
  O33      1.0000 0.63791  0.32470  0.98170  Biso   1.000  O
  O34      1.0000 0.62862  0.16870  0.00660  Biso   1.000  O
  O35      1.0000 0.29303  0.25810  0.38230  Biso   1.000  O
  O36      1.0000 0.23410  0.34190  0.34470  Biso   1.000  O
  Tb6      1.0000 0.19221  0.70609  0.95476  Biso   1.000  Tb
  C127     1.0000 0.24734  0.07580  0.42600  Biso   1.000  C
  C128     1.0000 0.22109  0.00250  0.36360  Biso   1.000  C
  C129     1.0000 0.23778  0.94620  0.29890  Biso   1.000  C
  H67      1.0000 0.26520  0.95380  0.29440  Biso   1.000  H
  C130     1.0000 0.21328  0.87840  0.24090  Biso   1.000  C
  C131     1.0000 0.17282  0.86380  0.25180  Biso   1.000  C
  H68      1.0000 0.15670  0.81700  0.21340  Biso   1.000  H
  C132     1.0000 0.15605  0.91690  0.31800  Biso   1.000  C
  C133     1.0000 0.18012  0.98840  0.37220  Biso   1.000  C
  H69      1.0000 0.16890  0.02750  0.41480  Biso   1.000  H
  C134     1.0000 0.22974  0.82190  0.16430  Biso   1.000  C
  C135     1.0000 0.11361  0.89710  0.33320  Biso   1.000  C
  C136     1.0000 0.09764  0.80130  0.32160  Biso   1.000  C
  H70      1.0000 0.11310  0.75140  0.30090  Biso   1.000  H
  C137     1.0000 0.05892  0.78010  0.34070  Biso   1.000  C
  H71      1.0000 0.04890  0.71610  0.33210  Biso   1.000  H
  C138     1.0000 0.03549  0.85010  0.37140  Biso   1.000  C
  C139     1.0000 0.05062  0.94730  0.38170  Biso   1.000  C
  H72      1.0000 0.03490  0.99700  0.40200  Biso   1.000  H
  C140     1.0000 0.08964  0.96910  0.36130  Biso   1.000  C
  H73      1.0000 0.09920  0.03360  0.36710  Biso   1.000  H
  C141     1.0000 0.99540  0.82650  0.40040  Biso   1.000  C
  C142     1.0000 0.98680  0.73330  0.42380  Biso   1.000  C
  H74      1.0000 0.00620  0.68400  0.42240  Biso   1.000  H
  C143     1.0000 0.94970  0.70930  0.44990  Biso   1.000  C
  H75      1.0000 0.94400  0.64390  0.46220  Biso   1.000  H
  C144     1.0000 0.92128  0.78100  0.45760  Biso   1.000  C
  C145     1.0000 0.92915  0.87390  0.43150  Biso   1.000  C
  H76      1.0000 0.90960  0.92270  0.43300  Biso   1.000  H
  C146     1.0000 0.96583  0.89890  0.40240  Biso   1.000  C
  H77      1.0000 0.97040  0.96330  0.38450  Biso   1.000  H
  C147     1.0000 0.88254  0.75550  0.49190  Biso   1.000  C
  O37      1.0000 0.28530  0.06150  0.44870  Biso   1.000  O
  O38      1.0000 0.23082  0.15190  0.45560  Biso   1.000  O
  O39      1.0000 0.86209  0.82470  0.51830  Biso   1.000  O
  O40      1.0000 0.87138  0.66870  0.49340  Biso   1.000  O
  O41      1.0000 0.20697  0.75810  0.11770  Biso   1.000  O
  O42      1.0000 0.26590  0.84190  0.15530  Biso   1.000  O
  Tb7      1.0000 0.30779  0.20609  0.54524  Biso   1.000  Tb
  C148     1.0000 0.74734  0.57580  0.42600  Biso   1.000  C
  C149     1.0000 0.72109  0.50250  0.36360  Biso   1.000  C
  C150     1.0000 0.73778  0.44620  0.29890  Biso   1.000  C
  H78      1.0000 0.76520  0.45380  0.29440  Biso   1.000  H
  C151     1.0000 0.71328  0.37840  0.24090  Biso   1.000  C
  C152     1.0000 0.67282  0.36380  0.25180  Biso   1.000  C
  H79      1.0000 0.65670  0.31700  0.21340  Biso   1.000  H
  C153     1.0000 0.65605  0.41690  0.31800  Biso   1.000  C
  C154     1.0000 0.68012  0.48840  0.37220  Biso   1.000  C
  H80      1.0000 0.66890  0.52750  0.41480  Biso   1.000  H
  C155     1.0000 0.72974  0.32190  0.16430  Biso   1.000  C
  C156     1.0000 0.61361  0.39710  0.33320  Biso   1.000  C
  C157     1.0000 0.59764  0.30130  0.32160  Biso   1.000  C
  H81      1.0000 0.61310  0.25140  0.30090  Biso   1.000  H
  C158     1.0000 0.55892  0.28010  0.34070  Biso   1.000  C
  H82      1.0000 0.54890  0.21610  0.33210  Biso   1.000  H
  C159     1.0000 0.53549  0.35010  0.37140  Biso   1.000  C
  C160     1.0000 0.55062  0.44730  0.38170  Biso   1.000  C
  H83      1.0000 0.53490  0.49700  0.40200  Biso   1.000  H
  C161     1.0000 0.58964  0.46910  0.36130  Biso   1.000  C
  H84      1.0000 0.59920  0.53360  0.36710  Biso   1.000  H
  C162     1.0000 0.49540  0.32650  0.40040  Biso   1.000  C
  C163     1.0000 0.48680  0.23330  0.42380  Biso   1.000  C
  H85      1.0000 0.50620  0.18400  0.42240  Biso   1.000  H
  C164     1.0000 0.44970  0.20930  0.44990  Biso   1.000  C
  H86      1.0000 0.44400  0.14390  0.46220  Biso   1.000  H
  C165     1.0000 0.42128  0.28100  0.45760  Biso   1.000  C
  C166     1.0000 0.42915  0.37390  0.43150  Biso   1.000  C
  H87      1.0000 0.40960  0.42270  0.43300  Biso   1.000  H
  C167     1.0000 0.46583  0.39890  0.40240  Biso   1.000  C
  H88      1.0000 0.47040  0.46330  0.38450  Biso   1.000  H
  C168     1.0000 0.38254  0.25550  0.49190  Biso   1.000  C
  O43      1.0000 0.78530  0.56150  0.44870  Biso   1.000  O
  O44      1.0000 0.73082  0.65190  0.45560  Biso   1.000  O
  O45      1.0000 0.36209  0.32470  0.51830  Biso   1.000  O
  O46      1.0000 0.37138  0.16870  0.49340  Biso   1.000  O
  O47      1.0000 0.70697  0.25810  0.11770  Biso   1.000  O
  O48      1.0000 0.76590  0.34190  0.15530  Biso   1.000  O
  Tb8      1.0000 0.80779  0.70609  0.54524  Biso   1.000  Tb
