data_image0
_cell_length_a       33.02
_cell_length_b       13.317
_cell_length_c       14.22
_cell_angle_alpha    90
_cell_angle_beta     101.739
_cell_angle_gamma    90

_symmetry_space_group_name_H-M    "P 1"
_symmetry_int_tables_number       1

loop_
  _symmetry_equiv_pos_as_xyz
  'x, y, z'

loop_
  _atom_site_label
  _atom_site_occupancy
  _atom_site_fract_x
  _atom_site_fract_y
  _atom_site_fract_z
  _atom_site_thermal_displace_type
  _atom_site_B_iso_or_equiv
  _atom_site_type_symbol
  C1       1.0000 0.11680  0.75050  0.50390  Biso   1.000  C
  C2       1.0000 0.07810  0.77390  0.54050  Biso   1.000  C
  C3       1.0000 0.06970  0.87120  0.56540  Biso   1.000  C
  H1       1.0000 0.08820  0.92280  0.56080  Biso   1.000  H
  C4       1.0000 0.03360  0.89100  0.59740  Biso   1.000  C
  H2       1.0000 0.02930  0.95590  0.61750  Biso   1.000  H
  C5       1.0000 0.00430  0.82190  0.60100  Biso   1.000  C
  C6       1.0000 0.01280  0.72970  0.57860  Biso   1.000  C
  H3       1.0000 0.99320  0.68050  0.58260  Biso   1.000  H
  C7       1.0000 0.04950  0.69880  0.54880  Biso   1.000  C
  H4       1.0000 0.05420  0.63190  0.53550  Biso   1.000  H
  C8       1.0000 0.96490  0.84900  0.62910  Biso   1.000  C
  C9       1.0000 0.94920  0.94400  0.62020  Biso   1.000  C
  H5       1.0000 0.96490  0.99550  0.60160  Biso   1.000  H
  C10      1.0000 0.91060  0.96550  0.63820  Biso   1.000  C
  H6       1.0000 0.90040  0.03070  0.62910  Biso   1.000  H
  C11      1.0000 0.88690  0.89320  0.66930  Biso   1.000  C
  C12      1.0000 0.90330  0.79760  0.68140  Biso   1.000  C
  H7       1.0000 0.88820  0.74770  0.70460  Biso   1.000  H
  C13      1.0000 0.94080  0.77340  0.66060  Biso   1.000  C
  H8       1.0000 0.95040  0.70760  0.66720  Biso   1.000  H
  C14      1.0000 0.84440  0.91360  0.68270  Biso   1.000  C
  C15      1.0000 0.82000  0.98530  0.62770  Biso   1.000  C
  H9       1.0000 0.83110  0.02530  0.58570  Biso   1.000  H
  C16      1.0000 0.77910  0.99800  0.63460  Biso   1.000  C
  C17      1.0000 0.76330  0.94200  0.70140  Biso   1.000  C
  H10      1.0000 0.73570  0.94910  0.70550  Biso   1.000  H
  C18      1.0000 0.78790  0.87750  0.76040  Biso   1.000  C
  C19      1.0000 0.82780  0.85930  0.75000  Biso   1.000  C
  H11      1.0000 0.84370  0.81090  0.78780  Biso   1.000  H
  C20      1.0000 0.75300  0.07090  0.57150  Biso   1.000  C
  C21      1.0000 0.77060  0.81570  0.83560  Biso   1.000  C
  Eu1      1.0000 0.19208  0.70332  0.45242  Biso   1.000  Eu
  O1       1.0000 0.13760  0.82110  0.48120  Biso   1.000  O
  O2       1.0000 0.12740  0.65950  0.50360  Biso   1.000  O
  O3       1.0000 0.79440  0.75440  0.88440  Biso   1.000  O
  O4       1.0000 0.73498  0.83900  0.84360  Biso   1.000  O
  O5       1.0000 0.71548  0.05380  0.54960  Biso   1.000  O
  O6       1.0000 0.76868  0.14950  0.54220  Biso   1.000  O
  C22      1.0000 0.61680  0.25050  0.50390  Biso   1.000  C
  C23      1.0000 0.57810  0.27390  0.54050  Biso   1.000  C
  C24      1.0000 0.56970  0.37120  0.56540  Biso   1.000  C
  H12      1.0000 0.58820  0.42280  0.56080  Biso   1.000  H
  C25      1.0000 0.53360  0.39100  0.59740  Biso   1.000  C
  H13      1.0000 0.52930  0.45590  0.61750  Biso   1.000  H
  C26      1.0000 0.50430  0.32190  0.60100  Biso   1.000  C
  C27      1.0000 0.51280  0.22970  0.57860  Biso   1.000  C
  H14      1.0000 0.49320  0.18050  0.58260  Biso   1.000  H
  C28      1.0000 0.54950  0.19880  0.54880  Biso   1.000  C
  H15      1.0000 0.55420  0.13190  0.53550  Biso   1.000  H
  C29      1.0000 0.46490  0.34900  0.62910  Biso   1.000  C
  C30      1.0000 0.44920  0.44400  0.62020  Biso   1.000  C
  H16      1.0000 0.46490  0.49550  0.60160  Biso   1.000  H
  C31      1.0000 0.41060  0.46550  0.63820  Biso   1.000  C
  H17      1.0000 0.40040  0.53070  0.62910  Biso   1.000  H
  C32      1.0000 0.38690  0.39320  0.66930  Biso   1.000  C
  C33      1.0000 0.40330  0.29760  0.68140  Biso   1.000  C
  H18      1.0000 0.38820  0.24770  0.70460  Biso   1.000  H
  C34      1.0000 0.44080  0.27340  0.66060  Biso   1.000  C
  H19      1.0000 0.45040  0.20760  0.66720  Biso   1.000  H
  C35      1.0000 0.34440  0.41360  0.68270  Biso   1.000  C
  C36      1.0000 0.32000  0.48530  0.62770  Biso   1.000  C
  H20      1.0000 0.33110  0.52530  0.58570  Biso   1.000  H
  C37      1.0000 0.27910  0.49800  0.63460  Biso   1.000  C
  C38      1.0000 0.26330  0.44200  0.70140  Biso   1.000  C
  H21      1.0000 0.23570  0.44910  0.70550  Biso   1.000  H
  C39      1.0000 0.28790  0.37750  0.76040  Biso   1.000  C
  C40      1.0000 0.32780  0.35930  0.75000  Biso   1.000  C
  H22      1.0000 0.34370  0.31090  0.78780  Biso   1.000  H
  C41      1.0000 0.25300  0.57090  0.57150  Biso   1.000  C
  C42      1.0000 0.27060  0.31570  0.83560  Biso   1.000  C
  Eu2      1.0000 0.69208  0.20332  0.45242  Biso   1.000  Eu
  O7       1.0000 0.63760  0.32110  0.48120  Biso   1.000  O
  O8       1.0000 0.62740  0.15950  0.50360  Biso   1.000  O
  O9       1.0000 0.29440  0.25440  0.88440  Biso   1.000  O
  O10      1.0000 0.23498  0.33900  0.84360  Biso   1.000  O
  O11      1.0000 0.21548  0.55380  0.54960  Biso   1.000  O
  O12      1.0000 0.26868  0.64950  0.54220  Biso   1.000  O
  C43      1.0000 0.88320  0.75050  0.99610  Biso   1.000  C
  C44      1.0000 0.92190  0.77390  0.95950  Biso   1.000  C
  C45      1.0000 0.93030  0.87120  0.93460  Biso   1.000  C
  H23      1.0000 0.91180  0.92280  0.93920  Biso   1.000  H
  C46      1.0000 0.96640  0.89100  0.90260  Biso   1.000  C
  H24      1.0000 0.97070  0.95590  0.88250  Biso   1.000  H
  C47      1.0000 0.99570  0.82190  0.89900  Biso   1.000  C
  C48      1.0000 0.98720  0.72970  0.92140  Biso   1.000  C
  H25      1.0000 0.00680  0.68050  0.91740  Biso   1.000  H
  C49      1.0000 0.95050  0.69880  0.95120  Biso   1.000  C
  H26      1.0000 0.94580  0.63190  0.96450  Biso   1.000  H
  C50      1.0000 0.03510  0.84900  0.87090  Biso   1.000  C
  C51      1.0000 0.05080  0.94400  0.87980  Biso   1.000  C
  H27      1.0000 0.03510  0.99550  0.89840  Biso   1.000  H
  C52      1.0000 0.08940  0.96550  0.86180  Biso   1.000  C
  H28      1.0000 0.09960  0.03070  0.87090  Biso   1.000  H
  C53      1.0000 0.11310  0.89320  0.83070  Biso   1.000  C
  C54      1.0000 0.09670  0.79760  0.81860  Biso   1.000  C
  H29      1.0000 0.11180  0.74770  0.79540  Biso   1.000  H
  C55      1.0000 0.05920  0.77340  0.83940  Biso   1.000  C
  H30      1.0000 0.04960  0.70760  0.83280  Biso   1.000  H
  C56      1.0000 0.15560  0.91360  0.81730  Biso   1.000  C
  C57      1.0000 0.18000  0.98530  0.87230  Biso   1.000  C
  H31      1.0000 0.16890  0.02530  0.91430  Biso   1.000  H
  C58      1.0000 0.22090  0.99800  0.86540  Biso   1.000  C
  C59      1.0000 0.23670  0.94200  0.79860  Biso   1.000  C
  H32      1.0000 0.26430  0.94910  0.79450  Biso   1.000  H
  C60      1.0000 0.21210  0.87750  0.73960  Biso   1.000  C
  C61      1.0000 0.17220  0.85930  0.75000  Biso   1.000  C
  H33      1.0000 0.15630  0.81090  0.71220  Biso   1.000  H
  C62      1.0000 0.24700  0.07090  0.92850  Biso   1.000  C
  C63      1.0000 0.22940  0.81570  0.66440  Biso   1.000  C
  Eu3      1.0000 0.80792  0.70332  0.04758  Biso   1.000  Eu
  O13      1.0000 0.86240  0.82110  0.01880  Biso   1.000  O
  O14      1.0000 0.87260  0.65950  0.99640  Biso   1.000  O
  O15      1.0000 0.20560  0.75440  0.61560  Biso   1.000  O
  O16      1.0000 0.26502  0.83900  0.65640  Biso   1.000  O
  O17      1.0000 0.28452  0.05380  0.95040  Biso   1.000  O
  O18      1.0000 0.23132  0.14950  0.95780  Biso   1.000  O
  C64      1.0000 0.38320  0.25050  0.99610  Biso   1.000  C
  C65      1.0000 0.42190  0.27390  0.95950  Biso   1.000  C
  C66      1.0000 0.43030  0.37120  0.93460  Biso   1.000  C
  H34      1.0000 0.41180  0.42280  0.93920  Biso   1.000  H
  C67      1.0000 0.46640  0.39100  0.90260  Biso   1.000  C
  H35      1.0000 0.47070  0.45590  0.88250  Biso   1.000  H
  C68      1.0000 0.49570  0.32190  0.89900  Biso   1.000  C
  C69      1.0000 0.48720  0.22970  0.92140  Biso   1.000  C
  H36      1.0000 0.50680  0.18050  0.91740  Biso   1.000  H
  C70      1.0000 0.45050  0.19880  0.95120  Biso   1.000  C
  H37      1.0000 0.44580  0.13190  0.96450  Biso   1.000  H
  C71      1.0000 0.53510  0.34900  0.87090  Biso   1.000  C
  C72      1.0000 0.55080  0.44400  0.87980  Biso   1.000  C
  H38      1.0000 0.53510  0.49550  0.89840  Biso   1.000  H
  C73      1.0000 0.58940  0.46550  0.86180  Biso   1.000  C
  H39      1.0000 0.59960  0.53070  0.87090  Biso   1.000  H
  C74      1.0000 0.61310  0.39320  0.83070  Biso   1.000  C
  C75      1.0000 0.59670  0.29760  0.81860  Biso   1.000  C
  H40      1.0000 0.61180  0.24770  0.79540  Biso   1.000  H
  C76      1.0000 0.55920  0.27340  0.83940  Biso   1.000  C
  H41      1.0000 0.54960  0.20760  0.83280  Biso   1.000  H
  C77      1.0000 0.65560  0.41360  0.81730  Biso   1.000  C
  C78      1.0000 0.68000  0.48530  0.87230  Biso   1.000  C
  H42      1.0000 0.66890  0.52530  0.91430  Biso   1.000  H
  C79      1.0000 0.72090  0.49800  0.86540  Biso   1.000  C
  C80      1.0000 0.73670  0.44200  0.79860  Biso   1.000  C
  H43      1.0000 0.76430  0.44910  0.79450  Biso   1.000  H
  C81      1.0000 0.71210  0.37750  0.73960  Biso   1.000  C
  C82      1.0000 0.67220  0.35930  0.75000  Biso   1.000  C
  H44      1.0000 0.65630  0.31090  0.71220  Biso   1.000  H
  C83      1.0000 0.74700  0.57090  0.92850  Biso   1.000  C
  C84      1.0000 0.72940  0.31570  0.66440  Biso   1.000  C
  Eu4      1.0000 0.30792  0.20332  0.04758  Biso   1.000  Eu
  O19      1.0000 0.36240  0.32110  0.01880  Biso   1.000  O
  O20      1.0000 0.37260  0.15950  0.99640  Biso   1.000  O
  O21      1.0000 0.70560  0.25440  0.61560  Biso   1.000  O
  O22      1.0000 0.76502  0.33900  0.65640  Biso   1.000  O
  O23      1.0000 0.78452  0.55380  0.95040  Biso   1.000  O
  O24      1.0000 0.73132  0.64950  0.95780  Biso   1.000  O
  C85      1.0000 0.88320  0.24950  0.49610  Biso   1.000  C
  C86      1.0000 0.92190  0.22610  0.45950  Biso   1.000  C
  C87      1.0000 0.93030  0.12880  0.43460  Biso   1.000  C
  H45      1.0000 0.91180  0.07720  0.43920  Biso   1.000  H
  C88      1.0000 0.96640  0.10900  0.40260  Biso   1.000  C
  H46      1.0000 0.97070  0.04410  0.38250  Biso   1.000  H
  C89      1.0000 0.99570  0.17810  0.39900  Biso   1.000  C
  C90      1.0000 0.98720  0.27030  0.42140  Biso   1.000  C
  H47      1.0000 0.00680  0.31950  0.41740  Biso   1.000  H
  C91      1.0000 0.95050  0.30120  0.45120  Biso   1.000  C
  H48      1.0000 0.94580  0.36810  0.46450  Biso   1.000  H
  C92      1.0000 0.03510  0.15100  0.37090  Biso   1.000  C
  C93      1.0000 0.05080  0.05600  0.37980  Biso   1.000  C
  H49      1.0000 0.03510  0.00450  0.39840  Biso   1.000  H
  C94      1.0000 0.08940  0.03450  0.36180  Biso   1.000  C
  H50      1.0000 0.09960  0.96930  0.37090  Biso   1.000  H
  C95      1.0000 0.11310  0.10680  0.33070  Biso   1.000  C
  C96      1.0000 0.09670  0.20240  0.31860  Biso   1.000  C
  H51      1.0000 0.11180  0.25230  0.29540  Biso   1.000  H
  C97      1.0000 0.05920  0.22660  0.33940  Biso   1.000  C
  H52      1.0000 0.04960  0.29240  0.33280  Biso   1.000  H
  C98      1.0000 0.15560  0.08640  0.31730  Biso   1.000  C
  C99      1.0000 0.18000  0.01470  0.37230  Biso   1.000  C
  H53      1.0000 0.16890  0.97470  0.41430  Biso   1.000  H
  C100     1.0000 0.22090  0.00200  0.36540  Biso   1.000  C
  C101     1.0000 0.23670  0.05800  0.29860  Biso   1.000  C
  H54      1.0000 0.26430  0.05090  0.29450  Biso   1.000  H
  C102     1.0000 0.21210  0.12250  0.23960  Biso   1.000  C
  C103     1.0000 0.17220  0.14070  0.25000  Biso   1.000  C
  H55      1.0000 0.15630  0.18910  0.21220  Biso   1.000  H
  C104     1.0000 0.24700  0.92910  0.42850  Biso   1.000  C
  C105     1.0000 0.22940  0.18430  0.16440  Biso   1.000  C
  Eu5      1.0000 0.80792  0.29668  0.54758  Biso   1.000  Eu
  O25      1.0000 0.86240  0.17890  0.51880  Biso   1.000  O
  O26      1.0000 0.87260  0.34050  0.49640  Biso   1.000  O
  O27      1.0000 0.20560  0.24560  0.11560  Biso   1.000  O
  O28      1.0000 0.26502  0.16100  0.15640  Biso   1.000  O
  O29      1.0000 0.28452  0.94620  0.45040  Biso   1.000  O
  O30      1.0000 0.23132  0.85050  0.45780  Biso   1.000  O
  C106     1.0000 0.38320  0.74950  0.49610  Biso   1.000  C
  C107     1.0000 0.42190  0.72610  0.45950  Biso   1.000  C
  C108     1.0000 0.43030  0.62880  0.43460  Biso   1.000  C
  H56      1.0000 0.41180  0.57720  0.43920  Biso   1.000  H
  C109     1.0000 0.46640  0.60900  0.40260  Biso   1.000  C
  H57      1.0000 0.47070  0.54410  0.38250  Biso   1.000  H
  C110     1.0000 0.49570  0.67810  0.39900  Biso   1.000  C
  C111     1.0000 0.48720  0.77030  0.42140  Biso   1.000  C
  H58      1.0000 0.50680  0.81950  0.41740  Biso   1.000  H
  C112     1.0000 0.45050  0.80120  0.45120  Biso   1.000  C
  H59      1.0000 0.44580  0.86810  0.46450  Biso   1.000  H
  C113     1.0000 0.53510  0.65100  0.37090  Biso   1.000  C
  C114     1.0000 0.55080  0.55600  0.37980  Biso   1.000  C
  H60      1.0000 0.53510  0.50450  0.39840  Biso   1.000  H
  C115     1.0000 0.58940  0.53450  0.36180  Biso   1.000  C
  H61      1.0000 0.59960  0.46930  0.37090  Biso   1.000  H
  C116     1.0000 0.61310  0.60680  0.33070  Biso   1.000  C
  C117     1.0000 0.59670  0.70240  0.31860  Biso   1.000  C
  H62      1.0000 0.61180  0.75230  0.29540  Biso   1.000  H
  C118     1.0000 0.55920  0.72660  0.33940  Biso   1.000  C
  H63      1.0000 0.54960  0.79240  0.33280  Biso   1.000  H
  C119     1.0000 0.65560  0.58640  0.31730  Biso   1.000  C
  C120     1.0000 0.68000  0.51470  0.37230  Biso   1.000  C
  H64      1.0000 0.66890  0.47470  0.41430  Biso   1.000  H
  C121     1.0000 0.72090  0.50200  0.36540  Biso   1.000  C
  C122     1.0000 0.73670  0.55800  0.29860  Biso   1.000  C
  H65      1.0000 0.76430  0.55090  0.29450  Biso   1.000  H
  C123     1.0000 0.71210  0.62250  0.23960  Biso   1.000  C
  C124     1.0000 0.67220  0.64070  0.25000  Biso   1.000  C
  H66      1.0000 0.65630  0.68910  0.21220  Biso   1.000  H
  C125     1.0000 0.74700  0.42910  0.42850  Biso   1.000  C
  C126     1.0000 0.72940  0.68430  0.16440  Biso   1.000  C
  Eu6      1.0000 0.30792  0.79668  0.54758  Biso   1.000  Eu
  O31      1.0000 0.36240  0.67890  0.51880  Biso   1.000  O
  O32      1.0000 0.37260  0.84050  0.49640  Biso   1.000  O
  O33      1.0000 0.70560  0.74560  0.11560  Biso   1.000  O
  O34      1.0000 0.76502  0.66100  0.15640  Biso   1.000  O
  O35      1.0000 0.78452  0.44620  0.45040  Biso   1.000  O
  O36      1.0000 0.73132  0.35050  0.45780  Biso   1.000  O
  C127     1.0000 0.11680  0.24950  0.00390  Biso   1.000  C
  C128     1.0000 0.07810  0.22610  0.04050  Biso   1.000  C
  C129     1.0000 0.06970  0.12880  0.06540  Biso   1.000  C
  H67      1.0000 0.08820  0.07720  0.06080  Biso   1.000  H
  C130     1.0000 0.03360  0.10900  0.09740  Biso   1.000  C
  H68      1.0000 0.02930  0.04410  0.11750  Biso   1.000  H
  C131     1.0000 0.00430  0.17810  0.10100  Biso   1.000  C
  C132     1.0000 0.01280  0.27030  0.07860  Biso   1.000  C
  H69      1.0000 0.99320  0.31950  0.08260  Biso   1.000  H
  C133     1.0000 0.04950  0.30120  0.04880  Biso   1.000  C
  H70      1.0000 0.05420  0.36810  0.03550  Biso   1.000  H
  C134     1.0000 0.96490  0.15100  0.12910  Biso   1.000  C
  C135     1.0000 0.94920  0.05600  0.12020  Biso   1.000  C
  H71      1.0000 0.96490  0.00450  0.10160  Biso   1.000  H
  C136     1.0000 0.91060  0.03450  0.13820  Biso   1.000  C
  H72      1.0000 0.90040  0.96930  0.12910  Biso   1.000  H
  C137     1.0000 0.88690  0.10680  0.16930  Biso   1.000  C
  C138     1.0000 0.90330  0.20240  0.18140  Biso   1.000  C
  H73      1.0000 0.88820  0.25230  0.20460  Biso   1.000  H
  C139     1.0000 0.94080  0.22660  0.16060  Biso   1.000  C
  H74      1.0000 0.95040  0.29240  0.16720  Biso   1.000  H
  C140     1.0000 0.84440  0.08640  0.18270  Biso   1.000  C
  C141     1.0000 0.82000  0.01470  0.12770  Biso   1.000  C
  H75      1.0000 0.83110  0.97470  0.08570  Biso   1.000  H
  C142     1.0000 0.77910  0.00200  0.13460  Biso   1.000  C
  C143     1.0000 0.76330  0.05800  0.20140  Biso   1.000  C
  H76      1.0000 0.73570  0.05090  0.20550  Biso   1.000  H
  C144     1.0000 0.78790  0.12250  0.26040  Biso   1.000  C
  C145     1.0000 0.82780  0.14070  0.25000  Biso   1.000  C
  H77      1.0000 0.84370  0.18910  0.28780  Biso   1.000  H
  C146     1.0000 0.75300  0.92910  0.07150  Biso   1.000  C
  C147     1.0000 0.77060  0.18430  0.33560  Biso   1.000  C
  Eu7      1.0000 0.19208  0.29668  0.95242  Biso   1.000  Eu
  O37      1.0000 0.13760  0.17890  0.98120  Biso   1.000  O
  O38      1.0000 0.12740  0.34050  0.00360  Biso   1.000  O
  O39      1.0000 0.79440  0.24560  0.38440  Biso   1.000  O
  O40      1.0000 0.73498  0.16100  0.34360  Biso   1.000  O
  O41      1.0000 0.71548  0.94620  0.04960  Biso   1.000  O
  O42      1.0000 0.76868  0.85050  0.04220  Biso   1.000  O
  C148     1.0000 0.61680  0.74950  0.00390  Biso   1.000  C
  C149     1.0000 0.57810  0.72610  0.04050  Biso   1.000  C
  C150     1.0000 0.56970  0.62880  0.06540  Biso   1.000  C
  H78      1.0000 0.58820  0.57720  0.06080  Biso   1.000  H
  C151     1.0000 0.53360  0.60900  0.09740  Biso   1.000  C
  H79      1.0000 0.52930  0.54410  0.11750  Biso   1.000  H
  C152     1.0000 0.50430  0.67810  0.10100  Biso   1.000  C
  C153     1.0000 0.51280  0.77030  0.07860  Biso   1.000  C
  H80      1.0000 0.49320  0.81950  0.08260  Biso   1.000  H
  C154     1.0000 0.54950  0.80120  0.04880  Biso   1.000  C
  H81      1.0000 0.55420  0.86810  0.03550  Biso   1.000  H
  C155     1.0000 0.46490  0.65100  0.12910  Biso   1.000  C
  C156     1.0000 0.44920  0.55600  0.12020  Biso   1.000  C
  H82      1.0000 0.46490  0.50450  0.10160  Biso   1.000  H
  C157     1.0000 0.41060  0.53450  0.13820  Biso   1.000  C
  H83      1.0000 0.40040  0.46930  0.12910  Biso   1.000  H
  C158     1.0000 0.38690  0.60680  0.16930  Biso   1.000  C
  C159     1.0000 0.40330  0.70240  0.18140  Biso   1.000  C
  H84      1.0000 0.38820  0.75230  0.20460  Biso   1.000  H
  C160     1.0000 0.44080  0.72660  0.16060  Biso   1.000  C
  H85      1.0000 0.45040  0.79240  0.16720  Biso   1.000  H
  C161     1.0000 0.34440  0.58640  0.18270  Biso   1.000  C
  C162     1.0000 0.32000  0.51470  0.12770  Biso   1.000  C
  H86      1.0000 0.33110  0.47470  0.08570  Biso   1.000  H
  C163     1.0000 0.27910  0.50200  0.13460  Biso   1.000  C
  C164     1.0000 0.26330  0.55800  0.20140  Biso   1.000  C
  H87      1.0000 0.23570  0.55090  0.20550  Biso   1.000  H
  C165     1.0000 0.28790  0.62250  0.26040  Biso   1.000  C
  C166     1.0000 0.32780  0.64070  0.25000  Biso   1.000  C
  H88      1.0000 0.34370  0.68910  0.28780  Biso   1.000  H
  C167     1.0000 0.25300  0.42910  0.07150  Biso   1.000  C
  C168     1.0000 0.27060  0.68430  0.33560  Biso   1.000  C
  Eu8      1.0000 0.69208  0.79668  0.95242  Biso   1.000  Eu
  O43      1.0000 0.63760  0.67890  0.98120  Biso   1.000  O
  O44      1.0000 0.62740  0.84050  0.00360  Biso   1.000  O
  O45      1.0000 0.29440  0.74560  0.38440  Biso   1.000  O
  O46      1.0000 0.23498  0.66100  0.34360  Biso   1.000  O
  O47      1.0000 0.21548  0.44620  0.04960  Biso   1.000  O
  O48      1.0000 0.26868  0.35050  0.04220  Biso   1.000  O
