data_image0
_cell_length_a       33.69
_cell_length_b       12.97
_cell_length_c       14.771
_cell_angle_alpha    90
_cell_angle_beta     101.572
_cell_angle_gamma    90

_symmetry_space_group_name_H-M    "P 1"
_symmetry_int_tables_number       1

loop_
  _symmetry_equiv_pos_as_xyz
  'x, y, z'

loop_
  _atom_site_label
  _atom_site_occupancy
  _atom_site_fract_x
  _atom_site_fract_y
  _atom_site_fract_z
  _atom_site_thermal_displace_type
  _atom_site_B_iso_or_equiv
  _atom_site_type_symbol
  C1       1.0000 0.25256  0.43790  0.06920  Biso   1.000  C
  C2       1.0000 0.28008  0.50920  0.13420  Biso   1.000  C
  C3       1.0000 0.26420  0.56470  0.20000  Biso   1.000  C
  H1       1.0000 0.23710  0.55710  0.20370  Biso   1.000  H
  C4       1.0000 0.28893  0.63070  0.25930  Biso   1.000  C
  C5       1.0000 0.32923  0.64510  0.25170  Biso   1.000  C
  H2       1.0000 0.34550  0.69080  0.29130  Biso   1.000  H
  C6       1.0000 0.34546  0.59160  0.18520  Biso   1.000  C
  C7       1.0000 0.32031  0.52120  0.12830  Biso   1.000  C
  H3       1.0000 0.33090  0.48210  0.08590  Biso   1.000  H
  C8       1.0000 0.27247  0.68870  0.33370  Biso   1.000  C
  C9       1.0000 0.38763  0.61130  0.17170  Biso   1.000  C
  C10      1.0000 0.40464  0.70960  0.18570  Biso   1.000  C
  H4       1.0000 0.39040  0.76110  0.20940  Biso   1.000  H
  C11      1.0000 0.44250  0.73280  0.16520  Biso   1.000  C
  H5       1.0000 0.45280  0.79940  0.17440  Biso   1.000  H
  C12      1.0000 0.46479  0.65710  0.13110  Biso   1.000  C
  C13      1.0000 0.44849  0.55880  0.12140  Biso   1.000  C
  H6       1.0000 0.46340  0.50590  0.10180  Biso   1.000  H
  C14      1.0000 0.41060  0.53670  0.14000  Biso   1.000  C
  H7       1.0000 0.40050  0.47000  0.13080  Biso   1.000  H
  C15      1.0000 0.50388  0.68190  0.10260  Biso   1.000  C
  C16      1.0000 0.51260  0.78240  0.08010  Biso   1.000  C
  H8       1.0000 0.49430  0.83500  0.08440  Biso   1.000  H
  C17      1.0000 0.54834  0.80470  0.05120  Biso   1.000  C
  H9       1.0000 0.55400  0.87280  0.03870  Biso   1.000  H
  C18      1.0000 0.57573  0.72890  0.04030  Biso   1.000  C
  C19      1.0000 0.56777  0.63160  0.06500  Biso   1.000  C
  H10      1.0000 0.58620  0.57930  0.06060  Biso   1.000  H
  C20      1.0000 0.53240  0.60810  0.09700  Biso   1.000  C
  H11      1.0000 0.52820  0.54090  0.11490  Biso   1.000  H
  C21      1.0000 0.61325  0.75340  0.00390  Biso   1.000  C
  La1      1.0000 0.30913  0.19977  0.05111  Biso   1.000  La
  O1       1.0000 0.26786  0.36050  0.03640  Biso   1.000  O
  O2       1.0000 0.21521  0.45800  0.04930  Biso   1.000  O
  O3       1.0000 0.23578  0.67130  0.33650  Biso   1.000  O
  O4       1.0000 0.29602  0.75000  0.38430  Biso   1.000  O
  O5       1.0000 0.62353  0.84650  0.99710  Biso   1.000  O
  O6       1.0000 0.63314  0.67950  0.97870  Biso   1.000  O
  C22      1.0000 0.75256  0.93790  0.06920  Biso   1.000  C
  C23      1.0000 0.78008  0.00920  0.13420  Biso   1.000  C
  C24      1.0000 0.76420  0.06470  0.20000  Biso   1.000  C
  H12      1.0000 0.73710  0.05710  0.20370  Biso   1.000  H
  C25      1.0000 0.78893  0.13070  0.25930  Biso   1.000  C
  C26      1.0000 0.82923  0.14510  0.25170  Biso   1.000  C
  H13      1.0000 0.84550  0.19080  0.29130  Biso   1.000  H
  C27      1.0000 0.84546  0.09160  0.18520  Biso   1.000  C
  C28      1.0000 0.82031  0.02120  0.12830  Biso   1.000  C
  H14      1.0000 0.83090  0.98210  0.08590  Biso   1.000  H
  C29      1.0000 0.77247  0.18870  0.33370  Biso   1.000  C
  C30      1.0000 0.88763  0.11130  0.17170  Biso   1.000  C
  C31      1.0000 0.90464  0.20960  0.18570  Biso   1.000  C
  H15      1.0000 0.89040  0.26110  0.20940  Biso   1.000  H
  C32      1.0000 0.94250  0.23280  0.16520  Biso   1.000  C
  H16      1.0000 0.95280  0.29940  0.17440  Biso   1.000  H
  C33      1.0000 0.96479  0.15710  0.13110  Biso   1.000  C
  C34      1.0000 0.94849  0.05880  0.12140  Biso   1.000  C
  H17      1.0000 0.96340  0.00590  0.10180  Biso   1.000  H
  C35      1.0000 0.91060  0.03670  0.14000  Biso   1.000  C
  H18      1.0000 0.90050  0.97000  0.13080  Biso   1.000  H
  C36      1.0000 0.00388  0.18190  0.10260  Biso   1.000  C
  C37      1.0000 0.01260  0.28240  0.08010  Biso   1.000  C
  H19      1.0000 0.99430  0.33500  0.08440  Biso   1.000  H
  C38      1.0000 0.04834  0.30470  0.05120  Biso   1.000  C
  H20      1.0000 0.05400  0.37280  0.03870  Biso   1.000  H
  C39      1.0000 0.07573  0.22890  0.04030  Biso   1.000  C
  C40      1.0000 0.06777  0.13160  0.06500  Biso   1.000  C
  H21      1.0000 0.08620  0.07930  0.06060  Biso   1.000  H
  C41      1.0000 0.03240  0.10810  0.09700  Biso   1.000  C
  H22      1.0000 0.02820  0.04090  0.11490  Biso   1.000  H
  C42      1.0000 0.11325  0.25340  0.00390  Biso   1.000  C
  La2      1.0000 0.80913  0.69977  0.05111  Biso   1.000  La
  O7       1.0000 0.76786  0.86050  0.03640  Biso   1.000  O
  O8       1.0000 0.71521  0.95800  0.04930  Biso   1.000  O
  O9       1.0000 0.73578  0.17130  0.33650  Biso   1.000  O
  O10      1.0000 0.79602  0.25000  0.38430  Biso   1.000  O
  O11      1.0000 0.12353  0.34650  0.99710  Biso   1.000  O
  O12      1.0000 0.13314  0.17950  0.97870  Biso   1.000  O
  C43      1.0000 0.74744  0.43790  0.43080  Biso   1.000  C
  C44      1.0000 0.71992  0.50920  0.36580  Biso   1.000  C
  C45      1.0000 0.73580  0.56470  0.30000  Biso   1.000  C
  H23      1.0000 0.76290  0.55710  0.29630  Biso   1.000  H
  C46      1.0000 0.71107  0.63070  0.24070  Biso   1.000  C
  C47      1.0000 0.67077  0.64510  0.24830  Biso   1.000  C
  H24      1.0000 0.65450  0.69080  0.20870  Biso   1.000  H
  C48      1.0000 0.65454  0.59160  0.31480  Biso   1.000  C
  C49      1.0000 0.67969  0.52120  0.37170  Biso   1.000  C
  H25      1.0000 0.66910  0.48210  0.41410  Biso   1.000  H
  C50      1.0000 0.72753  0.68870  0.16630  Biso   1.000  C
  C51      1.0000 0.61237  0.61130  0.32830  Biso   1.000  C
  C52      1.0000 0.59536  0.70960  0.31430  Biso   1.000  C
  H26      1.0000 0.60960  0.76110  0.29060  Biso   1.000  H
  C53      1.0000 0.55750  0.73280  0.33480  Biso   1.000  C
  H27      1.0000 0.54720  0.79940  0.32560  Biso   1.000  H
  C54      1.0000 0.53521  0.65710  0.36890  Biso   1.000  C
  C55      1.0000 0.55151  0.55880  0.37860  Biso   1.000  C
  H28      1.0000 0.53660  0.50590  0.39820  Biso   1.000  H
  C56      1.0000 0.58940  0.53670  0.36000  Biso   1.000  C
  H29      1.0000 0.59950  0.47000  0.36920  Biso   1.000  H
  C57      1.0000 0.49612  0.68190  0.39740  Biso   1.000  C
  C58      1.0000 0.48740  0.78240  0.41990  Biso   1.000  C
  H30      1.0000 0.50570  0.83500  0.41560  Biso   1.000  H
  C59      1.0000 0.45166  0.80470  0.44880  Biso   1.000  C
  H31      1.0000 0.44600  0.87280  0.46130  Biso   1.000  H
  C60      1.0000 0.42427  0.72890  0.45970  Biso   1.000  C
  C61      1.0000 0.43223  0.63160  0.43500  Biso   1.000  C
  H32      1.0000 0.41380  0.57930  0.43940  Biso   1.000  H
  C62      1.0000 0.46760  0.60810  0.40300  Biso   1.000  C
  H33      1.0000 0.47180  0.54090  0.38510  Biso   1.000  H
  C63      1.0000 0.38675  0.75340  0.49610  Biso   1.000  C
  La3      1.0000 0.69087  0.19977  0.44889  Biso   1.000  La
  O13      1.0000 0.73214  0.36050  0.46360  Biso   1.000  O
  O14      1.0000 0.78479  0.45800  0.45070  Biso   1.000  O
  O15      1.0000 0.76422  0.67130  0.16350  Biso   1.000  O
  O16      1.0000 0.70398  0.75000  0.11570  Biso   1.000  O
  O17      1.0000 0.37647  0.84650  0.50290  Biso   1.000  O
  O18      1.0000 0.36686  0.67950  0.52130  Biso   1.000  O
  C64      1.0000 0.24744  0.93790  0.43080  Biso   1.000  C
  C65      1.0000 0.21992  0.00920  0.36580  Biso   1.000  C
  C66      1.0000 0.23580  0.06470  0.30000  Biso   1.000  C
  H34      1.0000 0.26290  0.05710  0.29630  Biso   1.000  H
  C67      1.0000 0.21107  0.13070  0.24070  Biso   1.000  C
  C68      1.0000 0.17077  0.14510  0.24830  Biso   1.000  C
  H35      1.0000 0.15450  0.19080  0.20870  Biso   1.000  H
  C69      1.0000 0.15454  0.09160  0.31480  Biso   1.000  C
  C70      1.0000 0.17969  0.02120  0.37170  Biso   1.000  C
  H36      1.0000 0.16910  0.98210  0.41410  Biso   1.000  H
  C71      1.0000 0.22753  0.18870  0.16630  Biso   1.000  C
  C72      1.0000 0.11237  0.11130  0.32830  Biso   1.000  C
  C73      1.0000 0.09536  0.20960  0.31430  Biso   1.000  C
  H37      1.0000 0.10960  0.26110  0.29060  Biso   1.000  H
  C74      1.0000 0.05750  0.23280  0.33480  Biso   1.000  C
  H38      1.0000 0.04720  0.29940  0.32560  Biso   1.000  H
  C75      1.0000 0.03521  0.15710  0.36890  Biso   1.000  C
  C76      1.0000 0.05151  0.05880  0.37860  Biso   1.000  C
  H39      1.0000 0.03660  0.00590  0.39820  Biso   1.000  H
  C77      1.0000 0.08940  0.03670  0.36000  Biso   1.000  C
  H40      1.0000 0.09950  0.97000  0.36920  Biso   1.000  H
  C78      1.0000 0.99612  0.18190  0.39740  Biso   1.000  C
  C79      1.0000 0.98740  0.28240  0.41990  Biso   1.000  C
  H41      1.0000 0.00570  0.33500  0.41560  Biso   1.000  H
  C80      1.0000 0.95166  0.30470  0.44880  Biso   1.000  C
  H42      1.0000 0.94600  0.37280  0.46130  Biso   1.000  H
  C81      1.0000 0.92427  0.22890  0.45970  Biso   1.000  C
  C82      1.0000 0.93223  0.13160  0.43500  Biso   1.000  C
  H43      1.0000 0.91380  0.07930  0.43940  Biso   1.000  H
  C83      1.0000 0.96760  0.10810  0.40300  Biso   1.000  C
  H44      1.0000 0.97180  0.04090  0.38510  Biso   1.000  H
  C84      1.0000 0.88675  0.25340  0.49610  Biso   1.000  C
  La4      1.0000 0.19087  0.69977  0.44889  Biso   1.000  La
  O19      1.0000 0.23214  0.86050  0.46360  Biso   1.000  O
  O20      1.0000 0.28479  0.95800  0.45070  Biso   1.000  O
  O21      1.0000 0.26422  0.17130  0.16350  Biso   1.000  O
  O22      1.0000 0.20398  0.25000  0.11570  Biso   1.000  O
  O23      1.0000 0.87647  0.34650  0.50290  Biso   1.000  O
  O24      1.0000 0.86686  0.17950  0.52130  Biso   1.000  O
  C85      1.0000 0.74744  0.56210  0.93080  Biso   1.000  C
  C86      1.0000 0.71992  0.49080  0.86580  Biso   1.000  C
  C87      1.0000 0.73580  0.43530  0.80000  Biso   1.000  C
  H45      1.0000 0.76290  0.44290  0.79630  Biso   1.000  H
  C88      1.0000 0.71107  0.36930  0.74070  Biso   1.000  C
  C89      1.0000 0.67077  0.35490  0.74830  Biso   1.000  C
  H46      1.0000 0.65450  0.30920  0.70870  Biso   1.000  H
  C90      1.0000 0.65454  0.40840  0.81480  Biso   1.000  C
  C91      1.0000 0.67969  0.47880  0.87170  Biso   1.000  C
  H47      1.0000 0.66910  0.51790  0.91410  Biso   1.000  H
  C92      1.0000 0.72753  0.31130  0.66630  Biso   1.000  C
  C93      1.0000 0.61237  0.38870  0.82830  Biso   1.000  C
  C94      1.0000 0.59536  0.29040  0.81430  Biso   1.000  C
  H48      1.0000 0.60960  0.23890  0.79060  Biso   1.000  H
  C95      1.0000 0.55750  0.26720  0.83480  Biso   1.000  C
  H49      1.0000 0.54720  0.20060  0.82560  Biso   1.000  H
  C96      1.0000 0.53521  0.34290  0.86890  Biso   1.000  C
  C97      1.0000 0.55151  0.44120  0.87860  Biso   1.000  C
  H50      1.0000 0.53660  0.49410  0.89820  Biso   1.000  H
  C98      1.0000 0.58940  0.46330  0.86000  Biso   1.000  C
  H51      1.0000 0.59950  0.53000  0.86920  Biso   1.000  H
  C99      1.0000 0.49612  0.31810  0.89740  Biso   1.000  C
  C100     1.0000 0.48740  0.21760  0.91990  Biso   1.000  C
  H52      1.0000 0.50570  0.16500  0.91560  Biso   1.000  H
  C101     1.0000 0.45166  0.19530  0.94880  Biso   1.000  C
  H53      1.0000 0.44600  0.12720  0.96130  Biso   1.000  H
  C102     1.0000 0.42427  0.27110  0.95970  Biso   1.000  C
  C103     1.0000 0.43223  0.36840  0.93500  Biso   1.000  C
  H54      1.0000 0.41380  0.42070  0.93940  Biso   1.000  H
  C104     1.0000 0.46760  0.39190  0.90300  Biso   1.000  C
  H55      1.0000 0.47180  0.45910  0.88510  Biso   1.000  H
  C105     1.0000 0.38675  0.24660  0.99610  Biso   1.000  C
  La5      1.0000 0.69087  0.80023  0.94889  Biso   1.000  La
  O25      1.0000 0.73214  0.63950  0.96360  Biso   1.000  O
  O26      1.0000 0.78479  0.54200  0.95070  Biso   1.000  O
  O27      1.0000 0.76422  0.32870  0.66350  Biso   1.000  O
  O28      1.0000 0.70398  0.25000  0.61570  Biso   1.000  O
  O29      1.0000 0.37647  0.15350  0.00290  Biso   1.000  O
  O30      1.0000 0.36686  0.32050  0.02130  Biso   1.000  O
  C106     1.0000 0.24744  0.06210  0.93080  Biso   1.000  C
  C107     1.0000 0.21992  0.99080  0.86580  Biso   1.000  C
  C108     1.0000 0.23580  0.93530  0.80000  Biso   1.000  C
  H56      1.0000 0.26290  0.94290  0.79630  Biso   1.000  H
  C109     1.0000 0.21107  0.86930  0.74070  Biso   1.000  C
  C110     1.0000 0.17077  0.85490  0.74830  Biso   1.000  C
  H57      1.0000 0.15450  0.80920  0.70870  Biso   1.000  H
  C111     1.0000 0.15454  0.90840  0.81480  Biso   1.000  C
  C112     1.0000 0.17969  0.97880  0.87170  Biso   1.000  C
  H58      1.0000 0.16910  0.01790  0.91410  Biso   1.000  H
  C113     1.0000 0.22753  0.81130  0.66630  Biso   1.000  C
  C114     1.0000 0.11237  0.88870  0.82830  Biso   1.000  C
  C115     1.0000 0.09536  0.79040  0.81430  Biso   1.000  C
  H59      1.0000 0.10960  0.73890  0.79060  Biso   1.000  H
  C116     1.0000 0.05750  0.76720  0.83480  Biso   1.000  C
  H60      1.0000 0.04720  0.70060  0.82560  Biso   1.000  H
  C117     1.0000 0.03521  0.84290  0.86890  Biso   1.000  C
  C118     1.0000 0.05151  0.94120  0.87860  Biso   1.000  C
  H61      1.0000 0.03660  0.99410  0.89820  Biso   1.000  H
  C119     1.0000 0.08940  0.96330  0.86000  Biso   1.000  C
  H62      1.0000 0.09950  0.03000  0.86920  Biso   1.000  H
  C120     1.0000 0.99612  0.81810  0.89740  Biso   1.000  C
  C121     1.0000 0.98740  0.71760  0.91990  Biso   1.000  C
  H63      1.0000 0.00570  0.66500  0.91560  Biso   1.000  H
  C122     1.0000 0.95166  0.69530  0.94880  Biso   1.000  C
  H64      1.0000 0.94600  0.62720  0.96130  Biso   1.000  H
  C123     1.0000 0.92427  0.77110  0.95970  Biso   1.000  C
  C124     1.0000 0.93223  0.86840  0.93500  Biso   1.000  C
  H65      1.0000 0.91380  0.92070  0.93940  Biso   1.000  H
  C125     1.0000 0.96760  0.89190  0.90300  Biso   1.000  C
  H66      1.0000 0.97180  0.95910  0.88510  Biso   1.000  H
  C126     1.0000 0.88675  0.74660  0.99610  Biso   1.000  C
  La6      1.0000 0.19087  0.30023  0.94889  Biso   1.000  La
  O31      1.0000 0.23214  0.13950  0.96360  Biso   1.000  O
  O32      1.0000 0.28479  0.04200  0.95070  Biso   1.000  O
  O33      1.0000 0.26422  0.82870  0.66350  Biso   1.000  O
  O34      1.0000 0.20398  0.75000  0.61570  Biso   1.000  O
  O35      1.0000 0.87647  0.65350  0.00290  Biso   1.000  O
  O36      1.0000 0.86686  0.82050  0.02130  Biso   1.000  O
  C127     1.0000 0.25256  0.56210  0.56920  Biso   1.000  C
  C128     1.0000 0.28008  0.49080  0.63420  Biso   1.000  C
  C129     1.0000 0.26420  0.43530  0.70000  Biso   1.000  C
  H67      1.0000 0.23710  0.44290  0.70370  Biso   1.000  H
  C130     1.0000 0.28893  0.36930  0.75930  Biso   1.000  C
  C131     1.0000 0.32923  0.35490  0.75170  Biso   1.000  C
  H68      1.0000 0.34550  0.30920  0.79130  Biso   1.000  H
  C132     1.0000 0.34546  0.40840  0.68520  Biso   1.000  C
  C133     1.0000 0.32031  0.47880  0.62830  Biso   1.000  C
  H69      1.0000 0.33090  0.51790  0.58590  Biso   1.000  H
  C134     1.0000 0.27247  0.31130  0.83370  Biso   1.000  C
  C135     1.0000 0.38763  0.38870  0.67170  Biso   1.000  C
  C136     1.0000 0.40464  0.29040  0.68570  Biso   1.000  C
  H70      1.0000 0.39040  0.23890  0.70940  Biso   1.000  H
  C137     1.0000 0.44250  0.26720  0.66520  Biso   1.000  C
  H71      1.0000 0.45280  0.20060  0.67440  Biso   1.000  H
  C138     1.0000 0.46479  0.34290  0.63110  Biso   1.000  C
  C139     1.0000 0.44849  0.44120  0.62140  Biso   1.000  C
  H72      1.0000 0.46340  0.49410  0.60180  Biso   1.000  H
  C140     1.0000 0.41060  0.46330  0.64000  Biso   1.000  C
  H73      1.0000 0.40050  0.53000  0.63080  Biso   1.000  H
  C141     1.0000 0.50388  0.31810  0.60260  Biso   1.000  C
  C142     1.0000 0.51260  0.21760  0.58010  Biso   1.000  C
  H74      1.0000 0.49430  0.16500  0.58440  Biso   1.000  H
  C143     1.0000 0.54834  0.19530  0.55120  Biso   1.000  C
  H75      1.0000 0.55400  0.12720  0.53870  Biso   1.000  H
  C144     1.0000 0.57573  0.27110  0.54030  Biso   1.000  C
  C145     1.0000 0.56777  0.36840  0.56500  Biso   1.000  C
  H76      1.0000 0.58620  0.42070  0.56060  Biso   1.000  H
  C146     1.0000 0.53240  0.39190  0.59700  Biso   1.000  C
  H77      1.0000 0.52820  0.45910  0.61490  Biso   1.000  H
  C147     1.0000 0.61325  0.24660  0.50390  Biso   1.000  C
  La7      1.0000 0.30913  0.80023  0.55111  Biso   1.000  La
  O37      1.0000 0.26786  0.63950  0.53640  Biso   1.000  O
  O38      1.0000 0.21521  0.54200  0.54930  Biso   1.000  O
  O39      1.0000 0.23578  0.32870  0.83650  Biso   1.000  O
  O40      1.0000 0.29602  0.25000  0.88430  Biso   1.000  O
  O41      1.0000 0.62353  0.15350  0.49710  Biso   1.000  O
  O42      1.0000 0.63314  0.32050  0.47870  Biso   1.000  O
  C148     1.0000 0.75256  0.06210  0.56920  Biso   1.000  C
  C149     1.0000 0.78008  0.99080  0.63420  Biso   1.000  C
  C150     1.0000 0.76420  0.93530  0.70000  Biso   1.000  C
  H78      1.0000 0.73710  0.94290  0.70370  Biso   1.000  H
  C151     1.0000 0.78893  0.86930  0.75930  Biso   1.000  C
  C152     1.0000 0.82923  0.85490  0.75170  Biso   1.000  C
  H79      1.0000 0.84550  0.80920  0.79130  Biso   1.000  H
  C153     1.0000 0.84546  0.90840  0.68520  Biso   1.000  C
  C154     1.0000 0.82031  0.97880  0.62830  Biso   1.000  C
  H80      1.0000 0.83090  0.01790  0.58590  Biso   1.000  H
  C155     1.0000 0.77247  0.81130  0.83370  Biso   1.000  C
  C156     1.0000 0.88763  0.88870  0.67170  Biso   1.000  C
  C157     1.0000 0.90464  0.79040  0.68570  Biso   1.000  C
  H81      1.0000 0.89040  0.73890  0.70940  Biso   1.000  H
  C158     1.0000 0.94250  0.76720  0.66520  Biso   1.000  C
  H82      1.0000 0.95280  0.70060  0.67440  Biso   1.000  H
  C159     1.0000 0.96479  0.84290  0.63110  Biso   1.000  C
  C160     1.0000 0.94849  0.94120  0.62140  Biso   1.000  C
  H83      1.0000 0.96340  0.99410  0.60180  Biso   1.000  H
  C161     1.0000 0.91060  0.96330  0.64000  Biso   1.000  C
  H84      1.0000 0.90050  0.03000  0.63080  Biso   1.000  H
  C162     1.0000 0.00388  0.81810  0.60260  Biso   1.000  C
  C163     1.0000 0.01260  0.71760  0.58010  Biso   1.000  C
  H85      1.0000 0.99430  0.66500  0.58440  Biso   1.000  H
  C164     1.0000 0.04834  0.69530  0.55120  Biso   1.000  C
  H86      1.0000 0.05400  0.62720  0.53870  Biso   1.000  H
  C165     1.0000 0.07573  0.77110  0.54030  Biso   1.000  C
  C166     1.0000 0.06777  0.86840  0.56500  Biso   1.000  C
  H87      1.0000 0.08620  0.92070  0.56060  Biso   1.000  H
  C167     1.0000 0.03240  0.89190  0.59700  Biso   1.000  C
  H88      1.0000 0.02820  0.95910  0.61490  Biso   1.000  H
  C168     1.0000 0.11325  0.74660  0.50390  Biso   1.000  C
  La8      1.0000 0.80913  0.30023  0.55111  Biso   1.000  La
  O43      1.0000 0.76786  0.13950  0.53640  Biso   1.000  O
  O44      1.0000 0.71521  0.04200  0.54930  Biso   1.000  O
  O45      1.0000 0.73578  0.82870  0.83650  Biso   1.000  O
  O46      1.0000 0.79602  0.75000  0.88430  Biso   1.000  O
  O47      1.0000 0.12353  0.65350  0.49710  Biso   1.000  O
  O48      1.0000 0.13314  0.82050  0.47870  Biso   1.000  O
