data_image0
_cell_length_a       13.9999
_cell_length_b       14.647
_cell_length_c       42.04
_cell_angle_alpha    90
_cell_angle_beta     97.948
_cell_angle_gamma    90

_symmetry_space_group_name_H-M    "P 1"
_symmetry_int_tables_number       1

loop_
  _symmetry_equiv_pos_as_xyz
  'x, y, z'

loop_
  _atom_site_label
  _atom_site_occupancy
  _atom_site_fract_x
  _atom_site_fract_y
  _atom_site_fract_z
  _atom_site_thermal_displace_type
  _atom_site_B_iso_or_equiv
  _atom_site_type_symbol
  C1       1.0000 0.56530  0.66800  0.23601  Biso   1.000  C
  C2       1.0000 0.48110  0.60770  0.22279  Biso   1.000  C
  C3       1.0000 0.44240  0.54370  0.24177  Biso   1.000  C
  H1       1.0000 0.46650  0.53870  0.26340  Biso   1.000  H
  C4       1.0000 0.36900  0.48800  0.22869  Biso   1.000  C
  C5       1.0000 0.32860  0.49810  0.19644  Biso   1.000  C
  H2       1.0000 0.27920  0.45930  0.18780  Biso   1.000  H
  C6       1.0000 0.36110  0.56450  0.17751  Biso   1.000  C
  C7       1.0000 0.44050  0.61670  0.19067  Biso   1.000  C
  H3       1.0000 0.46700  0.65850  0.17770  Biso   1.000  H
  C8       1.0000 0.32840  0.41750  0.24947  Biso   1.000  C
  C9       1.0000 0.31630  0.58010  0.14385  Biso   1.000  C
  C10      1.0000 0.27310  0.50920  0.12461  Biso   1.000  C
  H4       1.0000 0.27250  0.45020  0.13280  Biso   1.000  H
  C11      1.0000 0.23120  0.52680  0.09341  Biso   1.000  C
  H5       1.0000 0.20460  0.47810  0.08100  Biso   1.000  H
  C12      1.0000 0.22690  0.61230  0.07975  Biso   1.000  C
  C13      1.0000 0.27020  0.68080  0.09871  Biso   1.000  C
  H6       1.0000 0.27030  0.73960  0.09030  Biso   1.000  H
  C14      1.0000 0.31400  0.66590  0.13007  Biso   1.000  C
  H7       1.0000 0.34230  0.71470  0.14200  Biso   1.000  H
  C15      1.0000 0.17930  0.63060  0.04620  Biso   1.000  C
  C16      1.0000 0.14610  0.55830  0.02627  Biso   1.000  C
  H8       1.0000 0.15470  0.49850  0.03360  Biso   1.000  H
  C17      1.0000 0.10010  0.57520  0.99538  Biso   1.000  C
  H9       1.0000 0.07790  0.52680  0.98200  Biso   1.000  H
  C18      1.0000 0.08730  0.66450  0.98441  Biso   1.000  C
  C19      1.0000 0.12040  0.73680  0.00433  Biso   1.000  C
  H10      1.0000 0.11180  0.79660  0.99700  Biso   1.000  H
  C20      1.0000 0.16640  0.71990  0.03523  Biso   1.000  C
  H11      1.0000 0.18860  0.76830  0.04860  Biso   1.000  H
  C21      1.0000 0.03360  0.68250  0.95072  Biso   1.000  C
  C22      1.0000 0.00680  0.61210  0.92864  Biso   1.000  C
  H12      1.0000 0.02370  0.55220  0.93420  Biso   1.000  H
  C23      1.0000 0.95630  0.62970  0.89913  Biso   1.000  C
  H13      1.0000 0.93830  0.58180  0.88510  Biso   1.000  H
  C24      1.0000 0.93180  0.71810  0.89001  Biso   1.000  C
  C25      1.0000 0.96460  0.78940  0.91070  Biso   1.000  C
  H14      1.0000 0.95380  0.84960  0.90420  Biso   1.000  H
  C26      1.0000 0.01230  0.77100  0.94043  Biso   1.000  C
  H15      1.0000 0.03130  0.81920  0.95430  Biso   1.000  H
  C27      1.0000 0.87050  0.73950  0.85877  Biso   1.000  C
  La1      1.0000 0.74569  0.78748  0.20248  Biso   1.000  La
  O1       1.0000 0.59370  0.72670  0.21748  Biso   1.000  O
  O2       1.0000 0.60200  0.65570  0.26415  Biso   1.000  O
  O3       1.0000 0.34060  0.42870  0.27930  Biso   1.000  O
  O4       1.0000 0.28430  0.34950  0.23645  Biso   1.000  O
  O5       1.0000 0.82590  0.67640  0.84268  Biso   1.000  O
  O6       1.0000 0.86690  0.81970  0.84844  Biso   1.000  O
  C28      1.0000 0.06530  0.16800  0.73601  Biso   1.000  C
  C29      1.0000 0.98110  0.10770  0.72279  Biso   1.000  C
  C30      1.0000 0.94240  0.04370  0.74177  Biso   1.000  C
  H16      1.0000 0.96650  0.03870  0.76340  Biso   1.000  H
  C31      1.0000 0.86900  0.98800  0.72869  Biso   1.000  C
  C32      1.0000 0.82860  0.99810  0.69644  Biso   1.000  C
  H17      1.0000 0.77920  0.95930  0.68780  Biso   1.000  H
  C33      1.0000 0.86110  0.06450  0.67751  Biso   1.000  C
  C34      1.0000 0.94050  0.11670  0.69067  Biso   1.000  C
  H18      1.0000 0.96700  0.15850  0.67770  Biso   1.000  H
  C35      1.0000 0.82840  0.91750  0.74947  Biso   1.000  C
  C36      1.0000 0.81630  0.08010  0.64385  Biso   1.000  C
  C37      1.0000 0.77310  0.00920  0.62461  Biso   1.000  C
  H19      1.0000 0.77250  0.95020  0.63280  Biso   1.000  H
  C38      1.0000 0.73120  0.02680  0.59341  Biso   1.000  C
  H20      1.0000 0.70460  0.97810  0.58100  Biso   1.000  H
  C39      1.0000 0.72690  0.11230  0.57975  Biso   1.000  C
  C40      1.0000 0.77020  0.18080  0.59871  Biso   1.000  C
  H21      1.0000 0.77030  0.23960  0.59030  Biso   1.000  H
  C41      1.0000 0.81400  0.16590  0.63007  Biso   1.000  C
  H22      1.0000 0.84230  0.21470  0.64200  Biso   1.000  H
  C42      1.0000 0.67930  0.13060  0.54620  Biso   1.000  C
  C43      1.0000 0.64610  0.05830  0.52627  Biso   1.000  C
  H23      1.0000 0.65470  0.99850  0.53360  Biso   1.000  H
  C44      1.0000 0.60010  0.07520  0.49538  Biso   1.000  C
  H24      1.0000 0.57790  0.02680  0.48200  Biso   1.000  H
  C45      1.0000 0.58730  0.16450  0.48441  Biso   1.000  C
  C46      1.0000 0.62040  0.23680  0.50433  Biso   1.000  C
  H25      1.0000 0.61180  0.29660  0.49700  Biso   1.000  H
  C47      1.0000 0.66640  0.21990  0.53523  Biso   1.000  C
  H26      1.0000 0.68860  0.26830  0.54860  Biso   1.000  H
  C48      1.0000 0.53360  0.18250  0.45072  Biso   1.000  C
  C49      1.0000 0.50680  0.11210  0.42864  Biso   1.000  C
  H27      1.0000 0.52370  0.05220  0.43420  Biso   1.000  H
  C50      1.0000 0.45630  0.12970  0.39913  Biso   1.000  C
  H28      1.0000 0.43830  0.08180  0.38510  Biso   1.000  H
  C51      1.0000 0.43180  0.21810  0.39001  Biso   1.000  C
  C52      1.0000 0.46460  0.28940  0.41070  Biso   1.000  C
  H29      1.0000 0.45380  0.34960  0.40420  Biso   1.000  H
  C53      1.0000 0.51230  0.27100  0.44043  Biso   1.000  C
  H30      1.0000 0.53130  0.31920  0.45430  Biso   1.000  H
  C54      1.0000 0.37050  0.23950  0.35877  Biso   1.000  C
  La2      1.0000 0.24569  0.28748  0.70248  Biso   1.000  La
  O7       1.0000 0.09370  0.22670  0.71748  Biso   1.000  O
  O8       1.0000 0.10200  0.15570  0.76415  Biso   1.000  O
  O9       1.0000 0.84060  0.92870  0.77930  Biso   1.000  O
  O10      1.0000 0.78430  0.84950  0.73645  Biso   1.000  O
  O11      1.0000 0.32590  0.17640  0.34268  Biso   1.000  O
  O12      1.0000 0.36690  0.31970  0.34844  Biso   1.000  O
  C55      1.0000 0.93470  0.66800  0.76399  Biso   1.000  C
  C56      1.0000 0.01890  0.60770  0.77721  Biso   1.000  C
  C57      1.0000 0.05760  0.54370  0.75823  Biso   1.000  C
  H31      1.0000 0.03350  0.53870  0.73660  Biso   1.000  H
  C58      1.0000 0.13100  0.48800  0.77131  Biso   1.000  C
  C59      1.0000 0.17140  0.49810  0.80356  Biso   1.000  C
  H32      1.0000 0.22080  0.45930  0.81220  Biso   1.000  H
  C60      1.0000 0.13890  0.56450  0.82249  Biso   1.000  C
  C61      1.0000 0.05950  0.61670  0.80933  Biso   1.000  C
  H33      1.0000 0.03300  0.65850  0.82230  Biso   1.000  H
  C62      1.0000 0.17160  0.41750  0.75053  Biso   1.000  C
  C63      1.0000 0.18370  0.58010  0.85615  Biso   1.000  C
  C64      1.0000 0.22690  0.50920  0.87539  Biso   1.000  C
  H34      1.0000 0.22750  0.45020  0.86720  Biso   1.000  H
  C65      1.0000 0.26880  0.52680  0.90659  Biso   1.000  C
  H35      1.0000 0.29540  0.47810  0.91900  Biso   1.000  H
  C66      1.0000 0.27310  0.61230  0.92025  Biso   1.000  C
  C67      1.0000 0.22980  0.68080  0.90129  Biso   1.000  C
  H36      1.0000 0.22970  0.73960  0.90970  Biso   1.000  H
  C68      1.0000 0.18600  0.66590  0.86993  Biso   1.000  C
  H37      1.0000 0.15770  0.71470  0.85800  Biso   1.000  H
  C69      1.0000 0.32070  0.63060  0.95380  Biso   1.000  C
  C70      1.0000 0.35390  0.55830  0.97373  Biso   1.000  C
  H38      1.0000 0.34530  0.49850  0.96640  Biso   1.000  H
  C71      1.0000 0.39990  0.57520  0.00462  Biso   1.000  C
  H39      1.0000 0.42210  0.52680  0.01800  Biso   1.000  H
  C72      1.0000 0.41270  0.66450  0.01559  Biso   1.000  C
  C73      1.0000 0.37960  0.73680  0.99567  Biso   1.000  C
  H40      1.0000 0.38820  0.79660  0.00300  Biso   1.000  H
  C74      1.0000 0.33360  0.71990  0.96477  Biso   1.000  C
  H41      1.0000 0.31140  0.76830  0.95140  Biso   1.000  H
  C75      1.0000 0.46640  0.68250  0.04928  Biso   1.000  C
  C76      1.0000 0.49320  0.61210  0.07136  Biso   1.000  C
  H42      1.0000 0.47630  0.55220  0.06580  Biso   1.000  H
  C77      1.0000 0.54370  0.62970  0.10087  Biso   1.000  C
  H43      1.0000 0.56170  0.58180  0.11490  Biso   1.000  H
  C78      1.0000 0.56820  0.71810  0.10999  Biso   1.000  C
  C79      1.0000 0.53540  0.78940  0.08930  Biso   1.000  C
  H44      1.0000 0.54620  0.84960  0.09580  Biso   1.000  H
  C80      1.0000 0.48770  0.77100  0.05957  Biso   1.000  C
  H45      1.0000 0.46870  0.81920  0.04570  Biso   1.000  H
  C81      1.0000 0.62950  0.73950  0.14123  Biso   1.000  C
  La3      1.0000 0.75431  0.78748  0.79752  Biso   1.000  La
  O13      1.0000 0.90630  0.72670  0.78252  Biso   1.000  O
  O14      1.0000 0.89800  0.65570  0.73585  Biso   1.000  O
  O15      1.0000 0.15940  0.42870  0.72070  Biso   1.000  O
  O16      1.0000 0.21570  0.34950  0.76355  Biso   1.000  O
  O17      1.0000 0.67410  0.67640  0.15732  Biso   1.000  O
  O18      1.0000 0.63310  0.81970  0.15156  Biso   1.000  O
  C82      1.0000 0.43470  0.16800  0.26399  Biso   1.000  C
  C83      1.0000 0.51890  0.10770  0.27721  Biso   1.000  C
  C84      1.0000 0.55760  0.04370  0.25823  Biso   1.000  C
  H46      1.0000 0.53350  0.03870  0.23660  Biso   1.000  H
  C85      1.0000 0.63100  0.98800  0.27131  Biso   1.000  C
  C86      1.0000 0.67140  0.99810  0.30356  Biso   1.000  C
  H47      1.0000 0.72080  0.95930  0.31220  Biso   1.000  H
  C87      1.0000 0.63890  0.06450  0.32249  Biso   1.000  C
  C88      1.0000 0.55950  0.11670  0.30933  Biso   1.000  C
  H48      1.0000 0.53300  0.15850  0.32230  Biso   1.000  H
  C89      1.0000 0.67160  0.91750  0.25053  Biso   1.000  C
  C90      1.0000 0.68370  0.08010  0.35615  Biso   1.000  C
  C91      1.0000 0.72690  0.00920  0.37539  Biso   1.000  C
  H49      1.0000 0.72750  0.95020  0.36720  Biso   1.000  H
  C92      1.0000 0.76880  0.02680  0.40659  Biso   1.000  C
  H50      1.0000 0.79540  0.97810  0.41900  Biso   1.000  H
  C93      1.0000 0.77310  0.11230  0.42025  Biso   1.000  C
  C94      1.0000 0.72980  0.18080  0.40129  Biso   1.000  C
  H51      1.0000 0.72970  0.23960  0.40970  Biso   1.000  H
  C95      1.0000 0.68600  0.16590  0.36993  Biso   1.000  C
  H52      1.0000 0.65770  0.21470  0.35800  Biso   1.000  H
  C96      1.0000 0.82070  0.13060  0.45380  Biso   1.000  C
  C97      1.0000 0.85390  0.05830  0.47373  Biso   1.000  C
  H53      1.0000 0.84530  0.99850  0.46640  Biso   1.000  H
  C98      1.0000 0.89990  0.07520  0.50462  Biso   1.000  C
  H54      1.0000 0.92210  0.02680  0.51800  Biso   1.000  H
  C99      1.0000 0.91270  0.16450  0.51559  Biso   1.000  C
  C100     1.0000 0.87960  0.23680  0.49567  Biso   1.000  C
  H55      1.0000 0.88820  0.29660  0.50300  Biso   1.000  H
  C101     1.0000 0.83360  0.21990  0.46477  Biso   1.000  C
  H56      1.0000 0.81140  0.26830  0.45140  Biso   1.000  H
  C102     1.0000 0.96640  0.18250  0.54928  Biso   1.000  C
  C103     1.0000 0.99320  0.11210  0.57136  Biso   1.000  C
  H57      1.0000 0.97630  0.05220  0.56580  Biso   1.000  H
  C104     1.0000 0.04370  0.12970  0.60087  Biso   1.000  C
  H58      1.0000 0.06170  0.08180  0.61490  Biso   1.000  H
  C105     1.0000 0.06820  0.21810  0.60999  Biso   1.000  C
  C106     1.0000 0.03540  0.28940  0.58930  Biso   1.000  C
  H59      1.0000 0.04620  0.34960  0.59580  Biso   1.000  H
  C107     1.0000 0.98770  0.27100  0.55957  Biso   1.000  C
  H60      1.0000 0.96870  0.31920  0.54570  Biso   1.000  H
  C108     1.0000 0.12950  0.23950  0.64123  Biso   1.000  C
  La4      1.0000 0.25431  0.28748  0.29752  Biso   1.000  La
  O19      1.0000 0.40630  0.22670  0.28252  Biso   1.000  O
  O20      1.0000 0.39800  0.15570  0.23585  Biso   1.000  O
  O21      1.0000 0.65940  0.92870  0.22070  Biso   1.000  O
  O22      1.0000 0.71570  0.84950  0.26355  Biso   1.000  O
  O23      1.0000 0.17410  0.17640  0.65732  Biso   1.000  O
  O24      1.0000 0.13310  0.31970  0.65156  Biso   1.000  O
  C109     1.0000 0.43470  0.33200  0.76399  Biso   1.000  C
  C110     1.0000 0.51890  0.39230  0.77721  Biso   1.000  C
  C111     1.0000 0.55760  0.45630  0.75823  Biso   1.000  C
  H61      1.0000 0.53350  0.46130  0.73660  Biso   1.000  H
  C112     1.0000 0.63100  0.51200  0.77131  Biso   1.000  C
  C113     1.0000 0.67140  0.50190  0.80356  Biso   1.000  C
  H62      1.0000 0.72080  0.54070  0.81220  Biso   1.000  H
  C114     1.0000 0.63890  0.43550  0.82249  Biso   1.000  C
  C115     1.0000 0.55950  0.38330  0.80933  Biso   1.000  C
  H63      1.0000 0.53300  0.34150  0.82230  Biso   1.000  H
  C116     1.0000 0.67160  0.58250  0.75053  Biso   1.000  C
  C117     1.0000 0.68370  0.41990  0.85615  Biso   1.000  C
  C118     1.0000 0.72690  0.49080  0.87539  Biso   1.000  C
  H64      1.0000 0.72750  0.54980  0.86720  Biso   1.000  H
  C119     1.0000 0.76880  0.47320  0.90659  Biso   1.000  C
  H65      1.0000 0.79540  0.52190  0.91900  Biso   1.000  H
  C120     1.0000 0.77310  0.38770  0.92025  Biso   1.000  C
  C121     1.0000 0.72980  0.31920  0.90129  Biso   1.000  C
  H66      1.0000 0.72970  0.26040  0.90970  Biso   1.000  H
  C122     1.0000 0.68600  0.33410  0.86993  Biso   1.000  C
  H67      1.0000 0.65770  0.28530  0.85800  Biso   1.000  H
  C123     1.0000 0.82070  0.36940  0.95380  Biso   1.000  C
  C124     1.0000 0.85390  0.44170  0.97373  Biso   1.000  C
  H68      1.0000 0.84530  0.50150  0.96640  Biso   1.000  H
  C125     1.0000 0.89990  0.42480  0.00462  Biso   1.000  C
  H69      1.0000 0.92210  0.47320  0.01800  Biso   1.000  H
  C126     1.0000 0.91270  0.33550  0.01559  Biso   1.000  C
  C127     1.0000 0.87960  0.26320  0.99567  Biso   1.000  C
  H70      1.0000 0.88820  0.20340  0.00300  Biso   1.000  H
  C128     1.0000 0.83360  0.28010  0.96477  Biso   1.000  C
  H71      1.0000 0.81140  0.23170  0.95140  Biso   1.000  H
  C129     1.0000 0.96640  0.31750  0.04928  Biso   1.000  C
  C130     1.0000 0.99320  0.38790  0.07136  Biso   1.000  C
  H72      1.0000 0.97630  0.44780  0.06580  Biso   1.000  H
  C131     1.0000 0.04370  0.37030  0.10087  Biso   1.000  C
  H73      1.0000 0.06170  0.41820  0.11490  Biso   1.000  H
  C132     1.0000 0.06820  0.28190  0.10999  Biso   1.000  C
  C133     1.0000 0.03540  0.21060  0.08930  Biso   1.000  C
  H74      1.0000 0.04620  0.15040  0.09580  Biso   1.000  H
  C134     1.0000 0.98770  0.22900  0.05957  Biso   1.000  C
  H75      1.0000 0.96870  0.18080  0.04570  Biso   1.000  H
  C135     1.0000 0.12950  0.26050  0.14123  Biso   1.000  C
  La5      1.0000 0.25431  0.21252  0.79752  Biso   1.000  La
  O25      1.0000 0.40630  0.27330  0.78252  Biso   1.000  O
  O26      1.0000 0.39800  0.34430  0.73585  Biso   1.000  O
  O27      1.0000 0.65940  0.57130  0.72070  Biso   1.000  O
  O28      1.0000 0.71570  0.65050  0.76355  Biso   1.000  O
  O29      1.0000 0.17410  0.32360  0.15732  Biso   1.000  O
  O30      1.0000 0.13310  0.18030  0.15156  Biso   1.000  O
  C136     1.0000 0.93470  0.83200  0.26399  Biso   1.000  C
  C137     1.0000 0.01890  0.89230  0.27721  Biso   1.000  C
  C138     1.0000 0.05760  0.95630  0.25823  Biso   1.000  C
  H76      1.0000 0.03350  0.96130  0.23660  Biso   1.000  H
  C139     1.0000 0.13100  0.01200  0.27131  Biso   1.000  C
  C140     1.0000 0.17140  0.00190  0.30356  Biso   1.000  C
  H77      1.0000 0.22080  0.04070  0.31220  Biso   1.000  H
  C141     1.0000 0.13890  0.93550  0.32249  Biso   1.000  C
  C142     1.0000 0.05950  0.88330  0.30933  Biso   1.000  C
  H78      1.0000 0.03300  0.84150  0.32230  Biso   1.000  H
  C143     1.0000 0.17160  0.08250  0.25053  Biso   1.000  C
  C144     1.0000 0.18370  0.91990  0.35615  Biso   1.000  C
  C145     1.0000 0.22690  0.99080  0.37539  Biso   1.000  C
  H79      1.0000 0.22750  0.04980  0.36720  Biso   1.000  H
  C146     1.0000 0.26880  0.97320  0.40659  Biso   1.000  C
  H80      1.0000 0.29540  0.02190  0.41900  Biso   1.000  H
  C147     1.0000 0.27310  0.88770  0.42025  Biso   1.000  C
  C148     1.0000 0.22980  0.81920  0.40129  Biso   1.000  C
  H81      1.0000 0.22970  0.76040  0.40970  Biso   1.000  H
  C149     1.0000 0.18600  0.83410  0.36993  Biso   1.000  C
  H82      1.0000 0.15770  0.78530  0.35800  Biso   1.000  H
  C150     1.0000 0.32070  0.86940  0.45380  Biso   1.000  C
  C151     1.0000 0.35390  0.94170  0.47373  Biso   1.000  C
  H83      1.0000 0.34530  0.00150  0.46640  Biso   1.000  H
  C152     1.0000 0.39990  0.92480  0.50462  Biso   1.000  C
  H84      1.0000 0.42210  0.97320  0.51800  Biso   1.000  H
  C153     1.0000 0.41270  0.83550  0.51559  Biso   1.000  C
  C154     1.0000 0.37960  0.76320  0.49567  Biso   1.000  C
  H85      1.0000 0.38820  0.70340  0.50300  Biso   1.000  H
  C155     1.0000 0.33360  0.78010  0.46477  Biso   1.000  C
  H86      1.0000 0.31140  0.73170  0.45140  Biso   1.000  H
  C156     1.0000 0.46640  0.81750  0.54928  Biso   1.000  C
  C157     1.0000 0.49320  0.88790  0.57136  Biso   1.000  C
  H87      1.0000 0.47630  0.94780  0.56580  Biso   1.000  H
  C158     1.0000 0.54370  0.87030  0.60087  Biso   1.000  C
  H88      1.0000 0.56170  0.91820  0.61490  Biso   1.000  H
  C159     1.0000 0.56820  0.78190  0.60999  Biso   1.000  C
  C160     1.0000 0.53540  0.71060  0.58930  Biso   1.000  C
  H89      1.0000 0.54620  0.65040  0.59580  Biso   1.000  H
  C161     1.0000 0.48770  0.72900  0.55957  Biso   1.000  C
  H90      1.0000 0.46870  0.68080  0.54570  Biso   1.000  H
  C162     1.0000 0.62950  0.76050  0.64123  Biso   1.000  C
  La6      1.0000 0.75431  0.71252  0.29752  Biso   1.000  La
  O31      1.0000 0.90630  0.77330  0.28252  Biso   1.000  O
  O32      1.0000 0.89800  0.84430  0.23585  Biso   1.000  O
  O33      1.0000 0.15940  0.07130  0.22070  Biso   1.000  O
  O34      1.0000 0.21570  0.15050  0.26355  Biso   1.000  O
  O35      1.0000 0.67410  0.82360  0.65732  Biso   1.000  O
  O36      1.0000 0.63310  0.68030  0.65156  Biso   1.000  O
  C163     1.0000 0.06530  0.33200  0.23601  Biso   1.000  C
  C164     1.0000 0.98110  0.39230  0.22279  Biso   1.000  C
  C165     1.0000 0.94240  0.45630  0.24177  Biso   1.000  C
  H91      1.0000 0.96650  0.46130  0.26340  Biso   1.000  H
  C166     1.0000 0.86900  0.51200  0.22869  Biso   1.000  C
  C167     1.0000 0.82860  0.50190  0.19644  Biso   1.000  C
  H92      1.0000 0.77920  0.54070  0.18780  Biso   1.000  H
  C168     1.0000 0.86110  0.43550  0.17751  Biso   1.000  C
  C169     1.0000 0.94050  0.38330  0.19067  Biso   1.000  C
  H93      1.0000 0.96700  0.34150  0.17770  Biso   1.000  H
  C170     1.0000 0.82840  0.58250  0.24947  Biso   1.000  C
  C171     1.0000 0.81630  0.41990  0.14385  Biso   1.000  C
  C172     1.0000 0.77310  0.49080  0.12461  Biso   1.000  C
  H94      1.0000 0.77250  0.54980  0.13280  Biso   1.000  H
  C173     1.0000 0.73120  0.47320  0.09341  Biso   1.000  C
  H95      1.0000 0.70460  0.52190  0.08100  Biso   1.000  H
  C174     1.0000 0.72690  0.38770  0.07975  Biso   1.000  C
  C175     1.0000 0.77020  0.31920  0.09871  Biso   1.000  C
  H96      1.0000 0.77030  0.26040  0.09030  Biso   1.000  H
  C176     1.0000 0.81400  0.33410  0.13007  Biso   1.000  C
  H97      1.0000 0.84230  0.28530  0.14200  Biso   1.000  H
  C177     1.0000 0.67930  0.36940  0.04620  Biso   1.000  C
  C178     1.0000 0.64610  0.44170  0.02627  Biso   1.000  C
  H98      1.0000 0.65470  0.50150  0.03360  Biso   1.000  H
  C179     1.0000 0.60010  0.42480  0.99538  Biso   1.000  C
  H99      1.0000 0.57790  0.47320  0.98200  Biso   1.000  H
  C180     1.0000 0.58730  0.33550  0.98441  Biso   1.000  C
  C181     1.0000 0.62040  0.26320  0.00433  Biso   1.000  C
  H100     1.0000 0.61180  0.20340  0.99700  Biso   1.000  H
  C182     1.0000 0.66640  0.28010  0.03523  Biso   1.000  C
  H101     1.0000 0.68860  0.23170  0.04860  Biso   1.000  H
  C183     1.0000 0.53360  0.31750  0.95072  Biso   1.000  C
  C184     1.0000 0.50680  0.38790  0.92864  Biso   1.000  C
  H102     1.0000 0.52370  0.44780  0.93420  Biso   1.000  H
  C185     1.0000 0.45630  0.37030  0.89913  Biso   1.000  C
  H103     1.0000 0.43830  0.41820  0.88510  Biso   1.000  H
  C186     1.0000 0.43180  0.28190  0.89001  Biso   1.000  C
  C187     1.0000 0.46460  0.21060  0.91070  Biso   1.000  C
  H104     1.0000 0.45380  0.15040  0.90420  Biso   1.000  H
  C188     1.0000 0.51230  0.22900  0.94043  Biso   1.000  C
  H105     1.0000 0.53130  0.18080  0.95430  Biso   1.000  H
  C189     1.0000 0.37050  0.26050  0.85877  Biso   1.000  C
  La7      1.0000 0.24569  0.21252  0.20248  Biso   1.000  La
  O37      1.0000 0.09370  0.27330  0.21748  Biso   1.000  O
  O38      1.0000 0.10200  0.34430  0.26415  Biso   1.000  O
  O39      1.0000 0.84060  0.57130  0.27930  Biso   1.000  O
  O40      1.0000 0.78430  0.65050  0.23645  Biso   1.000  O
  O41      1.0000 0.32590  0.32360  0.84268  Biso   1.000  O
  O42      1.0000 0.36690  0.18030  0.84844  Biso   1.000  O
  C190     1.0000 0.56530  0.83200  0.73601  Biso   1.000  C
  C191     1.0000 0.48110  0.89230  0.72279  Biso   1.000  C
  C192     1.0000 0.44240  0.95630  0.74177  Biso   1.000  C
  H106     1.0000 0.46650  0.96130  0.76340  Biso   1.000  H
  C193     1.0000 0.36900  0.01200  0.72869  Biso   1.000  C
  C194     1.0000 0.32860  0.00190  0.69644  Biso   1.000  C
  H107     1.0000 0.27920  0.04070  0.68780  Biso   1.000  H
  C195     1.0000 0.36110  0.93550  0.67751  Biso   1.000  C
  C196     1.0000 0.44050  0.88330  0.69067  Biso   1.000  C
  H108     1.0000 0.46700  0.84150  0.67770  Biso   1.000  H
  C197     1.0000 0.32840  0.08250  0.74947  Biso   1.000  C
  C198     1.0000 0.31630  0.91990  0.64385  Biso   1.000  C
  C199     1.0000 0.27310  0.99080  0.62461  Biso   1.000  C
  H109     1.0000 0.27250  0.04980  0.63280  Biso   1.000  H
  C200     1.0000 0.23120  0.97320  0.59341  Biso   1.000  C
  H110     1.0000 0.20460  0.02190  0.58100  Biso   1.000  H
  C201     1.0000 0.22690  0.88770  0.57975  Biso   1.000  C
  C202     1.0000 0.27020  0.81920  0.59871  Biso   1.000  C
  H111     1.0000 0.27030  0.76040  0.59030  Biso   1.000  H
  C203     1.0000 0.31400  0.83410  0.63007  Biso   1.000  C
  H112     1.0000 0.34230  0.78530  0.64200  Biso   1.000  H
  C204     1.0000 0.17930  0.86940  0.54620  Biso   1.000  C
  C205     1.0000 0.14610  0.94170  0.52627  Biso   1.000  C
  H113     1.0000 0.15470  0.00150  0.53360  Biso   1.000  H
  C206     1.0000 0.10010  0.92480  0.49538  Biso   1.000  C
  H114     1.0000 0.07790  0.97320  0.48200  Biso   1.000  H
  C207     1.0000 0.08730  0.83550  0.48441  Biso   1.000  C
  C208     1.0000 0.12040  0.76320  0.50433  Biso   1.000  C
  H115     1.0000 0.11180  0.70340  0.49700  Biso   1.000  H
  C209     1.0000 0.16640  0.78010  0.53523  Biso   1.000  C
  H116     1.0000 0.18860  0.73170  0.54860  Biso   1.000  H
  C210     1.0000 0.03360  0.81750  0.45072  Biso   1.000  C
  C211     1.0000 0.00680  0.88790  0.42864  Biso   1.000  C
  H117     1.0000 0.02370  0.94780  0.43420  Biso   1.000  H
  C212     1.0000 0.95630  0.87030  0.39913  Biso   1.000  C
  H118     1.0000 0.93830  0.91820  0.38510  Biso   1.000  H
  C213     1.0000 0.93180  0.78190  0.39001  Biso   1.000  C
  C214     1.0000 0.96460  0.71060  0.41070  Biso   1.000  C
  H119     1.0000 0.95380  0.65040  0.40420  Biso   1.000  H
  C215     1.0000 0.01230  0.72900  0.44043  Biso   1.000  C
  H120     1.0000 0.03130  0.68080  0.45430  Biso   1.000  H
  C216     1.0000 0.87050  0.76050  0.35877  Biso   1.000  C
  La8      1.0000 0.74569  0.71252  0.70248  Biso   1.000  La
  O43      1.0000 0.59370  0.77330  0.71748  Biso   1.000  O
  O44      1.0000 0.60200  0.84430  0.76415  Biso   1.000  O
  O45      1.0000 0.34060  0.07130  0.77930  Biso   1.000  O
  O46      1.0000 0.28430  0.15050  0.73645  Biso   1.000  O
  O47      1.0000 0.82590  0.82360  0.34268  Biso   1.000  O
  O48      1.0000 0.86690  0.68030  0.34844  Biso   1.000  O
