data_image0
_cell_length_a       42.142
_cell_length_b       14.065
_cell_length_c       13.87
_cell_angle_alpha    90
_cell_angle_beta     101.996
_cell_angle_gamma    90

_symmetry_space_group_name_H-M    "P 1"
_symmetry_int_tables_number       1

loop_
  _symmetry_equiv_pos_as_xyz
  'x, y, z'

loop_
  _atom_site_label
  _atom_site_occupancy
  _atom_site_fract_x
  _atom_site_fract_y
  _atom_site_fract_z
  _atom_site_thermal_displace_type
  _atom_site_B_iso_or_equiv
  _atom_site_type_symbol
  C1       1.0000 0.25280  0.42120  0.57710  Biso   1.000  C
  C2       1.0000 0.27240  0.49230  0.63580  Biso   1.000  C
  C3       1.0000 0.30470  0.50310  0.63030  Biso   1.000  C
  H1       1.0000 0.31350  0.46400  0.58850  Biso   1.000  H
  C4       1.0000 0.32430  0.57220  0.68700  Biso   1.000  C
  C5       1.0000 0.31130  0.62580  0.75150  Biso   1.000  C
  H2       1.0000 0.32420  0.67130  0.78950  Biso   1.000  H
  C6       1.0000 0.27980  0.61470  0.76230  Biso   1.000  C
  C7       1.0000 0.25960  0.55100  0.69960  Biso   1.000  C
  H3       1.0000 0.23760  0.54790  0.70050  Biso   1.000  H
  C8       1.0000 0.26550  0.67630  0.83720  Biso   1.000  C
  C9       1.0000 0.35880  0.58690  0.67640  Biso   1.000  C
  C10      1.0000 0.37830  0.51450  0.65550  Biso   1.000  C
  H4       1.0000 0.37000  0.45300  0.65150  Biso   1.000  H
  C11      1.0000 0.40980  0.52720  0.63990  Biso   1.000  C
  H5       1.0000 0.42170  0.47550  0.62540  Biso   1.000  H
  C12      1.0000 0.42310  0.61980  0.64640  Biso   1.000  C
  C13      1.0000 0.40340  0.69730  0.67130  Biso   1.000  C
  H6       1.0000 0.41210  0.75820  0.68000  Biso   1.000  H
  C14      1.0000 0.37150  0.68190  0.68230  Biso   1.000  C
  H7       1.0000 0.35860  0.73280  0.69340  Biso   1.000  H
  C15      1.0000 0.45710  0.63800  0.63500  Biso   1.000  C
  C16      1.0000 0.47590  0.56280  0.61380  Biso   1.000  C
  H8       1.0000 0.46810  0.50090  0.61230  Biso   1.000  H
  C17      1.0000 0.50650  0.58010  0.59470  Biso   1.000  C
  H9       1.0000 0.51910  0.52980  0.58050  Biso   1.000  H
  C18      1.0000 0.51830  0.67260  0.59690  Biso   1.000  C
  C19      1.0000 0.49940  0.74780  0.61810  Biso   1.000  C
  H10      1.0000 0.50730  0.80970  0.61960  Biso   1.000  H
  C20      1.0000 0.46890  0.73050  0.63720  Biso   1.000  C
  H11      1.0000 0.45620  0.78080  0.65140  Biso   1.000  H
  C21      1.0000 0.64410  0.74900  0.49950  Biso   1.000  C
  C22      1.0000 0.55246  0.69210  0.57880  Biso   1.000  C
  C23      1.0000 0.57340  0.61760  0.57020  Biso   1.000  C
  H12      1.0000 0.56730  0.55530  0.58000  Biso   1.000  H
  C24      1.0000 0.60329  0.63620  0.54690  Biso   1.000  C
  H13      1.0000 0.61730  0.58630  0.54110  Biso   1.000  H
  C25      1.0000 0.61231  0.72930  0.53220  Biso   1.000  C
  C26      1.0000 0.59140  0.80380  0.54080  Biso   1.000  C
  H14      1.0000 0.59740  0.86600  0.53100  Biso   1.000  H
  C27      1.0000 0.56150  0.78520  0.56410  Biso   1.000  C
  H15      1.0000 0.54750  0.83500  0.56990  Biso   1.000  H
  Eu1      1.0000 0.20411  0.29234  0.45204  Biso   1.000  Eu
  O1       1.0000 0.22275  0.43270  0.55080  Biso   1.000  O
  O2       1.0000 0.26449  0.34600  0.54860  Biso   1.000  O
  O3       1.0000 0.23786  0.66240  0.84010  Biso   1.000  O
  O4       1.0000 0.28390  0.73990  0.88100  Biso   1.000  O
  O5       1.0000 0.65360  0.83240  0.50580  Biso   1.000  O
  O6       1.0000 0.65950  0.68400  0.47470  Biso   1.000  O
  C28      1.0000 0.75280  0.92120  0.57710  Biso   1.000  C
  C29      1.0000 0.77240  0.99230  0.63580  Biso   1.000  C
  C30      1.0000 0.80470  0.00310  0.63030  Biso   1.000  C
  H16      1.0000 0.81350  0.96400  0.58850  Biso   1.000  H
  C31      1.0000 0.82430  0.07220  0.68700  Biso   1.000  C
  C32      1.0000 0.81130  0.12580  0.75150  Biso   1.000  C
  H17      1.0000 0.82420  0.17130  0.78950  Biso   1.000  H
  C33      1.0000 0.77980  0.11470  0.76230  Biso   1.000  C
  C34      1.0000 0.75960  0.05100  0.69960  Biso   1.000  C
  H18      1.0000 0.73760  0.04790  0.70050  Biso   1.000  H
  C35      1.0000 0.76550  0.17630  0.83720  Biso   1.000  C
  C36      1.0000 0.85880  0.08690  0.67640  Biso   1.000  C
  C37      1.0000 0.87830  0.01450  0.65550  Biso   1.000  C
  H19      1.0000 0.87000  0.95300  0.65150  Biso   1.000  H
  C38      1.0000 0.90980  0.02720  0.63990  Biso   1.000  C
  H20      1.0000 0.92170  0.97550  0.62540  Biso   1.000  H
  C39      1.0000 0.92310  0.11980  0.64640  Biso   1.000  C
  C40      1.0000 0.90340  0.19730  0.67130  Biso   1.000  C
  H21      1.0000 0.91210  0.25820  0.68000  Biso   1.000  H
  C41      1.0000 0.87150  0.18190  0.68230  Biso   1.000  C
  H22      1.0000 0.85860  0.23280  0.69340  Biso   1.000  H
  C42      1.0000 0.95710  0.13800  0.63500  Biso   1.000  C
  C43      1.0000 0.97590  0.06280  0.61380  Biso   1.000  C
  H23      1.0000 0.96810  0.00090  0.61230  Biso   1.000  H
  C44      1.0000 0.00650  0.08010  0.59470  Biso   1.000  C
  H24      1.0000 0.01910  0.02980  0.58050  Biso   1.000  H
  C45      1.0000 0.01830  0.17260  0.59690  Biso   1.000  C
  C46      1.0000 0.99940  0.24780  0.61810  Biso   1.000  C
  H25      1.0000 0.00730  0.30970  0.61960  Biso   1.000  H
  C47      1.0000 0.96890  0.23050  0.63720  Biso   1.000  C
  H26      1.0000 0.95620  0.28080  0.65140  Biso   1.000  H
  C48      1.0000 0.14410  0.24900  0.49950  Biso   1.000  C
  C49      1.0000 0.05246  0.19210  0.57880  Biso   1.000  C
  C50      1.0000 0.07340  0.11760  0.57020  Biso   1.000  C
  H27      1.0000 0.06730  0.05530  0.58000  Biso   1.000  H
  C51      1.0000 0.10329  0.13620  0.54690  Biso   1.000  C
  H28      1.0000 0.11730  0.08630  0.54110  Biso   1.000  H
  C52      1.0000 0.11231  0.22930  0.53220  Biso   1.000  C
  C53      1.0000 0.09140  0.30380  0.54080  Biso   1.000  C
  H29      1.0000 0.09740  0.36600  0.53100  Biso   1.000  H
  C54      1.0000 0.06150  0.28520  0.56410  Biso   1.000  C
  H30      1.0000 0.04750  0.33500  0.56990  Biso   1.000  H
  Eu2      1.0000 0.70411  0.79234  0.45204  Biso   1.000  Eu
  O7       1.0000 0.72275  0.93270  0.55080  Biso   1.000  O
  O8       1.0000 0.76449  0.84600  0.54860  Biso   1.000  O
  O9       1.0000 0.73786  0.16240  0.84010  Biso   1.000  O
  O10      1.0000 0.78390  0.23990  0.88100  Biso   1.000  O
  O11      1.0000 0.15360  0.33240  0.50580  Biso   1.000  O
  O12      1.0000 0.15950  0.18400  0.47470  Biso   1.000  O
  C55      1.0000 0.74720  0.42120  0.92290  Biso   1.000  C
  C56      1.0000 0.72760  0.49230  0.86420  Biso   1.000  C
  C57      1.0000 0.69530  0.50310  0.86970  Biso   1.000  C
  H31      1.0000 0.68650  0.46400  0.91150  Biso   1.000  H
  C58      1.0000 0.67570  0.57220  0.81300  Biso   1.000  C
  C59      1.0000 0.68870  0.62580  0.74850  Biso   1.000  C
  H32      1.0000 0.67580  0.67130  0.71050  Biso   1.000  H
  C60      1.0000 0.72020  0.61470  0.73770  Biso   1.000  C
  C61      1.0000 0.74040  0.55100  0.80040  Biso   1.000  C
  H33      1.0000 0.76240  0.54790  0.79950  Biso   1.000  H
  C62      1.0000 0.73450  0.67630  0.66280  Biso   1.000  C
  C63      1.0000 0.64120  0.58690  0.82360  Biso   1.000  C
  C64      1.0000 0.62170  0.51450  0.84450  Biso   1.000  C
  H34      1.0000 0.63000  0.45300  0.84850  Biso   1.000  H
  C65      1.0000 0.59020  0.52720  0.86010  Biso   1.000  C
  H35      1.0000 0.57830  0.47550  0.87460  Biso   1.000  H
  C66      1.0000 0.57690  0.61980  0.85360  Biso   1.000  C
  C67      1.0000 0.59660  0.69730  0.82870  Biso   1.000  C
  H36      1.0000 0.58790  0.75820  0.82000  Biso   1.000  H
  C68      1.0000 0.62850  0.68190  0.81770  Biso   1.000  C
  H37      1.0000 0.64140  0.73280  0.80660  Biso   1.000  H
  C69      1.0000 0.54290  0.63800  0.86500  Biso   1.000  C
  C70      1.0000 0.52410  0.56280  0.88620  Biso   1.000  C
  H38      1.0000 0.53190  0.50090  0.88770  Biso   1.000  H
  C71      1.0000 0.49350  0.58010  0.90530  Biso   1.000  C
  H39      1.0000 0.48090  0.52980  0.91950  Biso   1.000  H
  C72      1.0000 0.48170  0.67260  0.90310  Biso   1.000  C
  C73      1.0000 0.50060  0.74780  0.88190  Biso   1.000  C
  H40      1.0000 0.49270  0.80970  0.88040  Biso   1.000  H
  C74      1.0000 0.53110  0.73050  0.86280  Biso   1.000  C
  H41      1.0000 0.54380  0.78080  0.84860  Biso   1.000  H
  C75      1.0000 0.35590  0.74900  0.00050  Biso   1.000  C
  C76      1.0000 0.44754  0.69210  0.92120  Biso   1.000  C
  C77      1.0000 0.42660  0.61760  0.92980  Biso   1.000  C
  H42      1.0000 0.43270  0.55530  0.92000  Biso   1.000  H
  C78      1.0000 0.39671  0.63620  0.95310  Biso   1.000  C
  H43      1.0000 0.38270  0.58630  0.95890  Biso   1.000  H
  C79      1.0000 0.38769  0.72930  0.96780  Biso   1.000  C
  C80      1.0000 0.40860  0.80380  0.95920  Biso   1.000  C
  H44      1.0000 0.40260  0.86600  0.96900  Biso   1.000  H
  C81      1.0000 0.43850  0.78520  0.93590  Biso   1.000  C
  H45      1.0000 0.45250  0.83500  0.93010  Biso   1.000  H
  Eu3      1.0000 0.79589  0.29234  0.04796  Biso   1.000  Eu
  O13      1.0000 0.77725  0.43270  0.94920  Biso   1.000  O
  O14      1.0000 0.73551  0.34600  0.95140  Biso   1.000  O
  O15      1.0000 0.76214  0.66240  0.65990  Biso   1.000  O
  O16      1.0000 0.71610  0.73990  0.61900  Biso   1.000  O
  O17      1.0000 0.34640  0.83240  0.99420  Biso   1.000  O
  O18      1.0000 0.34050  0.68400  0.02530  Biso   1.000  O
  C82      1.0000 0.24720  0.92120  0.92290  Biso   1.000  C
  C83      1.0000 0.22760  0.99230  0.86420  Biso   1.000  C
  C84      1.0000 0.19530  0.00310  0.86970  Biso   1.000  C
  H46      1.0000 0.18650  0.96400  0.91150  Biso   1.000  H
  C85      1.0000 0.17570  0.07220  0.81300  Biso   1.000  C
  C86      1.0000 0.18870  0.12580  0.74850  Biso   1.000  C
  H47      1.0000 0.17580  0.17130  0.71050  Biso   1.000  H
  C87      1.0000 0.22020  0.11470  0.73770  Biso   1.000  C
  C88      1.0000 0.24040  0.05100  0.80040  Biso   1.000  C
  H48      1.0000 0.26240  0.04790  0.79950  Biso   1.000  H
  C89      1.0000 0.23450  0.17630  0.66280  Biso   1.000  C
  C90      1.0000 0.14120  0.08690  0.82360  Biso   1.000  C
  C91      1.0000 0.12170  0.01450  0.84450  Biso   1.000  C
  H49      1.0000 0.13000  0.95300  0.84850  Biso   1.000  H
  C92      1.0000 0.09020  0.02720  0.86010  Biso   1.000  C
  H50      1.0000 0.07830  0.97550  0.87460  Biso   1.000  H
  C93      1.0000 0.07690  0.11980  0.85360  Biso   1.000  C
  C94      1.0000 0.09660  0.19730  0.82870  Biso   1.000  C
  H51      1.0000 0.08790  0.25820  0.82000  Biso   1.000  H
  C95      1.0000 0.12850  0.18190  0.81770  Biso   1.000  C
  H52      1.0000 0.14140  0.23280  0.80660  Biso   1.000  H
  C96      1.0000 0.04290  0.13800  0.86500  Biso   1.000  C
  C97      1.0000 0.02410  0.06280  0.88620  Biso   1.000  C
  H53      1.0000 0.03190  0.00090  0.88770  Biso   1.000  H
  C98      1.0000 0.99350  0.08010  0.90530  Biso   1.000  C
  H54      1.0000 0.98090  0.02980  0.91950  Biso   1.000  H
  C99      1.0000 0.98170  0.17260  0.90310  Biso   1.000  C
  C100     1.0000 0.00060  0.24780  0.88190  Biso   1.000  C
  H55      1.0000 0.99270  0.30970  0.88040  Biso   1.000  H
  C101     1.0000 0.03110  0.23050  0.86280  Biso   1.000  C
  H56      1.0000 0.04380  0.28080  0.84860  Biso   1.000  H
  C102     1.0000 0.85590  0.24900  0.00050  Biso   1.000  C
  C103     1.0000 0.94754  0.19210  0.92120  Biso   1.000  C
  C104     1.0000 0.92660  0.11760  0.92980  Biso   1.000  C
  H57      1.0000 0.93270  0.05530  0.92000  Biso   1.000  H
  C105     1.0000 0.89671  0.13620  0.95310  Biso   1.000  C
  H58      1.0000 0.88270  0.08630  0.95890  Biso   1.000  H
  C106     1.0000 0.88769  0.22930  0.96780  Biso   1.000  C
  C107     1.0000 0.90860  0.30380  0.95920  Biso   1.000  C
  H59      1.0000 0.90260  0.36600  0.96900  Biso   1.000  H
  C108     1.0000 0.93850  0.28520  0.93590  Biso   1.000  C
  H60      1.0000 0.95250  0.33500  0.93010  Biso   1.000  H
  Eu4      1.0000 0.29589  0.79234  0.04796  Biso   1.000  Eu
  O19      1.0000 0.27725  0.93270  0.94920  Biso   1.000  O
  O20      1.0000 0.23551  0.84600  0.95140  Biso   1.000  O
  O21      1.0000 0.26214  0.16240  0.65990  Biso   1.000  O
  O22      1.0000 0.21610  0.23990  0.61900  Biso   1.000  O
  O23      1.0000 0.84640  0.33240  0.99420  Biso   1.000  O
  O24      1.0000 0.84050  0.18400  0.02530  Biso   1.000  O
  C109     1.0000 0.74720  0.57880  0.42290  Biso   1.000  C
  C110     1.0000 0.72760  0.50770  0.36420  Biso   1.000  C
  C111     1.0000 0.69530  0.49690  0.36970  Biso   1.000  C
  H61      1.0000 0.68650  0.53600  0.41150  Biso   1.000  H
  C112     1.0000 0.67570  0.42780  0.31300  Biso   1.000  C
  C113     1.0000 0.68870  0.37420  0.24850  Biso   1.000  C
  H62      1.0000 0.67580  0.32870  0.21050  Biso   1.000  H
  C114     1.0000 0.72020  0.38530  0.23770  Biso   1.000  C
  C115     1.0000 0.74040  0.44900  0.30040  Biso   1.000  C
  H63      1.0000 0.76240  0.45210  0.29950  Biso   1.000  H
  C116     1.0000 0.73450  0.32370  0.16280  Biso   1.000  C
  C117     1.0000 0.64120  0.41310  0.32360  Biso   1.000  C
  C118     1.0000 0.62170  0.48550  0.34450  Biso   1.000  C
  H64      1.0000 0.63000  0.54700  0.34850  Biso   1.000  H
  C119     1.0000 0.59020  0.47280  0.36010  Biso   1.000  C
  H65      1.0000 0.57830  0.52450  0.37460  Biso   1.000  H
  C120     1.0000 0.57690  0.38020  0.35360  Biso   1.000  C
  C121     1.0000 0.59660  0.30270  0.32870  Biso   1.000  C
  H66      1.0000 0.58790  0.24180  0.32000  Biso   1.000  H
  C122     1.0000 0.62850  0.31810  0.31770  Biso   1.000  C
  H67      1.0000 0.64140  0.26720  0.30660  Biso   1.000  H
  C123     1.0000 0.54290  0.36200  0.36500  Biso   1.000  C
  C124     1.0000 0.52410  0.43720  0.38620  Biso   1.000  C
  H68      1.0000 0.53190  0.49910  0.38770  Biso   1.000  H
  C125     1.0000 0.49350  0.41990  0.40530  Biso   1.000  C
  H69      1.0000 0.48090  0.47020  0.41950  Biso   1.000  H
  C126     1.0000 0.48170  0.32740  0.40310  Biso   1.000  C
  C127     1.0000 0.50060  0.25220  0.38190  Biso   1.000  C
  H70      1.0000 0.49270  0.19030  0.38040  Biso   1.000  H
  C128     1.0000 0.53110  0.26950  0.36280  Biso   1.000  C
  H71      1.0000 0.54380  0.21920  0.34860  Biso   1.000  H
  C129     1.0000 0.35590  0.25100  0.50050  Biso   1.000  C
  C130     1.0000 0.44754  0.30790  0.42120  Biso   1.000  C
  C131     1.0000 0.42660  0.38240  0.42980  Biso   1.000  C
  H72      1.0000 0.43270  0.44470  0.42000  Biso   1.000  H
  C132     1.0000 0.39671  0.36380  0.45310  Biso   1.000  C
  H73      1.0000 0.38270  0.41370  0.45890  Biso   1.000  H
  C133     1.0000 0.38769  0.27070  0.46780  Biso   1.000  C
  C134     1.0000 0.40860  0.19620  0.45920  Biso   1.000  C
  H74      1.0000 0.40260  0.13400  0.46900  Biso   1.000  H
  C135     1.0000 0.43850  0.21480  0.43590  Biso   1.000  C
  H75      1.0000 0.45250  0.16500  0.43010  Biso   1.000  H
  Eu5      1.0000 0.79589  0.70766  0.54796  Biso   1.000  Eu
  O25      1.0000 0.77725  0.56730  0.44920  Biso   1.000  O
  O26      1.0000 0.73551  0.65400  0.45140  Biso   1.000  O
  O27      1.0000 0.76214  0.33760  0.15990  Biso   1.000  O
  O28      1.0000 0.71610  0.26010  0.11900  Biso   1.000  O
  O29      1.0000 0.34640  0.16760  0.49420  Biso   1.000  O
  O30      1.0000 0.34050  0.31600  0.52530  Biso   1.000  O
  C136     1.0000 0.24720  0.07880  0.42290  Biso   1.000  C
  C137     1.0000 0.22760  0.00770  0.36420  Biso   1.000  C
  C138     1.0000 0.19530  0.99690  0.36970  Biso   1.000  C
  H76      1.0000 0.18650  0.03600  0.41150  Biso   1.000  H
  C139     1.0000 0.17570  0.92780  0.31300  Biso   1.000  C
  C140     1.0000 0.18870  0.87420  0.24850  Biso   1.000  C
  H77      1.0000 0.17580  0.82870  0.21050  Biso   1.000  H
  C141     1.0000 0.22020  0.88530  0.23770  Biso   1.000  C
  C142     1.0000 0.24040  0.94900  0.30040  Biso   1.000  C
  H78      1.0000 0.26240  0.95210  0.29950  Biso   1.000  H
  C143     1.0000 0.23450  0.82370  0.16280  Biso   1.000  C
  C144     1.0000 0.14120  0.91310  0.32360  Biso   1.000  C
  C145     1.0000 0.12170  0.98550  0.34450  Biso   1.000  C
  H79      1.0000 0.13000  0.04700  0.34850  Biso   1.000  H
  C146     1.0000 0.09020  0.97280  0.36010  Biso   1.000  C
  H80      1.0000 0.07830  0.02450  0.37460  Biso   1.000  H
  C147     1.0000 0.07690  0.88020  0.35360  Biso   1.000  C
  C148     1.0000 0.09660  0.80270  0.32870  Biso   1.000  C
  H81      1.0000 0.08790  0.74180  0.32000  Biso   1.000  H
  C149     1.0000 0.12850  0.81810  0.31770  Biso   1.000  C
  H82      1.0000 0.14140  0.76720  0.30660  Biso   1.000  H
  C150     1.0000 0.04290  0.86200  0.36500  Biso   1.000  C
  C151     1.0000 0.02410  0.93720  0.38620  Biso   1.000  C
  H83      1.0000 0.03190  0.99910  0.38770  Biso   1.000  H
  C152     1.0000 0.99350  0.91990  0.40530  Biso   1.000  C
  H84      1.0000 0.98090  0.97020  0.41950  Biso   1.000  H
  C153     1.0000 0.98170  0.82740  0.40310  Biso   1.000  C
  C154     1.0000 0.00060  0.75220  0.38190  Biso   1.000  C
  H85      1.0000 0.99270  0.69030  0.38040  Biso   1.000  H
  C155     1.0000 0.03110  0.76950  0.36280  Biso   1.000  C
  H86      1.0000 0.04380  0.71920  0.34860  Biso   1.000  H
  C156     1.0000 0.85590  0.75100  0.50050  Biso   1.000  C
  C157     1.0000 0.94754  0.80790  0.42120  Biso   1.000  C
  C158     1.0000 0.92660  0.88240  0.42980  Biso   1.000  C
  H87      1.0000 0.93270  0.94470  0.42000  Biso   1.000  H
  C159     1.0000 0.89671  0.86380  0.45310  Biso   1.000  C
  H88      1.0000 0.88270  0.91370  0.45890  Biso   1.000  H
  C160     1.0000 0.88769  0.77070  0.46780  Biso   1.000  C
  C161     1.0000 0.90860  0.69620  0.45920  Biso   1.000  C
  H89      1.0000 0.90260  0.63400  0.46900  Biso   1.000  H
  C162     1.0000 0.93850  0.71480  0.43590  Biso   1.000  C
  H90      1.0000 0.95250  0.66500  0.43010  Biso   1.000  H
  Eu6      1.0000 0.29589  0.20766  0.54796  Biso   1.000  Eu
  O31      1.0000 0.27725  0.06730  0.44920  Biso   1.000  O
  O32      1.0000 0.23551  0.15400  0.45140  Biso   1.000  O
  O33      1.0000 0.26214  0.83760  0.15990  Biso   1.000  O
  O34      1.0000 0.21610  0.76010  0.11900  Biso   1.000  O
  O35      1.0000 0.84640  0.66760  0.49420  Biso   1.000  O
  O36      1.0000 0.84050  0.81600  0.52530  Biso   1.000  O
  C163     1.0000 0.25280  0.57880  0.07710  Biso   1.000  C
  C164     1.0000 0.27240  0.50770  0.13580  Biso   1.000  C
  C165     1.0000 0.30470  0.49690  0.13030  Biso   1.000  C
  H91      1.0000 0.31350  0.53600  0.08850  Biso   1.000  H
  C166     1.0000 0.32430  0.42780  0.18700  Biso   1.000  C
  C167     1.0000 0.31130  0.37420  0.25150  Biso   1.000  C
  H92      1.0000 0.32420  0.32870  0.28950  Biso   1.000  H
  C168     1.0000 0.27980  0.38530  0.26230  Biso   1.000  C
  C169     1.0000 0.25960  0.44900  0.19960  Biso   1.000  C
  H93      1.0000 0.23760  0.45210  0.20050  Biso   1.000  H
  C170     1.0000 0.26550  0.32370  0.33720  Biso   1.000  C
  C171     1.0000 0.35880  0.41310  0.17640  Biso   1.000  C
  C172     1.0000 0.37830  0.48550  0.15550  Biso   1.000  C
  H94      1.0000 0.37000  0.54700  0.15150  Biso   1.000  H
  C173     1.0000 0.40980  0.47280  0.13990  Biso   1.000  C
  H95      1.0000 0.42170  0.52450  0.12540  Biso   1.000  H
  C174     1.0000 0.42310  0.38020  0.14640  Biso   1.000  C
  C175     1.0000 0.40340  0.30270  0.17130  Biso   1.000  C
  H96      1.0000 0.41210  0.24180  0.18000  Biso   1.000  H
  C176     1.0000 0.37150  0.31810  0.18230  Biso   1.000  C
  H97      1.0000 0.35860  0.26720  0.19340  Biso   1.000  H
  C177     1.0000 0.45710  0.36200  0.13500  Biso   1.000  C
  C178     1.0000 0.47590  0.43720  0.11380  Biso   1.000  C
  H98      1.0000 0.46810  0.49910  0.11230  Biso   1.000  H
  C179     1.0000 0.50650  0.41990  0.09470  Biso   1.000  C
  H99      1.0000 0.51910  0.47020  0.08050  Biso   1.000  H
  C180     1.0000 0.51830  0.32740  0.09690  Biso   1.000  C
  C181     1.0000 0.49940  0.25220  0.11810  Biso   1.000  C
  H100     1.0000 0.50730  0.19030  0.11960  Biso   1.000  H
  C182     1.0000 0.46890  0.26950  0.13720  Biso   1.000  C
  H101     1.0000 0.45620  0.21920  0.15140  Biso   1.000  H
  C183     1.0000 0.64410  0.25100  0.99950  Biso   1.000  C
  C184     1.0000 0.55246  0.30790  0.07880  Biso   1.000  C
  C185     1.0000 0.57340  0.38240  0.07020  Biso   1.000  C
  H102     1.0000 0.56730  0.44470  0.08000  Biso   1.000  H
  C186     1.0000 0.60329  0.36380  0.04690  Biso   1.000  C
  H103     1.0000 0.61730  0.41370  0.04110  Biso   1.000  H
  C187     1.0000 0.61231  0.27070  0.03220  Biso   1.000  C
  C188     1.0000 0.59140  0.19620  0.04080  Biso   1.000  C
  H104     1.0000 0.59740  0.13400  0.03100  Biso   1.000  H
  C189     1.0000 0.56150  0.21480  0.06410  Biso   1.000  C
  H105     1.0000 0.54750  0.16500  0.06990  Biso   1.000  H
  Eu7      1.0000 0.20411  0.70766  0.95204  Biso   1.000  Eu
  O37      1.0000 0.22275  0.56730  0.05080  Biso   1.000  O
  O38      1.0000 0.26449  0.65400  0.04860  Biso   1.000  O
  O39      1.0000 0.23786  0.33760  0.34010  Biso   1.000  O
  O40      1.0000 0.28390  0.26010  0.38100  Biso   1.000  O
  O41      1.0000 0.65360  0.16760  0.00580  Biso   1.000  O
  O42      1.0000 0.65950  0.31600  0.97470  Biso   1.000  O
  C190     1.0000 0.75280  0.07880  0.07710  Biso   1.000  C
  C191     1.0000 0.77240  0.00770  0.13580  Biso   1.000  C
  C192     1.0000 0.80470  0.99690  0.13030  Biso   1.000  C
  H106     1.0000 0.81350  0.03600  0.08850  Biso   1.000  H
  C193     1.0000 0.82430  0.92780  0.18700  Biso   1.000  C
  C194     1.0000 0.81130  0.87420  0.25150  Biso   1.000  C
  H107     1.0000 0.82420  0.82870  0.28950  Biso   1.000  H
  C195     1.0000 0.77980  0.88530  0.26230  Biso   1.000  C
  C196     1.0000 0.75960  0.94900  0.19960  Biso   1.000  C
  H108     1.0000 0.73760  0.95210  0.20050  Biso   1.000  H
  C197     1.0000 0.76550  0.82370  0.33720  Biso   1.000  C
  C198     1.0000 0.85880  0.91310  0.17640  Biso   1.000  C
  C199     1.0000 0.87830  0.98550  0.15550  Biso   1.000  C
  H109     1.0000 0.87000  0.04700  0.15150  Biso   1.000  H
  C200     1.0000 0.90980  0.97280  0.13990  Biso   1.000  C
  H110     1.0000 0.92170  0.02450  0.12540  Biso   1.000  H
  C201     1.0000 0.92310  0.88020  0.14640  Biso   1.000  C
  C202     1.0000 0.90340  0.80270  0.17130  Biso   1.000  C
  H111     1.0000 0.91210  0.74180  0.18000  Biso   1.000  H
  C203     1.0000 0.87150  0.81810  0.18230  Biso   1.000  C
  H112     1.0000 0.85860  0.76720  0.19340  Biso   1.000  H
  C204     1.0000 0.95710  0.86200  0.13500  Biso   1.000  C
  C205     1.0000 0.97590  0.93720  0.11380  Biso   1.000  C
  H113     1.0000 0.96810  0.99910  0.11230  Biso   1.000  H
  C206     1.0000 0.00650  0.91990  0.09470  Biso   1.000  C
  H114     1.0000 0.01910  0.97020  0.08050  Biso   1.000  H
  C207     1.0000 0.01830  0.82740  0.09690  Biso   1.000  C
  C208     1.0000 0.99940  0.75220  0.11810  Biso   1.000  C
  H115     1.0000 0.00730  0.69030  0.11960  Biso   1.000  H
  C209     1.0000 0.96890  0.76950  0.13720  Biso   1.000  C
  H116     1.0000 0.95620  0.71920  0.15140  Biso   1.000  H
  C210     1.0000 0.14410  0.75100  0.99950  Biso   1.000  C
  C211     1.0000 0.05246  0.80790  0.07880  Biso   1.000  C
  C212     1.0000 0.07340  0.88240  0.07020  Biso   1.000  C
  H117     1.0000 0.06730  0.94470  0.08000  Biso   1.000  H
  C213     1.0000 0.10329  0.86380  0.04690  Biso   1.000  C
  H118     1.0000 0.11730  0.91370  0.04110  Biso   1.000  H
  C214     1.0000 0.11231  0.77070  0.03220  Biso   1.000  C
  C215     1.0000 0.09140  0.69620  0.04080  Biso   1.000  C
  H119     1.0000 0.09740  0.63400  0.03100  Biso   1.000  H
  C216     1.0000 0.06150  0.71480  0.06410  Biso   1.000  C
  H120     1.0000 0.04750  0.66500  0.06990  Biso   1.000  H
  Eu8      1.0000 0.70411  0.20766  0.95204  Biso   1.000  Eu
  O43      1.0000 0.72275  0.06730  0.05080  Biso   1.000  O
  O44      1.0000 0.76449  0.15400  0.04860  Biso   1.000  O
  O45      1.0000 0.73786  0.83760  0.34010  Biso   1.000  O
  O46      1.0000 0.78390  0.76010  0.38100  Biso   1.000  O
  O47      1.0000 0.15360  0.66760  0.00580  Biso   1.000  O
  O48      1.0000 0.15950  0.81600  0.97470  Biso   1.000  O
