data_image0
_cell_length_a       42.145
_cell_length_b       14.296
_cell_length_c       13.771
_cell_angle_alpha    90
_cell_angle_beta     101.683
_cell_angle_gamma    90

_symmetry_space_group_name_H-M    "P 1"
_symmetry_int_tables_number       1

loop_
  _symmetry_equiv_pos_as_xyz
  'x, y, z'

loop_
  _atom_site_label
  _atom_site_occupancy
  _atom_site_fract_x
  _atom_site_fract_y
  _atom_site_fract_z
  _atom_site_thermal_displace_type
  _atom_site_B_iso_or_equiv
  _atom_site_type_symbol
  C1       1.0000 0.25235  0.08570  0.07990  Biso   1.000  C
  C2       1.0000 0.27319  0.01220  0.14140  Biso   1.000  C
  C3       1.0000 0.30510  0.00100  0.13260  Biso   1.000  C
  H1       1.0000 0.31360  0.03930  0.08960  Biso   1.000  H
  C4       1.0000 0.32470  0.93300  0.18760  Biso   1.000  C
  C5       1.0000 0.31082  0.87880  0.25250  Biso   1.000  C
  H2       1.0000 0.32340  0.83340  0.29050  Biso   1.000  H
  C6       1.0000 0.27907  0.89000  0.26240  Biso   1.000  C
  C7       1.0000 0.25996  0.95510  0.20400  Biso   1.000  C
  H3       1.0000 0.23820  0.96060  0.20670  Biso   1.000  H
  C8       1.0000 0.26584  0.82990  0.33660  Biso   1.000  C
  C9       1.0000 0.35836  0.91710  0.17600  Biso   1.000  C
  C10      1.0000 0.37833  0.98750  0.15370  Biso   1.000  C
  H4       1.0000 0.37030  0.04830  0.14690  Biso   1.000  H
  C11      1.0000 0.40938  0.97150  0.14130  Biso   1.000  C
  H5       1.0000 0.42200  0.02160  0.12880  Biso   1.000  H
  C12      1.0000 0.42207  0.88240  0.14690  Biso   1.000  C
  C13      1.0000 0.40292  0.80980  0.16960  Biso   1.000  C
  H6       1.0000 0.41090  0.74900  0.17440  Biso   1.000  H
  C14      1.0000 0.37195  0.82720  0.18500  Biso   1.000  C
  H7       1.0000 0.35980  0.77770  0.20180  Biso   1.000  H
  C15      1.0000 0.45611  0.86160  0.13260  Biso   1.000  C
  C16      1.0000 0.47662  0.93560  0.12270  Biso   1.000  C
  H8       1.0000 0.46970  0.99690  0.12740  Biso   1.000  H
  C17      1.0000 0.50747  0.91800  0.10560  Biso   1.000  C
  H9       1.0000 0.52120  0.96750  0.09900  Biso   1.000  H
  C18      1.0000 0.51781  0.82640  0.09860  Biso   1.000  C
  C19      1.0000 0.49730  0.75240  0.10850  Biso   1.000  C
  H10      1.0000 0.50420  0.69110  0.10380  Biso   1.000  H
  C20      1.0000 0.46645  0.77000  0.12550  Biso   1.000  C
  H11      1.0000 0.45270  0.72050  0.13220  Biso   1.000  H
  C21      1.0000 0.55155  0.80930  0.07780  Biso   1.000  C
  C22      1.0000 0.57349  0.88050  0.07320  Biso   1.000  C
  H12      1.0000 0.56820  0.94160  0.08670  Biso   1.000  H
  C23      1.0000 0.60308  0.86220  0.04890  Biso   1.000  C
  H13      1.0000 0.61700  0.91160  0.04360  Biso   1.000  H
  C24      1.0000 0.61225  0.77260  0.03240  Biso   1.000  C
  C25      1.0000 0.59122  0.70030  0.04390  Biso   1.000  C
  H14      1.0000 0.59770  0.63870  0.03830  Biso   1.000  H
  C26      1.0000 0.56088  0.71790  0.06350  Biso   1.000  C
  H15      1.0000 0.54670  0.66870  0.06720  Biso   1.000  H
  C27      1.0000 0.64392  0.75360  0.00320  Biso   1.000  C
  O1       1.0000 0.22238  0.07370  0.05630  Biso   1.000  O
  O2       1.0000 0.26545  0.15670  0.05170  Biso   1.000  O
  O3       1.0000 0.23724  0.84510  0.34570  Biso   1.000  O
  O4       1.0000 0.28434  0.76940  0.38320  Biso   1.000  O
  O5       1.0000 0.65464  0.67120  0.01020  Biso   1.000  O
  O6       1.0000 0.65931  0.81740  0.97310  Biso   1.000  O
  Tb1      1.0000 0.20398  0.20869  0.95456  Biso   1.000  Tb
  C28      1.0000 0.75235  0.58570  0.07990  Biso   1.000  C
  C29      1.0000 0.77319  0.51220  0.14140  Biso   1.000  C
  C30      1.0000 0.80510  0.50100  0.13260  Biso   1.000  C
  H16      1.0000 0.81360  0.53930  0.08960  Biso   1.000  H
  C31      1.0000 0.82470  0.43300  0.18760  Biso   1.000  C
  C32      1.0000 0.81082  0.37880  0.25250  Biso   1.000  C
  H17      1.0000 0.82340  0.33340  0.29050  Biso   1.000  H
  C33      1.0000 0.77907  0.39000  0.26240  Biso   1.000  C
  C34      1.0000 0.75996  0.45510  0.20400  Biso   1.000  C
  H18      1.0000 0.73820  0.46060  0.20670  Biso   1.000  H
  C35      1.0000 0.76584  0.32990  0.33660  Biso   1.000  C
  C36      1.0000 0.85836  0.41710  0.17600  Biso   1.000  C
  C37      1.0000 0.87833  0.48750  0.15370  Biso   1.000  C
  H19      1.0000 0.87030  0.54830  0.14690  Biso   1.000  H
  C38      1.0000 0.90938  0.47150  0.14130  Biso   1.000  C
  H20      1.0000 0.92200  0.52160  0.12880  Biso   1.000  H
  C39      1.0000 0.92207  0.38240  0.14690  Biso   1.000  C
  C40      1.0000 0.90292  0.30980  0.16960  Biso   1.000  C
  H21      1.0000 0.91090  0.24900  0.17440  Biso   1.000  H
  C41      1.0000 0.87195  0.32720  0.18500  Biso   1.000  C
  H22      1.0000 0.85980  0.27770  0.20180  Biso   1.000  H
  C42      1.0000 0.95611  0.36160  0.13260  Biso   1.000  C
  C43      1.0000 0.97662  0.43560  0.12270  Biso   1.000  C
  H23      1.0000 0.96970  0.49690  0.12740  Biso   1.000  H
  C44      1.0000 0.00747  0.41800  0.10560  Biso   1.000  C
  H24      1.0000 0.02120  0.46750  0.09900  Biso   1.000  H
  C45      1.0000 0.01781  0.32640  0.09860  Biso   1.000  C
  C46      1.0000 0.99730  0.25240  0.10850  Biso   1.000  C
  H25      1.0000 0.00420  0.19110  0.10380  Biso   1.000  H
  C47      1.0000 0.96645  0.27000  0.12550  Biso   1.000  C
  H26      1.0000 0.95270  0.22050  0.13220  Biso   1.000  H
  C48      1.0000 0.05155  0.30930  0.07780  Biso   1.000  C
  C49      1.0000 0.07349  0.38050  0.07320  Biso   1.000  C
  H27      1.0000 0.06820  0.44160  0.08670  Biso   1.000  H
  C50      1.0000 0.10308  0.36220  0.04890  Biso   1.000  C
  H28      1.0000 0.11700  0.41160  0.04360  Biso   1.000  H
  C51      1.0000 0.11225  0.27260  0.03240  Biso   1.000  C
  C52      1.0000 0.09122  0.20030  0.04390  Biso   1.000  C
  H29      1.0000 0.09770  0.13870  0.03830  Biso   1.000  H
  C53      1.0000 0.06088  0.21790  0.06350  Biso   1.000  C
  H30      1.0000 0.04670  0.16870  0.06720  Biso   1.000  H
  C54      1.0000 0.14392  0.25360  0.00320  Biso   1.000  C
  O7       1.0000 0.72238  0.57370  0.05630  Biso   1.000  O
  O8       1.0000 0.76545  0.65670  0.05170  Biso   1.000  O
  O9       1.0000 0.73724  0.34510  0.34570  Biso   1.000  O
  O10      1.0000 0.78434  0.26940  0.38320  Biso   1.000  O
  O11      1.0000 0.15464  0.17120  0.01020  Biso   1.000  O
  O12      1.0000 0.15931  0.31740  0.97310  Biso   1.000  O
  Tb2      1.0000 0.70398  0.70869  0.95456  Biso   1.000  Tb
  C55      1.0000 0.74765  0.08570  0.42010  Biso   1.000  C
  C56      1.0000 0.72681  0.01220  0.35860  Biso   1.000  C
  C57      1.0000 0.69490  0.00100  0.36740  Biso   1.000  C
  H31      1.0000 0.68640  0.03930  0.41040  Biso   1.000  H
  C58      1.0000 0.67530  0.93300  0.31240  Biso   1.000  C
  C59      1.0000 0.68918  0.87880  0.24750  Biso   1.000  C
  H32      1.0000 0.67660  0.83340  0.20950  Biso   1.000  H
  C60      1.0000 0.72093  0.89000  0.23760  Biso   1.000  C
  C61      1.0000 0.74004  0.95510  0.29600  Biso   1.000  C
  H33      1.0000 0.76180  0.96060  0.29330  Biso   1.000  H
  C62      1.0000 0.73416  0.82990  0.16340  Biso   1.000  C
  C63      1.0000 0.64164  0.91710  0.32400  Biso   1.000  C
  C64      1.0000 0.62167  0.98750  0.34630  Biso   1.000  C
  H34      1.0000 0.62970  0.04830  0.35310  Biso   1.000  H
  C65      1.0000 0.59062  0.97150  0.35870  Biso   1.000  C
  H35      1.0000 0.57800  0.02160  0.37120  Biso   1.000  H
  C66      1.0000 0.57793  0.88240  0.35310  Biso   1.000  C
  C67      1.0000 0.59708  0.80980  0.33040  Biso   1.000  C
  H36      1.0000 0.58910  0.74900  0.32560  Biso   1.000  H
  C68      1.0000 0.62805  0.82720  0.31500  Biso   1.000  C
  H37      1.0000 0.64020  0.77770  0.29820  Biso   1.000  H
  C69      1.0000 0.54389  0.86160  0.36740  Biso   1.000  C
  C70      1.0000 0.52338  0.93560  0.37730  Biso   1.000  C
  H38      1.0000 0.53030  0.99690  0.37260  Biso   1.000  H
  C71      1.0000 0.49253  0.91800  0.39440  Biso   1.000  C
  H39      1.0000 0.47880  0.96750  0.40100  Biso   1.000  H
  C72      1.0000 0.48219  0.82640  0.40140  Biso   1.000  C
  C73      1.0000 0.50270  0.75240  0.39150  Biso   1.000  C
  H40      1.0000 0.49580  0.69110  0.39620  Biso   1.000  H
  C74      1.0000 0.53355  0.77000  0.37450  Biso   1.000  C
  H41      1.0000 0.54730  0.72050  0.36780  Biso   1.000  H
  C75      1.0000 0.44845  0.80930  0.42220  Biso   1.000  C
  C76      1.0000 0.42651  0.88050  0.42680  Biso   1.000  C
  H42      1.0000 0.43180  0.94160  0.41330  Biso   1.000  H
  C77      1.0000 0.39692  0.86220  0.45110  Biso   1.000  C
  H43      1.0000 0.38300  0.91160  0.45640  Biso   1.000  H
  C78      1.0000 0.38775  0.77260  0.46760  Biso   1.000  C
  C79      1.0000 0.40878  0.70030  0.45610  Biso   1.000  C
  H44      1.0000 0.40230  0.63870  0.46170  Biso   1.000  H
  C80      1.0000 0.43912  0.71790  0.43650  Biso   1.000  C
  H45      1.0000 0.45330  0.66870  0.43280  Biso   1.000  H
  C81      1.0000 0.35608  0.75360  0.49680  Biso   1.000  C
  O13      1.0000 0.77762  0.07370  0.44370  Biso   1.000  O
  O14      1.0000 0.73455  0.15670  0.44830  Biso   1.000  O
  O15      1.0000 0.76276  0.84510  0.15430  Biso   1.000  O
  O16      1.0000 0.71566  0.76940  0.11680  Biso   1.000  O
  O17      1.0000 0.34536  0.67120  0.48980  Biso   1.000  O
  O18      1.0000 0.34069  0.81740  0.52690  Biso   1.000  O
  Tb3      1.0000 0.79602  0.20869  0.54544  Biso   1.000  Tb
  C82      1.0000 0.24765  0.58570  0.42010  Biso   1.000  C
  C83      1.0000 0.22681  0.51220  0.35860  Biso   1.000  C
  C84      1.0000 0.19490  0.50100  0.36740  Biso   1.000  C
  H46      1.0000 0.18640  0.53930  0.41040  Biso   1.000  H
  C85      1.0000 0.17530  0.43300  0.31240  Biso   1.000  C
  C86      1.0000 0.18918  0.37880  0.24750  Biso   1.000  C
  H47      1.0000 0.17660  0.33340  0.20950  Biso   1.000  H
  C87      1.0000 0.22093  0.39000  0.23760  Biso   1.000  C
  C88      1.0000 0.24004  0.45510  0.29600  Biso   1.000  C
  H48      1.0000 0.26180  0.46060  0.29330  Biso   1.000  H
  C89      1.0000 0.23416  0.32990  0.16340  Biso   1.000  C
  C90      1.0000 0.14164  0.41710  0.32400  Biso   1.000  C
  C91      1.0000 0.12167  0.48750  0.34630  Biso   1.000  C
  H49      1.0000 0.12970  0.54830  0.35310  Biso   1.000  H
  C92      1.0000 0.09062  0.47150  0.35870  Biso   1.000  C
  H50      1.0000 0.07800  0.52160  0.37120  Biso   1.000  H
  C93      1.0000 0.07793  0.38240  0.35310  Biso   1.000  C
  C94      1.0000 0.09708  0.30980  0.33040  Biso   1.000  C
  H51      1.0000 0.08910  0.24900  0.32560  Biso   1.000  H
  C95      1.0000 0.12805  0.32720  0.31500  Biso   1.000  C
  H52      1.0000 0.14020  0.27770  0.29820  Biso   1.000  H
  C96      1.0000 0.04389  0.36160  0.36740  Biso   1.000  C
  C97      1.0000 0.02338  0.43560  0.37730  Biso   1.000  C
  H53      1.0000 0.03030  0.49690  0.37260  Biso   1.000  H
  C98      1.0000 0.99253  0.41800  0.39440  Biso   1.000  C
  H54      1.0000 0.97880  0.46750  0.40100  Biso   1.000  H
  C99      1.0000 0.98219  0.32640  0.40140  Biso   1.000  C
  C100     1.0000 0.00270  0.25240  0.39150  Biso   1.000  C
  H55      1.0000 0.99580  0.19110  0.39620  Biso   1.000  H
  C101     1.0000 0.03355  0.27000  0.37450  Biso   1.000  C
  H56      1.0000 0.04730  0.22050  0.36780  Biso   1.000  H
  C102     1.0000 0.94845  0.30930  0.42220  Biso   1.000  C
  C103     1.0000 0.92651  0.38050  0.42680  Biso   1.000  C
  H57      1.0000 0.93180  0.44160  0.41330  Biso   1.000  H
  C104     1.0000 0.89692  0.36220  0.45110  Biso   1.000  C
  H58      1.0000 0.88300  0.41160  0.45640  Biso   1.000  H
  C105     1.0000 0.88775  0.27260  0.46760  Biso   1.000  C
  C106     1.0000 0.90878  0.20030  0.45610  Biso   1.000  C
  H59      1.0000 0.90230  0.13870  0.46170  Biso   1.000  H
  C107     1.0000 0.93912  0.21790  0.43650  Biso   1.000  C
  H60      1.0000 0.95330  0.16870  0.43280  Biso   1.000  H
  C108     1.0000 0.85608  0.25360  0.49680  Biso   1.000  C
  O19      1.0000 0.27762  0.57370  0.44370  Biso   1.000  O
  O20      1.0000 0.23455  0.65670  0.44830  Biso   1.000  O
  O21      1.0000 0.26276  0.34510  0.15430  Biso   1.000  O
  O22      1.0000 0.21566  0.26940  0.11680  Biso   1.000  O
  O23      1.0000 0.84536  0.17120  0.48980  Biso   1.000  O
  O24      1.0000 0.84069  0.31740  0.52690  Biso   1.000  O
  Tb4      1.0000 0.29602  0.70869  0.54544  Biso   1.000  Tb
  C109     1.0000 0.74765  0.91430  0.92010  Biso   1.000  C
  C110     1.0000 0.72681  0.98780  0.85860  Biso   1.000  C
  C111     1.0000 0.69490  0.99900  0.86740  Biso   1.000  C
  H61      1.0000 0.68640  0.96070  0.91040  Biso   1.000  H
  C112     1.0000 0.67530  0.06700  0.81240  Biso   1.000  C
  C113     1.0000 0.68918  0.12120  0.74750  Biso   1.000  C
  H62      1.0000 0.67660  0.16660  0.70950  Biso   1.000  H
  C114     1.0000 0.72093  0.11000  0.73760  Biso   1.000  C
  C115     1.0000 0.74004  0.04490  0.79600  Biso   1.000  C
  H63      1.0000 0.76180  0.03940  0.79330  Biso   1.000  H
  C116     1.0000 0.73416  0.17010  0.66340  Biso   1.000  C
  C117     1.0000 0.64164  0.08290  0.82400  Biso   1.000  C
  C118     1.0000 0.62167  0.01250  0.84630  Biso   1.000  C
  H64      1.0000 0.62970  0.95170  0.85310  Biso   1.000  H
  C119     1.0000 0.59062  0.02850  0.85870  Biso   1.000  C
  H65      1.0000 0.57800  0.97840  0.87120  Biso   1.000  H
  C120     1.0000 0.57793  0.11760  0.85310  Biso   1.000  C
  C121     1.0000 0.59708  0.19020  0.83040  Biso   1.000  C
  H66      1.0000 0.58910  0.25100  0.82560  Biso   1.000  H
  C122     1.0000 0.62805  0.17280  0.81500  Biso   1.000  C
  H67      1.0000 0.64020  0.22230  0.79820  Biso   1.000  H
  C123     1.0000 0.54389  0.13840  0.86740  Biso   1.000  C
  C124     1.0000 0.52338  0.06440  0.87730  Biso   1.000  C
  H68      1.0000 0.53030  0.00310  0.87260  Biso   1.000  H
  C125     1.0000 0.49253  0.08200  0.89440  Biso   1.000  C
  H69      1.0000 0.47880  0.03250  0.90100  Biso   1.000  H
  C126     1.0000 0.48219  0.17360  0.90140  Biso   1.000  C
  C127     1.0000 0.50270  0.24760  0.89150  Biso   1.000  C
  H70      1.0000 0.49580  0.30890  0.89620  Biso   1.000  H
  C128     1.0000 0.53355  0.23000  0.87450  Biso   1.000  C
  H71      1.0000 0.54730  0.27950  0.86780  Biso   1.000  H
  C129     1.0000 0.44845  0.19070  0.92220  Biso   1.000  C
  C130     1.0000 0.42651  0.11950  0.92680  Biso   1.000  C
  H72      1.0000 0.43180  0.05840  0.91330  Biso   1.000  H
  C131     1.0000 0.39692  0.13780  0.95110  Biso   1.000  C
  H73      1.0000 0.38300  0.08840  0.95640  Biso   1.000  H
  C132     1.0000 0.38775  0.22740  0.96760  Biso   1.000  C
  C133     1.0000 0.40878  0.29970  0.95610  Biso   1.000  C
  H74      1.0000 0.40230  0.36130  0.96170  Biso   1.000  H
  C134     1.0000 0.43912  0.28210  0.93650  Biso   1.000  C
  H75      1.0000 0.45330  0.33130  0.93280  Biso   1.000  H
  C135     1.0000 0.35608  0.24640  0.99680  Biso   1.000  C
  O25      1.0000 0.77762  0.92630  0.94370  Biso   1.000  O
  O26      1.0000 0.73455  0.84330  0.94830  Biso   1.000  O
  O27      1.0000 0.76276  0.15490  0.65430  Biso   1.000  O
  O28      1.0000 0.71566  0.23060  0.61680  Biso   1.000  O
  O29      1.0000 0.34536  0.32880  0.98980  Biso   1.000  O
  O30      1.0000 0.34069  0.18260  0.02690  Biso   1.000  O
  Tb5      1.0000 0.79602  0.79131  0.04544  Biso   1.000  Tb
  C136     1.0000 0.24765  0.41430  0.92010  Biso   1.000  C
  C137     1.0000 0.22681  0.48780  0.85860  Biso   1.000  C
  C138     1.0000 0.19490  0.49900  0.86740  Biso   1.000  C
  H76      1.0000 0.18640  0.46070  0.91040  Biso   1.000  H
  C139     1.0000 0.17530  0.56700  0.81240  Biso   1.000  C
  C140     1.0000 0.18918  0.62120  0.74750  Biso   1.000  C
  H77      1.0000 0.17660  0.66660  0.70950  Biso   1.000  H
  C141     1.0000 0.22093  0.61000  0.73760  Biso   1.000  C
  C142     1.0000 0.24004  0.54490  0.79600  Biso   1.000  C
  H78      1.0000 0.26180  0.53940  0.79330  Biso   1.000  H
  C143     1.0000 0.23416  0.67010  0.66340  Biso   1.000  C
  C144     1.0000 0.14164  0.58290  0.82400  Biso   1.000  C
  C145     1.0000 0.12167  0.51250  0.84630  Biso   1.000  C
  H79      1.0000 0.12970  0.45170  0.85310  Biso   1.000  H
  C146     1.0000 0.09062  0.52850  0.85870  Biso   1.000  C
  H80      1.0000 0.07800  0.47840  0.87120  Biso   1.000  H
  C147     1.0000 0.07793  0.61760  0.85310  Biso   1.000  C
  C148     1.0000 0.09708  0.69020  0.83040  Biso   1.000  C
  H81      1.0000 0.08910  0.75100  0.82560  Biso   1.000  H
  C149     1.0000 0.12805  0.67280  0.81500  Biso   1.000  C
  H82      1.0000 0.14020  0.72230  0.79820  Biso   1.000  H
  C150     1.0000 0.04389  0.63840  0.86740  Biso   1.000  C
  C151     1.0000 0.02338  0.56440  0.87730  Biso   1.000  C
  H83      1.0000 0.03030  0.50310  0.87260  Biso   1.000  H
  C152     1.0000 0.99253  0.58200  0.89440  Biso   1.000  C
  H84      1.0000 0.97880  0.53250  0.90100  Biso   1.000  H
  C153     1.0000 0.98219  0.67360  0.90140  Biso   1.000  C
  C154     1.0000 0.00270  0.74760  0.89150  Biso   1.000  C
  H85      1.0000 0.99580  0.80890  0.89620  Biso   1.000  H
  C155     1.0000 0.03355  0.73000  0.87450  Biso   1.000  C
  H86      1.0000 0.04730  0.77950  0.86780  Biso   1.000  H
  C156     1.0000 0.94845  0.69070  0.92220  Biso   1.000  C
  C157     1.0000 0.92651  0.61950  0.92680  Biso   1.000  C
  H87      1.0000 0.93180  0.55840  0.91330  Biso   1.000  H
  C158     1.0000 0.89692  0.63780  0.95110  Biso   1.000  C
  H88      1.0000 0.88300  0.58840  0.95640  Biso   1.000  H
  C159     1.0000 0.88775  0.72740  0.96760  Biso   1.000  C
  C160     1.0000 0.90878  0.79970  0.95610  Biso   1.000  C
  H89      1.0000 0.90230  0.86130  0.96170  Biso   1.000  H
  C161     1.0000 0.93912  0.78210  0.93650  Biso   1.000  C
  H90      1.0000 0.95330  0.83130  0.93280  Biso   1.000  H
  C162     1.0000 0.85608  0.74640  0.99680  Biso   1.000  C
  O31      1.0000 0.27762  0.42630  0.94370  Biso   1.000  O
  O32      1.0000 0.23455  0.34330  0.94830  Biso   1.000  O
  O33      1.0000 0.26276  0.65490  0.65430  Biso   1.000  O
  O34      1.0000 0.21566  0.73060  0.61680  Biso   1.000  O
  O35      1.0000 0.84536  0.82880  0.98980  Biso   1.000  O
  O36      1.0000 0.84069  0.68260  0.02690  Biso   1.000  O
  Tb6      1.0000 0.29602  0.29131  0.04544  Biso   1.000  Tb
  C163     1.0000 0.25235  0.91430  0.57990  Biso   1.000  C
  C164     1.0000 0.27319  0.98780  0.64140  Biso   1.000  C
  C165     1.0000 0.30510  0.99900  0.63260  Biso   1.000  C
  H91      1.0000 0.31360  0.96070  0.58960  Biso   1.000  H
  C166     1.0000 0.32470  0.06700  0.68760  Biso   1.000  C
  C167     1.0000 0.31082  0.12120  0.75250  Biso   1.000  C
  H92      1.0000 0.32340  0.16660  0.79050  Biso   1.000  H
  C168     1.0000 0.27907  0.11000  0.76240  Biso   1.000  C
  C169     1.0000 0.25996  0.04490  0.70400  Biso   1.000  C
  H93      1.0000 0.23820  0.03940  0.70670  Biso   1.000  H
  C170     1.0000 0.26584  0.17010  0.83660  Biso   1.000  C
  C171     1.0000 0.35836  0.08290  0.67600  Biso   1.000  C
  C172     1.0000 0.37833  0.01250  0.65370  Biso   1.000  C
  H94      1.0000 0.37030  0.95170  0.64690  Biso   1.000  H
  C173     1.0000 0.40938  0.02850  0.64130  Biso   1.000  C
  H95      1.0000 0.42200  0.97840  0.62880  Biso   1.000  H
  C174     1.0000 0.42207  0.11760  0.64690  Biso   1.000  C
  C175     1.0000 0.40292  0.19020  0.66960  Biso   1.000  C
  H96      1.0000 0.41090  0.25100  0.67440  Biso   1.000  H
  C176     1.0000 0.37195  0.17280  0.68500  Biso   1.000  C
  H97      1.0000 0.35980  0.22230  0.70180  Biso   1.000  H
  C177     1.0000 0.45611  0.13840  0.63260  Biso   1.000  C
  C178     1.0000 0.47662  0.06440  0.62270  Biso   1.000  C
  H98      1.0000 0.46970  0.00310  0.62740  Biso   1.000  H
  C179     1.0000 0.50747  0.08200  0.60560  Biso   1.000  C
  H99      1.0000 0.52120  0.03250  0.59900  Biso   1.000  H
  C180     1.0000 0.51781  0.17360  0.59860  Biso   1.000  C
  C181     1.0000 0.49730  0.24760  0.60850  Biso   1.000  C
  H100     1.0000 0.50420  0.30890  0.60380  Biso   1.000  H
  C182     1.0000 0.46645  0.23000  0.62550  Biso   1.000  C
  H101     1.0000 0.45270  0.27950  0.63220  Biso   1.000  H
  C183     1.0000 0.55155  0.19070  0.57780  Biso   1.000  C
  C184     1.0000 0.57349  0.11950  0.57320  Biso   1.000  C
  H102     1.0000 0.56820  0.05840  0.58670  Biso   1.000  H
  C185     1.0000 0.60308  0.13780  0.54890  Biso   1.000  C
  H103     1.0000 0.61700  0.08840  0.54360  Biso   1.000  H
  C186     1.0000 0.61225  0.22740  0.53240  Biso   1.000  C
  C187     1.0000 0.59122  0.29970  0.54390  Biso   1.000  C
  H104     1.0000 0.59770  0.36130  0.53830  Biso   1.000  H
  C188     1.0000 0.56088  0.28210  0.56350  Biso   1.000  C
  H105     1.0000 0.54670  0.33130  0.56720  Biso   1.000  H
  C189     1.0000 0.64392  0.24640  0.50320  Biso   1.000  C
  O37      1.0000 0.22238  0.92630  0.55630  Biso   1.000  O
  O38      1.0000 0.26545  0.84330  0.55170  Biso   1.000  O
  O39      1.0000 0.23724  0.15490  0.84570  Biso   1.000  O
  O40      1.0000 0.28434  0.23060  0.88320  Biso   1.000  O
  O41      1.0000 0.65464  0.32880  0.51020  Biso   1.000  O
  O42      1.0000 0.65931  0.18260  0.47310  Biso   1.000  O
  Tb7      1.0000 0.20398  0.79131  0.45456  Biso   1.000  Tb
  C190     1.0000 0.75235  0.41430  0.57990  Biso   1.000  C
  C191     1.0000 0.77319  0.48780  0.64140  Biso   1.000  C
  C192     1.0000 0.80510  0.49900  0.63260  Biso   1.000  C
  H106     1.0000 0.81360  0.46070  0.58960  Biso   1.000  H
  C193     1.0000 0.82470  0.56700  0.68760  Biso   1.000  C
  C194     1.0000 0.81082  0.62120  0.75250  Biso   1.000  C
  H107     1.0000 0.82340  0.66660  0.79050  Biso   1.000  H
  C195     1.0000 0.77907  0.61000  0.76240  Biso   1.000  C
  C196     1.0000 0.75996  0.54490  0.70400  Biso   1.000  C
  H108     1.0000 0.73820  0.53940  0.70670  Biso   1.000  H
  C197     1.0000 0.76584  0.67010  0.83660  Biso   1.000  C
  C198     1.0000 0.85836  0.58290  0.67600  Biso   1.000  C
  C199     1.0000 0.87833  0.51250  0.65370  Biso   1.000  C
  H109     1.0000 0.87030  0.45170  0.64690  Biso   1.000  H
  C200     1.0000 0.90938  0.52850  0.64130  Biso   1.000  C
  H110     1.0000 0.92200  0.47840  0.62880  Biso   1.000  H
  C201     1.0000 0.92207  0.61760  0.64690  Biso   1.000  C
  C202     1.0000 0.90292  0.69020  0.66960  Biso   1.000  C
  H111     1.0000 0.91090  0.75100  0.67440  Biso   1.000  H
  C203     1.0000 0.87195  0.67280  0.68500  Biso   1.000  C
  H112     1.0000 0.85980  0.72230  0.70180  Biso   1.000  H
  C204     1.0000 0.95611  0.63840  0.63260  Biso   1.000  C
  C205     1.0000 0.97662  0.56440  0.62270  Biso   1.000  C
  H113     1.0000 0.96970  0.50310  0.62740  Biso   1.000  H
  C206     1.0000 0.00747  0.58200  0.60560  Biso   1.000  C
  H114     1.0000 0.02120  0.53250  0.59900  Biso   1.000  H
  C207     1.0000 0.01781  0.67360  0.59860  Biso   1.000  C
  C208     1.0000 0.99730  0.74760  0.60850  Biso   1.000  C
  H115     1.0000 0.00420  0.80890  0.60380  Biso   1.000  H
  C209     1.0000 0.96645  0.73000  0.62550  Biso   1.000  C
  H116     1.0000 0.95270  0.77950  0.63220  Biso   1.000  H
  C210     1.0000 0.05155  0.69070  0.57780  Biso   1.000  C
  C211     1.0000 0.07349  0.61950  0.57320  Biso   1.000  C
  H117     1.0000 0.06820  0.55840  0.58670  Biso   1.000  H
  C212     1.0000 0.10308  0.63780  0.54890  Biso   1.000  C
  H118     1.0000 0.11700  0.58840  0.54360  Biso   1.000  H
  C213     1.0000 0.11225  0.72740  0.53240  Biso   1.000  C
  C214     1.0000 0.09122  0.79970  0.54390  Biso   1.000  C
  H119     1.0000 0.09770  0.86130  0.53830  Biso   1.000  H
  C215     1.0000 0.06088  0.78210  0.56350  Biso   1.000  C
  H120     1.0000 0.04670  0.83130  0.56720  Biso   1.000  H
  C216     1.0000 0.14392  0.74640  0.50320  Biso   1.000  C
  O43      1.0000 0.72238  0.42630  0.55630  Biso   1.000  O
  O44      1.0000 0.76545  0.34330  0.55170  Biso   1.000  O
  O45      1.0000 0.73724  0.65490  0.84570  Biso   1.000  O
  O46      1.0000 0.78434  0.73060  0.88320  Biso   1.000  O
  O47      1.0000 0.15464  0.82880  0.51020  Biso   1.000  O
  O48      1.0000 0.15931  0.68260  0.47310  Biso   1.000  O
  Tb8      1.0000 0.70398  0.29131  0.45456  Biso   1.000  Tb
