data_image0
_cell_length_a       8.562
_cell_length_b       8.839
_cell_length_c       16.904
_cell_angle_alpha    82.238
_cell_angle_beta     89.592
_cell_angle_gamma    78.252

_symmetry_space_group_name_H-M    "P 1"
_symmetry_int_tables_number       1

loop_
  _symmetry_equiv_pos_as_xyz
  'x, y, z'

loop_
  _atom_site_label
  _atom_site_occupancy
  _atom_site_fract_x
  _atom_site_fract_y
  _atom_site_fract_z
  _atom_site_thermal_displace_type
  _atom_site_B_iso_or_equiv
  _atom_site_type_symbol
  N1       1.0000 0.50480  0.46640  0.22400  Biso   1.000  N
  N2       1.0000 0.13470  0.92460  0.15450  Biso   1.000  N
  B1       1.0000 0.17480  0.76570  0.12280  Biso   1.000  B
  N3       1.0000 0.02260  0.69850  0.11760  Biso   1.000  N
  N4       1.0000 0.99420  0.14790  0.18730  Biso   1.000  N
  N5       1.0000 0.24660  0.78000  0.03900  Biso   1.000  N
  N6       1.0000 0.84680  0.54520  0.14340  Biso   1.000  N
  N7       1.0000 0.31970  0.71810  0.91890  Biso   1.000  N
  C1       1.0000 0.98460  0.57540  0.16330  Biso   1.000  C
  H1       1.0000 0.04950  0.51680  0.20510  Biso   1.000  H
  C2       1.0000 0.29450  0.62930  0.26300  Biso   1.000  C
  H2       1.0000 0.21930  0.68190  0.29500  Biso   1.000  H
  N8       1.0000 0.29690  0.65380  0.18060  Biso   1.000  N
  C3       1.0000 0.22870  0.69400  0.98080  Biso   1.000  C
  H3       1.0000 0.15940  0.62490  0.98400  Biso   1.000  H
  C4       1.0000 0.23940  0.00100  0.18700  Biso   1.000  C
  H4       1.0000 0.34910  0.96640  0.19390  Biso   1.000  H
  C5       1.0000 0.89710  0.75030  0.06340  Biso   1.000  C
  H5       1.0000 0.88680  0.83430  0.02290  Biso   1.000  H
  C6       1.0000 0.42100  0.51510  0.28870  Biso   1.000  C
  H6       1.0000 0.44720  0.47570  0.34190  Biso   1.000  H
  C7       1.0000 0.42590  0.55040  0.16130  Biso   1.000  C
  H7       1.0000 0.45560  0.53980  0.10900  Biso   1.000  H
  C8       1.0000 0.35940  0.86470  0.01140  Biso   1.000  C
  H8       1.0000 0.39860  0.93520  0.03800  Biso   1.000  H
  C9       1.0000 0.15120  0.13620  0.20720  Biso   1.000  C
  H9       1.0000 0.19170  0.20960  0.23090  Biso   1.000  H
  C10      1.0000 0.98980  0.02030  0.15650  Biso   1.000  C
  H10      1.0000 0.89640  0.99770  0.13780  Biso   1.000  H
  C11      1.0000 0.40250  0.82580  0.93840  Biso   1.000  C
  H11      1.0000 0.47700  0.86610  0.90620  Biso   1.000  H
  C12      1.0000 0.79220  0.65620  0.08020  Biso   1.000  C
  H12      1.0000 0.69640  0.66560  0.05260  Biso   1.000  H
  Cd1      1.0000 0.75854  0.32394  0.21271  Biso   1.000  Cd
  O1       1.0000 0.71110  0.33350  0.39820  Biso   1.000  O
  O2       1.0000 0.70270  0.43560  0.53310  Biso   1.000  O
  H13      1.0000 0.66310  0.41330  0.49340  Biso   1.000  H
  C13      1.0000 0.83960  0.37420  0.38110  Biso   1.000  C
  C14      1.0000 0.92330  0.43750  0.44310  Biso   1.000  C
  C15      1.0000 0.92730  0.52880  0.57100  Biso   1.000  C
  H14      1.0000 0.87790  0.54830  0.61880  Biso   1.000  H
  C16      1.0000 0.84930  0.46650  0.51560  Biso   1.000  C
  O3       1.0000 0.90390  0.36760  0.31410  Biso   1.000  O
  N9       1.0000 0.49520  0.53360  0.77600  Biso   1.000  N
  N10      1.0000 0.86530  0.07540  0.84550  Biso   1.000  N
  B2       1.0000 0.82520  0.23430  0.87720  Biso   1.000  B
  N11      1.0000 0.97740  0.30150  0.88240  Biso   1.000  N
  N12      1.0000 0.00580  0.85210  0.81270  Biso   1.000  N
  N13      1.0000 0.75340  0.22000  0.96100  Biso   1.000  N
  N14      1.0000 0.15320  0.45480  0.85660  Biso   1.000  N
  N15      1.0000 0.68030  0.28190  0.08110  Biso   1.000  N
  C17      1.0000 0.01540  0.42460  0.83670  Biso   1.000  C
  H15      1.0000 0.95050  0.48320  0.79490  Biso   1.000  H
  C18      1.0000 0.70550  0.37070  0.73700  Biso   1.000  C
  H16      1.0000 0.78070  0.31810  0.70500  Biso   1.000  H
  N16      1.0000 0.70310  0.34620  0.81940  Biso   1.000  N
  C19      1.0000 0.77130  0.30600  0.01920  Biso   1.000  C
  H17      1.0000 0.84060  0.37510  0.01600  Biso   1.000  H
  C20      1.0000 0.76060  0.99900  0.81300  Biso   1.000  C
  H18      1.0000 0.65090  0.03360  0.80610  Biso   1.000  H
  C21      1.0000 0.10290  0.24970  0.93660  Biso   1.000  C
  H19      1.0000 0.11320  0.16570  0.97710  Biso   1.000  H
  C22      1.0000 0.57900  0.48490  0.71130  Biso   1.000  C
  H20      1.0000 0.55280  0.52430  0.65810  Biso   1.000  H
  C23      1.0000 0.57410  0.44960  0.83870  Biso   1.000  C
  H21      1.0000 0.54440  0.46020  0.89100  Biso   1.000  H
  C24      1.0000 0.64060  0.13530  0.98860  Biso   1.000  C
  H22      1.0000 0.60140  0.06480  0.96200  Biso   1.000  H
  C25      1.0000 0.84880  0.86380  0.79280  Biso   1.000  C
  H23      1.0000 0.80830  0.79040  0.76910  Biso   1.000  H
  C26      1.0000 0.01020  0.97970  0.84350  Biso   1.000  C
  H24      1.0000 0.10360  0.00230  0.86220  Biso   1.000  H
  C27      1.0000 0.59750  0.17420  0.06160  Biso   1.000  C
  H25      1.0000 0.52300  0.13390  0.09380  Biso   1.000  H
  C28      1.0000 0.20780  0.34380  0.91980  Biso   1.000  C
  H26      1.0000 0.30360  0.33440  0.94740  Biso   1.000  H
  Cd2      1.0000 0.24146  0.67606  0.78729  Biso   1.000  Cd
  O4       1.0000 0.28890  0.66650  0.60180  Biso   1.000  O
  O5       1.0000 0.29730  0.56440  0.46690  Biso   1.000  O
  H27      1.0000 0.33690  0.58670  0.50660  Biso   1.000  H
  C29      1.0000 0.16040  0.62580  0.61890  Biso   1.000  C
  C30      1.0000 0.07670  0.56250  0.55690  Biso   1.000  C
  C31      1.0000 0.07270  0.47120  0.42900  Biso   1.000  C
  H28      1.0000 0.12210  0.45170  0.38120  Biso   1.000  H
  C32      1.0000 0.15070  0.53350  0.48440  Biso   1.000  C
  O6       1.0000 0.09610  0.63240  0.68590  Biso   1.000  O
