data_image0
_cell_length_a       6.8654
_cell_length_b       11.42
_cell_length_c       17.4396
_cell_angle_alpha    90
_cell_angle_beta     98.662
_cell_angle_gamma    90

_symmetry_space_group_name_H-M    "P 1"
_symmetry_int_tables_number       1

loop_
  _symmetry_equiv_pos_as_xyz
  'x, y, z'

loop_
  _atom_site_label
  _atom_site_occupancy
  _atom_site_fract_x
  _atom_site_fract_y
  _atom_site_fract_z
  _atom_site_thermal_displace_type
  _atom_site_B_iso_or_equiv
  _atom_site_type_symbol
  Cd1      1.0000 0.83205  0.35845  0.52672  Biso   1.000  Cd
  C1       1.0000 0.54120  0.27410  0.30300  Biso   1.000  C
  C2       1.0000 0.51280  0.36510  0.24990  Biso   1.000  C
  H1       1.0000 0.53170  0.44200  0.26690  Biso   1.000  H
  C3       1.0000 0.45630  0.34220  0.17160  Biso   1.000  C
  C4       1.0000 0.42740  0.22700  0.14700  Biso   1.000  C
  H2       1.0000 0.39230  0.21030  0.09450  Biso   1.000  H
  C5       1.0000 0.45120  0.13740  0.20080  Biso   1.000  C
  C6       1.0000 0.50940  0.15900  0.27840  Biso   1.000  C
  H3       1.0000 0.52720  0.09760  0.31380  Biso   1.000  H
  C7       1.0000 0.61180  0.29770  0.38780  Biso   1.000  C
  C8       1.0000 0.42610  0.43820  0.11320  Biso   1.000  C
  C9       1.0000 0.49250  0.98380  0.11270  Biso   1.000  C
  H4       1.0000 0.63410  0.99510  0.12150  Biso   1.000  H
  H5       1.0000 0.43780  0.03090  0.06830  Biso   1.000  H
  C10      1.0000 0.44660  0.85740  0.09600  Biso   1.000  C
  O1       1.0000 0.66260  0.40240  0.40650  Biso   1.000  O
  O2       1.0000 0.63160  0.21750  0.43450  Biso   1.000  O
  O3       1.0000 0.38170  0.41690  0.04290  Biso   1.000  O
  O4       1.0000 0.44020  0.54290  0.13790  Biso   1.000  O
  O5       1.0000 0.41240  0.02070  0.17900  Biso   1.000  O
  O6       1.0000 0.33770  0.80280  0.13430  Biso   1.000  O
  O7       1.0000 0.51660  0.81110  0.04100  Biso   1.000  O
  Cd2      1.0000 0.66795  0.35845  0.97328  Biso   1.000  Cd
  C11      1.0000 0.95880  0.27410  0.19700  Biso   1.000  C
  C12      1.0000 0.98720  0.36510  0.25010  Biso   1.000  C
  H6       1.0000 0.96830  0.44200  0.23310  Biso   1.000  H
  C13      1.0000 0.04370  0.34220  0.32840  Biso   1.000  C
  C14      1.0000 0.07260  0.22700  0.35300  Biso   1.000  C
  H7       1.0000 0.10770  0.21030  0.40550  Biso   1.000  H
  C15      1.0000 0.04880  0.13740  0.29920  Biso   1.000  C
  C16      1.0000 0.99060  0.15900  0.22160  Biso   1.000  C
  H8       1.0000 0.97280  0.09760  0.18620  Biso   1.000  H
  C17      1.0000 0.88820  0.29770  0.11220  Biso   1.000  C
  C18      1.0000 0.07390  0.43820  0.38680  Biso   1.000  C
  C19      1.0000 0.00750  0.98380  0.38730  Biso   1.000  C
  H9       1.0000 0.86590  0.99510  0.37850  Biso   1.000  H
  H10      1.0000 0.06220  0.03090  0.43170  Biso   1.000  H
  C20      1.0000 0.05340  0.85740  0.40400  Biso   1.000  C
  O8       1.0000 0.83740  0.40240  0.09350  Biso   1.000  O
  O9       1.0000 0.86840  0.21750  0.06550  Biso   1.000  O
  O10      1.0000 0.11830  0.41690  0.45710  Biso   1.000  O
  O11      1.0000 0.05980  0.54290  0.36210  Biso   1.000  O
  O12      1.0000 0.08760  0.02070  0.32100  Biso   1.000  O
  O13      1.0000 0.16230  0.80280  0.36570  Biso   1.000  O
  O14      1.0000 0.98340  0.81110  0.45900  Biso   1.000  O
  Cd3      1.0000 0.16795  0.64155  0.47328  Biso   1.000  Cd
  C21      1.0000 0.45880  0.72590  0.69700  Biso   1.000  C
  C22      1.0000 0.48720  0.63490  0.75010  Biso   1.000  C
  H11      1.0000 0.46830  0.55800  0.73310  Biso   1.000  H
  C23      1.0000 0.54370  0.65780  0.82840  Biso   1.000  C
  C24      1.0000 0.57260  0.77300  0.85300  Biso   1.000  C
  H12      1.0000 0.60770  0.78970  0.90550  Biso   1.000  H
  C25      1.0000 0.54880  0.86260  0.79920  Biso   1.000  C
  C26      1.0000 0.49060  0.84100  0.72160  Biso   1.000  C
  H13      1.0000 0.47280  0.90240  0.68620  Biso   1.000  H
  C27      1.0000 0.38820  0.70230  0.61220  Biso   1.000  C
  C28      1.0000 0.57390  0.56180  0.88680  Biso   1.000  C
  C29      1.0000 0.50750  0.01620  0.88730  Biso   1.000  C
  H14      1.0000 0.36590  0.00490  0.87850  Biso   1.000  H
  H15      1.0000 0.56220  0.96910  0.93170  Biso   1.000  H
  C30      1.0000 0.55340  0.14260  0.90400  Biso   1.000  C
  O15      1.0000 0.33740  0.59760  0.59350  Biso   1.000  O
  O16      1.0000 0.36840  0.78250  0.56550  Biso   1.000  O
  O17      1.0000 0.61830  0.58310  0.95710  Biso   1.000  O
  O18      1.0000 0.55980  0.45710  0.86210  Biso   1.000  O
  O19      1.0000 0.58760  0.97930  0.82100  Biso   1.000  O
  O20      1.0000 0.66230  0.19720  0.86570  Biso   1.000  O
  O21      1.0000 0.48340  0.18890  0.95900  Biso   1.000  O
  Cd4      1.0000 0.33205  0.64155  0.02672  Biso   1.000  Cd
  C31      1.0000 0.04120  0.72590  0.80300  Biso   1.000  C
  C32      1.0000 0.01280  0.63490  0.74990  Biso   1.000  C
  H16      1.0000 0.03170  0.55800  0.76690  Biso   1.000  H
  C33      1.0000 0.95630  0.65780  0.67160  Biso   1.000  C
  C34      1.0000 0.92740  0.77300  0.64700  Biso   1.000  C
  H17      1.0000 0.89230  0.78970  0.59450  Biso   1.000  H
  C35      1.0000 0.95120  0.86260  0.70080  Biso   1.000  C
  C36      1.0000 0.00940  0.84100  0.77840  Biso   1.000  C
  H18      1.0000 0.02720  0.90240  0.81380  Biso   1.000  H
  C37      1.0000 0.11180  0.70230  0.88780  Biso   1.000  C
  C38      1.0000 0.92610  0.56180  0.61320  Biso   1.000  C
  C39      1.0000 0.99250  0.01620  0.61270  Biso   1.000  C
  H19      1.0000 0.13410  0.00490  0.62150  Biso   1.000  H
  H20      1.0000 0.93780  0.96910  0.56830  Biso   1.000  H
  C40      1.0000 0.94660  0.14260  0.59600  Biso   1.000  C
  O22      1.0000 0.16260  0.59760  0.90650  Biso   1.000  O
  O23      1.0000 0.13160  0.78250  0.93450  Biso   1.000  O
  O24      1.0000 0.88170  0.58310  0.54290  Biso   1.000  O
  O25      1.0000 0.94020  0.45710  0.63790  Biso   1.000  O
  O26      1.0000 0.91240  0.97930  0.67900  Biso   1.000  O
  O27      1.0000 0.83770  0.19720  0.63430  Biso   1.000  O
  O28      1.0000 0.01660  0.18890  0.54100  Biso   1.000  O
  Cd5      1.0000 0.25000  0.85402  0.25000  Biso   1.000  Cd
  Cd6      1.0000 0.75000  0.14598  0.75000  Biso   1.000  Cd
