data_AQALIO_clean
_audit_creation_date              2014-07-02
_audit_creation_method            'Materials Studio'
_symmetry_space_group_name_H-M    'P1'
_symmetry_Int_Tables_number       1
_symmetry_cell_setting            triclinic
loop_
_symmetry_equiv_pos_as_xyz
  x,y,z
_cell_length_a                    11.4520
_cell_length_b                    15.8290
_cell_length_c                    12.6850
_cell_angle_alpha                 90.0000
_cell_angle_beta                  90.0000
_cell_angle_gamma                 90.0000
loop_
_atom_site_label
_atom_site_type_symbol
_atom_site_fract_x
_atom_site_fract_y
_atom_site_fract_z
_atom_site_U_iso_or_equiv
_atom_site_adp_type
_atom_site_occupancy
Eu1    Eu    0.75000   0.92234   0.47706   0.01267  Uiso   1.00
Eu2    Eu    0.75000   0.92558   0.97728   0.01267  Uiso   1.00
Eu3    Eu    0.25000   0.57766   0.97706   0.01267  Uiso   1.00
Eu4    Eu    0.25000   0.57442   0.47728   0.01267  Uiso   1.00
Eu5    Eu    0.25000   0.07766   0.52294   0.01267  Uiso   1.00
Eu6    Eu    0.25000   0.07442   0.02272   0.01267  Uiso   1.00
Eu7    Eu    0.75000   0.42234   0.02294   0.01267  Uiso   1.00
Eu8    Eu    0.75000   0.42558   0.52272   0.01267  Uiso   1.00
Sr1    Sr    0.75000   0.67211   0.62894   0.01267  Uiso   1.00
Sr2    Sr    0.25000   0.82789   0.12894   0.01267  Uiso   1.00
Sr3    Sr    0.25000   0.32789   0.37106   0.01267  Uiso   1.00
Sr4    Sr    0.75000   0.17211   0.87106   0.01267  Uiso   1.00
H1     H     0.68940   0.75220   0.40950   0.01267  Uiso   1.00
H2     H     0.31060   0.74780   0.90950   0.01267  Uiso   1.00
H3     H     0.18940   0.24780   0.59050   0.01267  Uiso   1.00
H4     H     0.81060   0.25220   0.09050   0.01267  Uiso   1.00
H5     H     0.31060   0.24780   0.59050   0.01267  Uiso   1.00
H6     H     0.68940   0.25220   0.09050   0.01267  Uiso   1.00
H7     H     0.81060   0.75220   0.40950   0.01267  Uiso   1.00
H8     H     0.18940   0.74780   0.90950   0.01267  Uiso   1.00
C1     C     0.97690   0.04230   0.47710   0.01267  Uiso   1.00
C2     C     0.97520   0.04250   0.01970   0.01267  Uiso   1.00
C3     C     0.68320   0.90690   0.22620   0.01267  Uiso   1.00
C4     C     0.02310   0.45770   0.97710   0.01267  Uiso   1.00
C5     C     0.02480   0.45750   0.51970   0.01267  Uiso   1.00
C6     C     0.31680   0.59310   0.72620   0.01267  Uiso   1.00
C7     C     0.47690   0.95770   0.52290   0.01267  Uiso   1.00
C8     C     0.47520   0.95750   0.98030   0.01267  Uiso   1.00
C9     C     0.18320   0.09310   0.77380   0.01267  Uiso   1.00
C10    C     0.52310   0.54230   0.02290   0.01267  Uiso   1.00
C11    C     0.52480   0.54250   0.48030   0.01267  Uiso   1.00
C12    C     0.81680   0.40690   0.27380   0.01267  Uiso   1.00
C13    C     0.02310   0.95770   0.52290   0.01267  Uiso   1.00
C14    C     0.02480   0.95750   0.98030   0.01267  Uiso   1.00
C15    C     0.31680   0.09310   0.77380   0.01267  Uiso   1.00
C16    C     0.97690   0.54230   0.02290   0.01267  Uiso   1.00
C17    C     0.97520   0.54250   0.48030   0.01267  Uiso   1.00
C18    C     0.68320   0.40690   0.27380   0.01267  Uiso   1.00
C19    C     0.52310   0.04230   0.47710   0.01267  Uiso   1.00
C20    C     0.52480   0.04250   0.01970   0.01267  Uiso   1.00
C21    C     0.81680   0.90690   0.22620   0.01267  Uiso   1.00
C22    C     0.47690   0.45770   0.97710   0.01267  Uiso   1.00
C23    C     0.47520   0.45750   0.51970   0.01267  Uiso   1.00
C24    C     0.18320   0.59310   0.72620   0.01267  Uiso   1.00
C25    C     0.75000   0.87540   0.73040   0.01267  Uiso   1.00
C26    C     0.75000   0.97290   0.72690   0.01267  Uiso   1.00
C27    C     0.25000   0.62460   0.23040   0.01267  Uiso   1.00
C28    C     0.25000   0.52710   0.22690   0.01267  Uiso   1.00
C29    C     0.25000   0.12460   0.26960   0.01267  Uiso   1.00
C30    C     0.25000   0.02710   0.27310   0.01267  Uiso   1.00
C31    C     0.75000   0.37540   0.76960   0.01267  Uiso   1.00
C32    C     0.75000   0.47290   0.77310   0.01267  Uiso   1.00
O1     O     0.87330   0.04580   0.45360   0.01267  Uiso   1.00
O2     O     0.86820   0.05500   0.00360   0.01267  Uiso   1.00
O3     O     0.63440   0.90470   0.13820   0.01267  Uiso   1.00
O4     O     0.63360   0.90700   0.31460   0.01267  Uiso   1.00
O5     O     0.05040   0.10130   0.46900   0.01267  Uiso   1.00
O6     O     0.04470   0.09180   0.06510   0.01267  Uiso   1.00
O7     O     0.12670   0.45420   0.95360   0.01267  Uiso   1.00
O8     O     0.13180   0.44500   0.50360   0.01267  Uiso   1.00
O9     O     0.36560   0.59530   0.63820   0.01267  Uiso   1.00
O10    O     0.36640   0.59300   0.81460   0.01267  Uiso   1.00
O11    O     0.94960   0.39870   0.96900   0.01267  Uiso   1.00
O12    O     0.95530   0.40820   0.56510   0.01267  Uiso   1.00
O13    O     0.37330   0.95420   0.54640   0.01267  Uiso   1.00
O14    O     0.36820   0.94500   0.99640   0.01267  Uiso   1.00
O15    O     0.13440   0.09530   0.86180   0.01267  Uiso   1.00
O16    O     0.13360   0.09300   0.68540   0.01267  Uiso   1.00
O17    O     0.55040   0.89870   0.53100   0.01267  Uiso   1.00
O18    O     0.54470   0.90820   0.93490   0.01267  Uiso   1.00
O19    O     0.62670   0.54580   0.04640   0.01267  Uiso   1.00
O20    O     0.63180   0.55500   0.49640   0.01267  Uiso   1.00
O21    O     0.86560   0.40470   0.36180   0.01267  Uiso   1.00
O22    O     0.86640   0.40700   0.18540   0.01267  Uiso   1.00
O23    O     0.44960   0.60130   0.03100   0.01267  Uiso   1.00
O24    O     0.45530   0.59180   0.43490   0.01267  Uiso   1.00
O25    O     0.12670   0.95420   0.54640   0.01267  Uiso   1.00
O26    O     0.13180   0.94500   0.99640   0.01267  Uiso   1.00
O27    O     0.36560   0.09530   0.86180   0.01267  Uiso   1.00
O28    O     0.36640   0.09300   0.68540   0.01267  Uiso   1.00
O29    O     0.94960   0.89870   0.53100   0.01267  Uiso   1.00
O30    O     0.95530   0.90820   0.93490   0.01267  Uiso   1.00
O31    O     0.87330   0.54580   0.04640   0.01267  Uiso   1.00
O32    O     0.86820   0.55500   0.49640   0.01267  Uiso   1.00
O33    O     0.63440   0.40470   0.36180   0.01267  Uiso   1.00
O34    O     0.63360   0.40700   0.18540   0.01267  Uiso   1.00
O35    O     0.05040   0.60130   0.03100   0.01267  Uiso   1.00
O36    O     0.04470   0.59180   0.43490   0.01267  Uiso   1.00
O37    O     0.62670   0.04580   0.45360   0.01267  Uiso   1.00
O38    O     0.63180   0.05500   0.00360   0.01267  Uiso   1.00
O39    O     0.86560   0.90470   0.13820   0.01267  Uiso   1.00
O40    O     0.86640   0.90700   0.31460   0.01267  Uiso   1.00
O41    O     0.44960   0.10130   0.46900   0.01267  Uiso   1.00
O42    O     0.45530   0.09180   0.06510   0.01267  Uiso   1.00
O43    O     0.37330   0.45420   0.95360   0.01267  Uiso   1.00
O44    O     0.36820   0.44500   0.50360   0.01267  Uiso   1.00
O45    O     0.13440   0.59530   0.63820   0.01267  Uiso   1.00
O46    O     0.13360   0.59300   0.81460   0.01267  Uiso   1.00
O47    O     0.55040   0.39870   0.96900   0.01267  Uiso   1.00
O48    O     0.54470   0.40820   0.56510   0.01267  Uiso   1.00
O49    O     0.75000   0.83830   0.64230   0.01267  Uiso   1.00
O50    O     0.75000   0.00790   0.63990   0.01267  Uiso   1.00
O51    O     0.75000   0.84180   0.81790   0.01267  Uiso   1.00
O52    O     0.75000   0.00890   0.81440   0.01267  Uiso   1.00
O53    O     0.75000   0.76460   0.44320   0.01267  Uiso   1.00
O54    O     0.25000   0.66170   0.14230   0.01267  Uiso   1.00
O55    O     0.25000   0.49210   0.13990   0.01267  Uiso   1.00
O56    O     0.25000   0.65820   0.31790   0.01267  Uiso   1.00
O57    O     0.25000   0.49110   0.31440   0.01267  Uiso   1.00
O58    O     0.25000   0.73540   0.94320   0.01267  Uiso   1.00
O59    O     0.25000   0.16170   0.35770   0.01267  Uiso   1.00
O60    O     0.25000   0.99210   0.36010   0.01267  Uiso   1.00
O61    O     0.25000   0.15820   0.18210   0.01267  Uiso   1.00
O62    O     0.25000   0.99110   0.18560   0.01267  Uiso   1.00
O63    O     0.25000   0.23540   0.55680   0.01267  Uiso   1.00
O64    O     0.75000   0.33830   0.85770   0.01267  Uiso   1.00
O65    O     0.75000   0.50790   0.86010   0.01267  Uiso   1.00
O66    O     0.75000   0.34180   0.68210   0.01267  Uiso   1.00
O67    O     0.75000   0.50890   0.68560   0.01267  Uiso   1.00
O68    O     0.75000   0.26460   0.05680   0.01267  Uiso   1.00
