data_AQALOU_clean
_audit_creation_date              2014-07-02
_audit_creation_method            'Materials Studio'
_symmetry_space_group_name_H-M    'P1'
_symmetry_Int_Tables_number       1
_symmetry_cell_setting            triclinic
loop_
_symmetry_equiv_pos_as_xyz
  x,y,z
_cell_length_a                    11.4250
_cell_length_b                    15.8240
_cell_length_c                    12.6490
_cell_angle_alpha                 90.0000
_cell_angle_beta                  90.0000
_cell_angle_gamma                 90.0000
loop_
_atom_site_label
_atom_site_type_symbol
_atom_site_fract_x
_atom_site_fract_y
_atom_site_fract_z
_atom_site_U_iso_or_equiv
_atom_site_adp_type
_atom_site_occupancy
Sr1    Sr    0.25000   0.67245   0.12874   0.01267  Uiso   1.00
Sr2    Sr    0.75000   0.82755   0.62874   0.01267  Uiso   1.00
Sr3    Sr    0.75000   0.32755   0.87126   0.01267  Uiso   1.00
Sr4    Sr    0.25000   0.17245   0.37126   0.01267  Uiso   1.00
Gd1    Gd    0.25000   0.42294   0.52233   0.01267  Uiso   1.00
Gd2    Gd    0.25000   0.42622   0.02228   0.01267  Uiso   1.00
Gd3    Gd    0.75000   0.07706   0.02233   0.01267  Uiso   1.00
Gd4    Gd    0.75000   0.07378   0.52228   0.01267  Uiso   1.00
Gd5    Gd    0.75000   0.57706   0.47767   0.01267  Uiso   1.00
Gd6    Gd    0.75000   0.57378   0.97772   0.01267  Uiso   1.00
Gd7    Gd    0.25000   0.92294   0.97767   0.01267  Uiso   1.00
Gd8    Gd    0.25000   0.92622   0.47772   0.01267  Uiso   1.00
H1     H     0.19390   0.25300   0.59560   0.01267  Uiso   1.00
H2     H     0.80610   0.24700   0.09560   0.01267  Uiso   1.00
H3     H     0.69390   0.74700   0.40440   0.01267  Uiso   1.00
H4     H     0.30610   0.75300   0.90440   0.01267  Uiso   1.00
H5     H     0.80610   0.74700   0.40440   0.01267  Uiso   1.00
H6     H     0.19390   0.75300   0.90440   0.01267  Uiso   1.00
H7     H     0.30610   0.25300   0.59560   0.01267  Uiso   1.00
H8     H     0.69390   0.24700   0.09560   0.01267  Uiso   1.00
C1     C     0.02550   0.54220   0.97970   0.01267  Uiso   1.00
C2     C     0.31700   0.40760   0.77300   0.01267  Uiso   1.00
C3     C     0.97710   0.45780   0.47750   0.01267  Uiso   1.00
C4     C     0.97450   0.95780   0.47970   0.01267  Uiso   1.00
C5     C     0.68300   0.09240   0.27300   0.01267  Uiso   1.00
C6     C     0.02290   0.04220   0.97750   0.01267  Uiso   1.00
C7     C     0.52550   0.45780   0.02030   0.01267  Uiso   1.00
C8     C     0.81700   0.59240   0.22700   0.01267  Uiso   1.00
C9     C     0.47710   0.54220   0.52250   0.01267  Uiso   1.00
C10    C     0.47450   0.04220   0.52030   0.01267  Uiso   1.00
C11    C     0.18300   0.90760   0.72700   0.01267  Uiso   1.00
C12    C     0.52290   0.95780   0.02250   0.01267  Uiso   1.00
C13    C     0.97450   0.45780   0.02030   0.01267  Uiso   1.00
C14    C     0.68300   0.59240   0.22700   0.01267  Uiso   1.00
C15    C     0.02290   0.54220   0.52250   0.01267  Uiso   1.00
C16    C     0.02550   0.04220   0.52030   0.01267  Uiso   1.00
C17    C     0.31700   0.90760   0.72700   0.01267  Uiso   1.00
C18    C     0.97710   0.95780   0.02250   0.01267  Uiso   1.00
C19    C     0.47450   0.54220   0.97970   0.01267  Uiso   1.00
C20    C     0.18300   0.40760   0.77300   0.01267  Uiso   1.00
C21    C     0.52290   0.45780   0.47750   0.01267  Uiso   1.00
C22    C     0.52550   0.95780   0.47970   0.01267  Uiso   1.00
C23    C     0.81700   0.09240   0.27300   0.01267  Uiso   1.00
C24    C     0.47710   0.04220   0.97750   0.01267  Uiso   1.00
C25    C     0.25000   0.47330   0.27180   0.01267  Uiso   1.00
C26    C     0.25000   0.37670   0.26900   0.01267  Uiso   1.00
C27    C     0.75000   0.02670   0.77180   0.01267  Uiso   1.00
C28    C     0.75000   0.12330   0.76900   0.01267  Uiso   1.00
C29    C     0.75000   0.52670   0.72820   0.01267  Uiso   1.00
C30    C     0.75000   0.62330   0.73100   0.01267  Uiso   1.00
C31    C     0.25000   0.97330   0.22820   0.01267  Uiso   1.00
C32    C     0.25000   0.87670   0.23100   0.01267  Uiso   1.00
O1     O     0.13220   0.55490   0.99530   0.01267  Uiso   1.00
O2     O     0.36540   0.40630   0.86110   0.01267  Uiso   1.00
O3     O     0.95450   0.59180   0.93480   0.01267  Uiso   1.00
O4     O     0.05090   0.39930   0.46850   0.01267  Uiso   1.00
O5     O     0.36700   0.40790   0.68460   0.01267  Uiso   1.00
O6     O     0.87210   0.45340   0.45360   0.01267  Uiso   1.00
O7     O     0.86780   0.94510   0.49530   0.01267  Uiso   1.00
O8     O     0.63460   0.09370   0.36110   0.01267  Uiso   1.00
O9     O     0.04550   0.90820   0.43480   0.01267  Uiso   1.00
O10    O     0.94910   0.10070   0.96850   0.01267  Uiso   1.00
O11    O     0.63300   0.09210   0.18460   0.01267  Uiso   1.00
O12    O     0.12790   0.04660   0.95360   0.01267  Uiso   1.00
O13    O     0.63220   0.44510   0.00470   0.01267  Uiso   1.00
O14    O     0.86540   0.59370   0.13890   0.01267  Uiso   1.00
O15    O     0.45450   0.40820   0.06520   0.01267  Uiso   1.00
O16    O     0.55090   0.60070   0.53150   0.01267  Uiso   1.00
O17    O     0.86700   0.59210   0.31540   0.01267  Uiso   1.00
O18    O     0.37210   0.54660   0.54640   0.01267  Uiso   1.00
O19    O     0.36780   0.05490   0.50470   0.01267  Uiso   1.00
O20    O     0.13460   0.90630   0.63890   0.01267  Uiso   1.00
O21    O     0.54550   0.09180   0.56520   0.01267  Uiso   1.00
O22    O     0.44910   0.89930   0.03150   0.01267  Uiso   1.00
O23    O     0.13300   0.90790   0.81540   0.01267  Uiso   1.00
O24    O     0.62790   0.95340   0.04640   0.01267  Uiso   1.00
O25    O     0.86780   0.44510   0.00470   0.01267  Uiso   1.00
O26    O     0.63460   0.59370   0.13890   0.01267  Uiso   1.00
O27    O     0.04550   0.40820   0.06520   0.01267  Uiso   1.00
O28    O     0.94910   0.60070   0.53150   0.01267  Uiso   1.00
O29    O     0.63300   0.59210   0.31540   0.01267  Uiso   1.00
O30    O     0.12790   0.54660   0.54640   0.01267  Uiso   1.00
O31    O     0.13220   0.05490   0.50470   0.01267  Uiso   1.00
O32    O     0.36540   0.90630   0.63890   0.01267  Uiso   1.00
O33    O     0.95450   0.09180   0.56520   0.01267  Uiso   1.00
O34    O     0.05090   0.89930   0.03150   0.01267  Uiso   1.00
O35    O     0.36700   0.90790   0.81540   0.01267  Uiso   1.00
O36    O     0.87210   0.95340   0.04640   0.01267  Uiso   1.00
O37    O     0.36780   0.55490   0.99530   0.01267  Uiso   1.00
O38    O     0.13460   0.40630   0.86110   0.01267  Uiso   1.00
O39    O     0.54550   0.59180   0.93480   0.01267  Uiso   1.00
O40    O     0.44910   0.39930   0.46850   0.01267  Uiso   1.00
O41    O     0.13300   0.40790   0.68460   0.01267  Uiso   1.00
O42    O     0.62790   0.45340   0.45360   0.01267  Uiso   1.00
O43    O     0.63220   0.94510   0.49530   0.01267  Uiso   1.00
O44    O     0.86540   0.09370   0.36110   0.01267  Uiso   1.00
O45    O     0.45450   0.90820   0.43480   0.01267  Uiso   1.00
O46    O     0.55090   0.10070   0.96850   0.01267  Uiso   1.00
O47    O     0.86700   0.09210   0.18460   0.01267  Uiso   1.00
O48    O     0.37210   0.04660   0.95360   0.01267  Uiso   1.00
O49    O     0.25000   0.50840   0.36050   0.01267  Uiso   1.00
O50    O     0.25000   0.33820   0.35680   0.01267  Uiso   1.00
O51    O     0.25000   0.34220   0.18150   0.01267  Uiso   1.00
O52    O     0.25000   0.51010   0.18450   0.01267  Uiso   1.00
O53    O     0.25000   0.26720   0.55670   0.01267  Uiso   1.00
O54    O     0.75000   0.99160   0.86050   0.01267  Uiso   1.00
O55    O     0.75000   0.16180   0.85680   0.01267  Uiso   1.00
O56    O     0.75000   0.15780   0.68150   0.01267  Uiso   1.00
O57    O     0.75000   0.98990   0.68450   0.01267  Uiso   1.00
O58    O     0.75000   0.23280   0.05670   0.01267  Uiso   1.00
O59    O     0.75000   0.49160   0.63950   0.01267  Uiso   1.00
O60    O     0.75000   0.66180   0.64320   0.01267  Uiso   1.00
O61    O     0.75000   0.65780   0.81850   0.01267  Uiso   1.00
O62    O     0.75000   0.48990   0.81550   0.01267  Uiso   1.00
O63    O     0.75000   0.73280   0.44330   0.01267  Uiso   1.00
O64    O     0.25000   0.00840   0.13950   0.01267  Uiso   1.00
O65    O     0.25000   0.83820   0.14320   0.01267  Uiso   1.00
O66    O     0.25000   0.84220   0.31850   0.01267  Uiso   1.00
O67    O     0.25000   0.01010   0.31550   0.01267  Uiso   1.00
O68    O     0.25000   0.76720   0.94330   0.01267  Uiso   1.00
