data_image0
_cell_length_a       23.3533
_cell_length_b       20.5379
_cell_length_c       12.6226
_cell_angle_alpha    90
_cell_angle_beta     98.32
_cell_angle_gamma    90

_symmetry_space_group_name_H-M    "P 1"
_symmetry_int_tables_number       1

loop_
  _symmetry_equiv_pos_as_xyz
  'x, y, z'

loop_
  _atom_site_label
  _atom_site_occupancy
  _atom_site_fract_x
  _atom_site_fract_y
  _atom_site_fract_z
  _atom_site_thermal_displace_type
  _atom_site_B_iso_or_equiv
  _atom_site_type_symbol
  Ag1      1.0000 0.26403  0.07676  0.57180  Biso   1.000  Ag
  N1       1.0000 0.42210  0.04200  0.35200  Biso   1.000  N
  N2       1.0000 0.49840  0.46740  0.40700  Biso   1.000  N
  N3       1.0000 0.08230  0.15480  0.34100  Biso   1.000  N
  N4       1.0000 0.33700  0.04900  0.48200  Biso   1.000  N
  N5       1.0000 0.18530  0.11620  0.46200  Biso   1.000  N
  C1       1.0000 0.39020  0.06640  0.51700  Biso   1.000  C
  H1       1.0000 0.39900  0.08320  0.58540  Biso   1.000  H
  C2       1.0000 0.02690  0.40200  0.18100  Biso   1.000  C
  H2       1.0000 0.04980  0.42350  0.13770  Biso   1.000  H
  C3       1.0000 0.15810  0.07700  0.38800  Biso   1.000  C
  H3       1.0000 0.17250  0.03590  0.37730  Biso   1.000  H
  C4       1.0000 0.16660  0.17500  0.47100  Biso   1.000  C
  H4       1.0000 0.18730  0.20390  0.51900  Biso   1.000  H
  C5       1.0000 0.43420  0.06100  0.45300  Biso   1.000  C
  H5       1.0000 0.47220  0.06980  0.48240  Biso   1.000  H
  C6       1.0000 0.11240  0.19600  0.40600  Biso   1.000  C
  H6       1.0000 0.09940  0.23800  0.41090  Biso   1.000  H
  C7       1.0000 0.36900  0.02400  0.32000  Biso   1.000  C
  H7       1.0000 0.35960  0.00990  0.24950  Biso   1.000  H
  C8       1.0000 0.54960  0.47610  0.47200  Biso   1.000  C
  H8       1.0000 0.58380  0.46020  0.45260  Biso   1.000  H
  C9       1.0000 0.47510  0.19990  0.32300  Biso   1.000  C
  H9       1.0000 0.45770  0.17770  0.37400  Biso   1.000  H
  C10      1.0000 0.47670  0.27300  0.31800  Biso   1.000  C
  H10      1.0000 0.45950  0.29680  0.36740  Biso   1.000  H
  C11      1.0000 0.10700  0.09940  0.32500  Biso   1.000  C
  H11      1.0000 0.08990  0.07300  0.26930  Biso   1.000  H
  C12      1.0000 0.32600  0.02400  0.38100  Biso   1.000  C
  H12      1.0000 0.28920  0.00850  0.35390  Biso   1.000  H
  C13      1.0000 0.01970  0.33140  0.17400  Biso   1.000  C
  H13      1.0000 0.02930  0.30940  0.11480  Biso   1.000  H
  C14      1.0000 0.44970  0.49140  0.43200  Biso   1.000  C
  H14      1.0000 0.41530  0.48630  0.38590  Biso   1.000  H
  Ag2      1.0000 0.73597  0.07676  0.92820  Biso   1.000  Ag
  N6       1.0000 0.57790  0.04200  0.14800  Biso   1.000  N
  N7       1.0000 0.50160  0.46740  0.09300  Biso   1.000  N
  N8       1.0000 0.91770  0.15480  0.15900  Biso   1.000  N
  N9       1.0000 0.66300  0.04900  0.01800  Biso   1.000  N
  N10      1.0000 0.81470  0.11620  0.03800  Biso   1.000  N
  C15      1.0000 0.60980  0.06640  0.98300  Biso   1.000  C
  H15      1.0000 0.60100  0.08320  0.91460  Biso   1.000  H
  C16      1.0000 0.97310  0.40200  0.31900  Biso   1.000  C
  H16      1.0000 0.95020  0.42350  0.36230  Biso   1.000  H
  C17      1.0000 0.84190  0.07700  0.11200  Biso   1.000  C
  H17      1.0000 0.82750  0.03590  0.12270  Biso   1.000  H
  C18      1.0000 0.83340  0.17500  0.02900  Biso   1.000  C
  H18      1.0000 0.81270  0.20390  0.98100  Biso   1.000  H
  C19      1.0000 0.56580  0.06100  0.04700  Biso   1.000  C
  H19      1.0000 0.52780  0.06980  0.01760  Biso   1.000  H
  C20      1.0000 0.88760  0.19600  0.09400  Biso   1.000  C
  H20      1.0000 0.90060  0.23800  0.08910  Biso   1.000  H
  C21      1.0000 0.63100  0.02400  0.18000  Biso   1.000  C
  H21      1.0000 0.64040  0.00990  0.25050  Biso   1.000  H
  C22      1.0000 0.45040  0.47610  0.02800  Biso   1.000  C
  H22      1.0000 0.41620  0.46020  0.04740  Biso   1.000  H
  C23      1.0000 0.52490  0.19990  0.17700  Biso   1.000  C
  H23      1.0000 0.54230  0.17770  0.12600  Biso   1.000  H
  C24      1.0000 0.52330  0.27300  0.18200  Biso   1.000  C
  H24      1.0000 0.54050  0.29680  0.13260  Biso   1.000  H
  C25      1.0000 0.89300  0.09940  0.17500  Biso   1.000  C
  H25      1.0000 0.91010  0.07300  0.23070  Biso   1.000  H
  C26      1.0000 0.67400  0.02400  0.11900  Biso   1.000  C
  H26      1.0000 0.71080  0.00850  0.14610  Biso   1.000  H
  C27      1.0000 0.98030  0.33140  0.32600  Biso   1.000  C
  H27      1.0000 0.97070  0.30940  0.38520  Biso   1.000  H
  C28      1.0000 0.55030  0.49140  0.06800  Biso   1.000  C
  H28      1.0000 0.58470  0.48630  0.11410  Biso   1.000  H
  Ag3      1.0000 0.73597  0.92324  0.42820  Biso   1.000  Ag
  N11      1.0000 0.57790  0.95800  0.64800  Biso   1.000  N
  N12      1.0000 0.50160  0.53260  0.59300  Biso   1.000  N
  N13      1.0000 0.91770  0.84520  0.65900  Biso   1.000  N
  N14      1.0000 0.66300  0.95100  0.51800  Biso   1.000  N
  N15      1.0000 0.81470  0.88380  0.53800  Biso   1.000  N
  C29      1.0000 0.60980  0.93360  0.48300  Biso   1.000  C
  H29      1.0000 0.60100  0.91680  0.41460  Biso   1.000  H
  C30      1.0000 0.97310  0.59800  0.81900  Biso   1.000  C
  H30      1.0000 0.95020  0.57650  0.86230  Biso   1.000  H
  C31      1.0000 0.84190  0.92300  0.61200  Biso   1.000  C
  H31      1.0000 0.82750  0.96410  0.62270  Biso   1.000  H
  C32      1.0000 0.83340  0.82500  0.52900  Biso   1.000  C
  H32      1.0000 0.81270  0.79610  0.48100  Biso   1.000  H
  C33      1.0000 0.56580  0.93900  0.54700  Biso   1.000  C
  H33      1.0000 0.52780  0.93020  0.51760  Biso   1.000  H
  C34      1.0000 0.88760  0.80400  0.59400  Biso   1.000  C
  H34      1.0000 0.90060  0.76200  0.58910  Biso   1.000  H
  C35      1.0000 0.63100  0.97600  0.68000  Biso   1.000  C
  H35      1.0000 0.64040  0.99010  0.75050  Biso   1.000  H
  C36      1.0000 0.45040  0.52390  0.52800  Biso   1.000  C
  H36      1.0000 0.41620  0.53980  0.54740  Biso   1.000  H
  C37      1.0000 0.52490  0.80010  0.67700  Biso   1.000  C
  H37      1.0000 0.54230  0.82230  0.62600  Biso   1.000  H
  C38      1.0000 0.52330  0.72700  0.68200  Biso   1.000  C
  H38      1.0000 0.54050  0.70320  0.63260  Biso   1.000  H
  C39      1.0000 0.89300  0.90060  0.67500  Biso   1.000  C
  H39      1.0000 0.91010  0.92700  0.73070  Biso   1.000  H
  C40      1.0000 0.67400  0.97600  0.61900  Biso   1.000  C
  H40      1.0000 0.71080  0.99150  0.64610  Biso   1.000  H
  C41      1.0000 0.98030  0.66860  0.82600  Biso   1.000  C
  H41      1.0000 0.97070  0.69060  0.88520  Biso   1.000  H
  C42      1.0000 0.55030  0.50860  0.56800  Biso   1.000  C
  H42      1.0000 0.58470  0.51370  0.61410  Biso   1.000  H
  Ag4      1.0000 0.26403  0.92324  0.07180  Biso   1.000  Ag
  N16      1.0000 0.42210  0.95800  0.85200  Biso   1.000  N
  N17      1.0000 0.49840  0.53260  0.90700  Biso   1.000  N
  N18      1.0000 0.08230  0.84520  0.84100  Biso   1.000  N
  N19      1.0000 0.33700  0.95100  0.98200  Biso   1.000  N
  N20      1.0000 0.18530  0.88380  0.96200  Biso   1.000  N
  C43      1.0000 0.39020  0.93360  0.01700  Biso   1.000  C
  H43      1.0000 0.39900  0.91680  0.08540  Biso   1.000  H
  C44      1.0000 0.02690  0.59800  0.68100  Biso   1.000  C
  H44      1.0000 0.04980  0.57650  0.63770  Biso   1.000  H
  C45      1.0000 0.15810  0.92300  0.88800  Biso   1.000  C
  H45      1.0000 0.17250  0.96410  0.87730  Biso   1.000  H
  C46      1.0000 0.16660  0.82500  0.97100  Biso   1.000  C
  H46      1.0000 0.18730  0.79610  0.01900  Biso   1.000  H
  C47      1.0000 0.43420  0.93900  0.95300  Biso   1.000  C
  H47      1.0000 0.47220  0.93020  0.98240  Biso   1.000  H
  C48      1.0000 0.11240  0.80400  0.90600  Biso   1.000  C
  H48      1.0000 0.09940  0.76200  0.91090  Biso   1.000  H
  C49      1.0000 0.36900  0.97600  0.82000  Biso   1.000  C
  H49      1.0000 0.35960  0.99010  0.74950  Biso   1.000  H
  C50      1.0000 0.54960  0.52390  0.97200  Biso   1.000  C
  H50      1.0000 0.58380  0.53980  0.95260  Biso   1.000  H
  C51      1.0000 0.47510  0.80010  0.82300  Biso   1.000  C
  H51      1.0000 0.45770  0.82230  0.87400  Biso   1.000  H
  C52      1.0000 0.47670  0.72700  0.81800  Biso   1.000  C
  H52      1.0000 0.45950  0.70320  0.86740  Biso   1.000  H
  C53      1.0000 0.10700  0.90060  0.82500  Biso   1.000  C
  H53      1.0000 0.08990  0.92700  0.76930  Biso   1.000  H
  C54      1.0000 0.32600  0.97600  0.88100  Biso   1.000  C
  H54      1.0000 0.28920  0.99150  0.85390  Biso   1.000  H
  C55      1.0000 0.01970  0.66860  0.67400  Biso   1.000  C
  H55      1.0000 0.02930  0.69060  0.61480  Biso   1.000  H
  C56      1.0000 0.44970  0.50860  0.93200  Biso   1.000  C
  H56      1.0000 0.41530  0.51370  0.88590  Biso   1.000  H
  Ag5      1.0000 0.50000  0.41300  0.25000  Biso   1.000  Ag
  Ag6      1.0000 0.50000  0.05440  0.25000  Biso   1.000  Ag
  N21      1.0000 0.50000  0.30300  0.25000  Biso   1.000  N
  N22      1.0000 0.50000  0.17000  0.25000  Biso   1.000  N
  Ag7      1.0000 0.50000  0.58700  0.75000  Biso   1.000  Ag
  Ag8      1.0000 0.50000  0.94560  0.75000  Biso   1.000  Ag
  N23      1.0000 0.50000  0.69700  0.75000  Biso   1.000  N
  N24      1.0000 0.50000  0.83000  0.75000  Biso   1.000  N
  Ag9      1.0000 0.00000  0.18670  0.25000  Biso   1.000  Ag
  N25      1.0000 0.00000  0.43400  0.25000  Biso   1.000  N
  N26      1.0000 0.00000  0.29900  0.25000  Biso   1.000  N
  Ag10     1.0000 0.00000  0.81330  0.75000  Biso   1.000  Ag
  N27      1.0000 0.00000  0.56600  0.75000  Biso   1.000  N
  N28      1.0000 0.00000  0.70100  0.75000  Biso   1.000  N
  Ag11     1.0000 0.76403  0.57676  0.57180  Biso   1.000  Ag
  N29      1.0000 0.92210  0.54200  0.35200  Biso   1.000  N
  N30      1.0000 0.99840  0.96740  0.40700  Biso   1.000  N
  N31      1.0000 0.58230  0.65480  0.34100  Biso   1.000  N
  N32      1.0000 0.83700  0.54900  0.48200  Biso   1.000  N
  N33      1.0000 0.68530  0.61620  0.46200  Biso   1.000  N
  C57      1.0000 0.89020  0.56640  0.51700  Biso   1.000  C
  H57      1.0000 0.89900  0.58320  0.58540  Biso   1.000  H
  C58      1.0000 0.52690  0.90200  0.18100  Biso   1.000  C
  H58      1.0000 0.54980  0.92350  0.13770  Biso   1.000  H
  C59      1.0000 0.65810  0.57700  0.38800  Biso   1.000  C
  H59      1.0000 0.67250  0.53590  0.37730  Biso   1.000  H
  C60      1.0000 0.66660  0.67500  0.47100  Biso   1.000  C
  H60      1.0000 0.68730  0.70390  0.51900  Biso   1.000  H
  C61      1.0000 0.93420  0.56100  0.45300  Biso   1.000  C
  H61      1.0000 0.97220  0.56980  0.48240  Biso   1.000  H
  C62      1.0000 0.61240  0.69600  0.40600  Biso   1.000  C
  H62      1.0000 0.59940  0.73800  0.41090  Biso   1.000  H
  C63      1.0000 0.86900  0.52400  0.32000  Biso   1.000  C
  H63      1.0000 0.85960  0.50990  0.24950  Biso   1.000  H
  C64      1.0000 0.04960  0.97610  0.47200  Biso   1.000  C
  H64      1.0000 0.08380  0.96020  0.45260  Biso   1.000  H
  C65      1.0000 0.97510  0.69990  0.32300  Biso   1.000  C
  H65      1.0000 0.95770  0.67770  0.37400  Biso   1.000  H
  C66      1.0000 0.97670  0.77300  0.31800  Biso   1.000  C
  H66      1.0000 0.95950  0.79680  0.36740  Biso   1.000  H
  C67      1.0000 0.60700  0.59940  0.32500  Biso   1.000  C
  H67      1.0000 0.58990  0.57300  0.26930  Biso   1.000  H
  C68      1.0000 0.82600  0.52400  0.38100  Biso   1.000  C
  H68      1.0000 0.78920  0.50850  0.35390  Biso   1.000  H
  C69      1.0000 0.51970  0.83140  0.17400  Biso   1.000  C
  H69      1.0000 0.52930  0.80940  0.11480  Biso   1.000  H
  C70      1.0000 0.94970  0.99140  0.43200  Biso   1.000  C
  H70      1.0000 0.91530  0.98630  0.38590  Biso   1.000  H
  Ag12     1.0000 0.23597  0.57676  0.92820  Biso   1.000  Ag
  N34      1.0000 0.07790  0.54200  0.14800  Biso   1.000  N
  N35      1.0000 0.00160  0.96740  0.09300  Biso   1.000  N
  N36      1.0000 0.41770  0.65480  0.15900  Biso   1.000  N
  N37      1.0000 0.16300  0.54900  0.01800  Biso   1.000  N
  N38      1.0000 0.31470  0.61620  0.03800  Biso   1.000  N
  C71      1.0000 0.10980  0.56640  0.98300  Biso   1.000  C
  H71      1.0000 0.10100  0.58320  0.91460  Biso   1.000  H
  C72      1.0000 0.47310  0.90200  0.31900  Biso   1.000  C
  H72      1.0000 0.45020  0.92350  0.36230  Biso   1.000  H
  C73      1.0000 0.34190  0.57700  0.11200  Biso   1.000  C
  H73      1.0000 0.32750  0.53590  0.12270  Biso   1.000  H
  C74      1.0000 0.33340  0.67500  0.02900  Biso   1.000  C
  H74      1.0000 0.31270  0.70390  0.98100  Biso   1.000  H
  C75      1.0000 0.06580  0.56100  0.04700  Biso   1.000  C
  H75      1.0000 0.02780  0.56980  0.01760  Biso   1.000  H
  C76      1.0000 0.38760  0.69600  0.09400  Biso   1.000  C
  H76      1.0000 0.40060  0.73800  0.08910  Biso   1.000  H
  C77      1.0000 0.13100  0.52400  0.18000  Biso   1.000  C
  H77      1.0000 0.14040  0.50990  0.25050  Biso   1.000  H
  C78      1.0000 0.95040  0.97610  0.02800  Biso   1.000  C
  H78      1.0000 0.91620  0.96020  0.04740  Biso   1.000  H
  C79      1.0000 0.02490  0.69990  0.17700  Biso   1.000  C
  H79      1.0000 0.04230  0.67770  0.12600  Biso   1.000  H
  C80      1.0000 0.02330  0.77300  0.18200  Biso   1.000  C
  H80      1.0000 0.04050  0.79680  0.13260  Biso   1.000  H
  C81      1.0000 0.39300  0.59940  0.17500  Biso   1.000  C
  H81      1.0000 0.41010  0.57300  0.23070  Biso   1.000  H
  C82      1.0000 0.17400  0.52400  0.11900  Biso   1.000  C
  H82      1.0000 0.21080  0.50850  0.14610  Biso   1.000  H
  C83      1.0000 0.48030  0.83140  0.32600  Biso   1.000  C
  H83      1.0000 0.47070  0.80940  0.38520  Biso   1.000  H
  C84      1.0000 0.05030  0.99140  0.06800  Biso   1.000  C
  H84      1.0000 0.08470  0.98630  0.11410  Biso   1.000  H
  Ag13     1.0000 0.23597  0.42324  0.42820  Biso   1.000  Ag
  N39      1.0000 0.07790  0.45800  0.64800  Biso   1.000  N
  N40      1.0000 0.00160  0.03260  0.59300  Biso   1.000  N
  N41      1.0000 0.41770  0.34520  0.65900  Biso   1.000  N
  N42      1.0000 0.16300  0.45100  0.51800  Biso   1.000  N
  N43      1.0000 0.31470  0.38380  0.53800  Biso   1.000  N
  C85      1.0000 0.10980  0.43360  0.48300  Biso   1.000  C
  H85      1.0000 0.10100  0.41680  0.41460  Biso   1.000  H
  C86      1.0000 0.47310  0.09800  0.81900  Biso   1.000  C
  H86      1.0000 0.45020  0.07650  0.86230  Biso   1.000  H
  C87      1.0000 0.34190  0.42300  0.61200  Biso   1.000  C
  H87      1.0000 0.32750  0.46410  0.62270  Biso   1.000  H
  C88      1.0000 0.33340  0.32500  0.52900  Biso   1.000  C
  H88      1.0000 0.31270  0.29610  0.48100  Biso   1.000  H
  C89      1.0000 0.06580  0.43900  0.54700  Biso   1.000  C
  H89      1.0000 0.02780  0.43020  0.51760  Biso   1.000  H
  C90      1.0000 0.38760  0.30400  0.59400  Biso   1.000  C
  H90      1.0000 0.40060  0.26200  0.58910  Biso   1.000  H
  C91      1.0000 0.13100  0.47600  0.68000  Biso   1.000  C
  H91      1.0000 0.14040  0.49010  0.75050  Biso   1.000  H
  C92      1.0000 0.95040  0.02390  0.52800  Biso   1.000  C
  H92      1.0000 0.91620  0.03980  0.54740  Biso   1.000  H
  C93      1.0000 0.02490  0.30010  0.67700  Biso   1.000  C
  H93      1.0000 0.04230  0.32230  0.62600  Biso   1.000  H
  C94      1.0000 0.02330  0.22700  0.68200  Biso   1.000  C
  H94      1.0000 0.04050  0.20320  0.63260  Biso   1.000  H
  C95      1.0000 0.39300  0.40060  0.67500  Biso   1.000  C
  H95      1.0000 0.41010  0.42700  0.73070  Biso   1.000  H
  C96      1.0000 0.17400  0.47600  0.61900  Biso   1.000  C
  H96      1.0000 0.21080  0.49150  0.64610  Biso   1.000  H
  C97      1.0000 0.48030  0.16860  0.82600  Biso   1.000  C
  H97      1.0000 0.47070  0.19060  0.88520  Biso   1.000  H
  C98      1.0000 0.05030  0.00860  0.56800  Biso   1.000  C
  H98      1.0000 0.08470  0.01370  0.61410  Biso   1.000  H
  Ag14     1.0000 0.76403  0.42324  0.07180  Biso   1.000  Ag
  N44      1.0000 0.92210  0.45800  0.85200  Biso   1.000  N
  N45      1.0000 0.99840  0.03260  0.90700  Biso   1.000  N
  N46      1.0000 0.58230  0.34520  0.84100  Biso   1.000  N
  N47      1.0000 0.83700  0.45100  0.98200  Biso   1.000  N
  N48      1.0000 0.68530  0.38380  0.96200  Biso   1.000  N
  C99      1.0000 0.89020  0.43360  0.01700  Biso   1.000  C
  H99      1.0000 0.89900  0.41680  0.08540  Biso   1.000  H
  C100     1.0000 0.52690  0.09800  0.68100  Biso   1.000  C
  H100     1.0000 0.54980  0.07650  0.63770  Biso   1.000  H
  C101     1.0000 0.65810  0.42300  0.88800  Biso   1.000  C
  H101     1.0000 0.67250  0.46410  0.87730  Biso   1.000  H
  C102     1.0000 0.66660  0.32500  0.97100  Biso   1.000  C
  H102     1.0000 0.68730  0.29610  0.01900  Biso   1.000  H
  C103     1.0000 0.93420  0.43900  0.95300  Biso   1.000  C
  H103     1.0000 0.97220  0.43020  0.98240  Biso   1.000  H
  C104     1.0000 0.61240  0.30400  0.90600  Biso   1.000  C
  H104     1.0000 0.59940  0.26200  0.91090  Biso   1.000  H
  C105     1.0000 0.86900  0.47600  0.82000  Biso   1.000  C
  H105     1.0000 0.85960  0.49010  0.74950  Biso   1.000  H
  C106     1.0000 0.04960  0.02390  0.97200  Biso   1.000  C
  H106     1.0000 0.08380  0.03980  0.95260  Biso   1.000  H
  C107     1.0000 0.97510  0.30010  0.82300  Biso   1.000  C
  H107     1.0000 0.95770  0.32230  0.87400  Biso   1.000  H
  C108     1.0000 0.97670  0.22700  0.81800  Biso   1.000  C
  H108     1.0000 0.95950  0.20320  0.86740  Biso   1.000  H
  C109     1.0000 0.60700  0.40060  0.82500  Biso   1.000  C
  H109     1.0000 0.58990  0.42700  0.76930  Biso   1.000  H
  C110     1.0000 0.82600  0.47600  0.88100  Biso   1.000  C
  H110     1.0000 0.78920  0.49150  0.85390  Biso   1.000  H
  C111     1.0000 0.51970  0.16860  0.67400  Biso   1.000  C
  H111     1.0000 0.52930  0.19060  0.61480  Biso   1.000  H
  C112     1.0000 0.94970  0.00860  0.93200  Biso   1.000  C
  H112     1.0000 0.91530  0.01370  0.88590  Biso   1.000  H
  Ag15     1.0000 0.00000  0.91300  0.25000  Biso   1.000  Ag
  Ag16     1.0000 0.00000  0.55440  0.25000  Biso   1.000  Ag
  N49      1.0000 0.00000  0.80300  0.25000  Biso   1.000  N
  N50      1.0000 0.00000  0.67000  0.25000  Biso   1.000  N
  Ag17     1.0000 0.00000  0.08700  0.75000  Biso   1.000  Ag
  Ag18     1.0000 0.00000  0.44560  0.75000  Biso   1.000  Ag
  N51      1.0000 0.00000  0.19700  0.75000  Biso   1.000  N
  N52      1.0000 0.00000  0.33000  0.75000  Biso   1.000  N
  Ag19     1.0000 0.50000  0.68670  0.25000  Biso   1.000  Ag
  N53      1.0000 0.50000  0.93400  0.25000  Biso   1.000  N
  N54      1.0000 0.50000  0.79900  0.25000  Biso   1.000  N
  Ag20     1.0000 0.50000  0.31330  0.75000  Biso   1.000  Ag
  N55      1.0000 0.50000  0.06600  0.75000  Biso   1.000  N
  N56      1.0000 0.50000  0.20100  0.75000  Biso   1.000  N
