data_image0
_cell_length_a       10.8778
_cell_length_b       15.1518
_cell_length_c       11.6221
_cell_angle_alpha    90
_cell_angle_beta     96.249
_cell_angle_gamma    90

_symmetry_space_group_name_H-M    "P 1"
_symmetry_int_tables_number       1

loop_
  _symmetry_equiv_pos_as_xyz
  'x, y, z'

loop_
  _atom_site_label
  _atom_site_occupancy
  _atom_site_fract_x
  _atom_site_fract_y
  _atom_site_fract_z
  _atom_site_thermal_displace_type
  _atom_site_B_iso_or_equiv
  _atom_site_type_symbol
  Zn1      1.0000 0.25483  0.01240  0.49878  Biso   1.000  Zn
  C1       1.0000 0.41020  0.17550  0.26230  Biso   1.000  C
  C2       1.0000 0.53640  0.16990  0.29820  Biso   1.000  C
  C3       1.0000 0.61760  0.22260  0.24510  Biso   1.000  C
  H1       1.0000 0.70190  0.21740  0.26810  Biso   1.000  H
  C4       1.0000 0.57850  0.28280  0.15900  Biso   1.000  C
  C5       1.0000 0.45140  0.28930  0.12490  Biso   1.000  C
  C6       1.0000 0.37000  0.23520  0.17440  Biso   1.000  C
  H2       1.0000 0.28610  0.23850  0.14880  Biso   1.000  H
  C7       1.0000 0.31500  0.12180  0.31590  Biso   1.000  C
  C8       1.0000 0.59200  0.11440  0.39950  Biso   1.000  C
  C9       1.0000 0.67170  0.34180  0.11190  Biso   1.000  C
  C10      1.0000 0.39530  0.35560  0.03730  Biso   1.000  C
  O1       1.0000 0.35770  0.06210  0.38760  Biso   1.000  O
  O2       1.0000 0.20450  0.13770  0.29080  Biso   1.000  O
  O3       1.0000 0.63560  0.03970  0.37360  Biso   1.000  O
  O4       1.0000 0.60090  0.14740  0.49710  Biso   1.000  O
  O5       1.0000 0.63060  0.41200  0.06300  Biso   1.000  O
  O6       1.0000 0.78140  0.32100  0.12360  Biso   1.000  O
  O7       1.0000 0.35750  0.42590  0.08380  Biso   1.000  O
  O8       1.0000 0.38180  0.33740  0.93400  Biso   1.000  O
  Zn2      1.0000 0.24517  0.51240  0.00122  Biso   1.000  Zn
  C11      1.0000 0.08980  0.67550  0.23770  Biso   1.000  C
  C12      1.0000 0.96360  0.66990  0.20180  Biso   1.000  C
  C13      1.0000 0.88240  0.72260  0.25490  Biso   1.000  C
  H3       1.0000 0.79810  0.71740  0.23190  Biso   1.000  H
  C14      1.0000 0.92150  0.78280  0.34100  Biso   1.000  C
  C15      1.0000 0.04860  0.78930  0.37510  Biso   1.000  C
  C16      1.0000 0.13000  0.73520  0.32560  Biso   1.000  C
  H4       1.0000 0.21390  0.73850  0.35120  Biso   1.000  H
  C17      1.0000 0.18500  0.62180  0.18410  Biso   1.000  C
  C18      1.0000 0.90800  0.61440  0.10050  Biso   1.000  C
  C19      1.0000 0.82830  0.84180  0.38810  Biso   1.000  C
  C20      1.0000 0.10470  0.85560  0.46270  Biso   1.000  C
  O9       1.0000 0.14230  0.56210  0.11240  Biso   1.000  O
  O10      1.0000 0.29550  0.63770  0.20920  Biso   1.000  O
  O11      1.0000 0.86440  0.53970  0.12640  Biso   1.000  O
  O12      1.0000 0.89910  0.64740  0.00290  Biso   1.000  O
  O13      1.0000 0.86940  0.91200  0.43700  Biso   1.000  O
  O14      1.0000 0.71860  0.82100  0.37640  Biso   1.000  O
  O15      1.0000 0.14250  0.92590  0.41620  Biso   1.000  O
  O16      1.0000 0.11820  0.83740  0.56600  Biso   1.000  O
  Zn3      1.0000 0.74517  0.98760  0.50122  Biso   1.000  Zn
  C21      1.0000 0.58980  0.82450  0.73770  Biso   1.000  C
  C22      1.0000 0.46360  0.83010  0.70180  Biso   1.000  C
  C23      1.0000 0.38240  0.77740  0.75490  Biso   1.000  C
  H5       1.0000 0.29810  0.78260  0.73190  Biso   1.000  H
  C24      1.0000 0.42150  0.71720  0.84100  Biso   1.000  C
  C25      1.0000 0.54860  0.71070  0.87510  Biso   1.000  C
  C26      1.0000 0.63000  0.76480  0.82560  Biso   1.000  C
  H6       1.0000 0.71390  0.76150  0.85120  Biso   1.000  H
  C27      1.0000 0.68500  0.87820  0.68410  Biso   1.000  C
  C28      1.0000 0.40800  0.88560  0.60050  Biso   1.000  C
  C29      1.0000 0.32830  0.65820  0.88810  Biso   1.000  C
  C30      1.0000 0.60470  0.64440  0.96270  Biso   1.000  C
  O17      1.0000 0.64230  0.93790  0.61240  Biso   1.000  O
  O18      1.0000 0.79550  0.86230  0.70920  Biso   1.000  O
  O19      1.0000 0.36440  0.96030  0.62640  Biso   1.000  O
  O20      1.0000 0.39910  0.85260  0.50290  Biso   1.000  O
  O21      1.0000 0.36940  0.58800  0.93700  Biso   1.000  O
  O22      1.0000 0.21860  0.67900  0.87640  Biso   1.000  O
  O23      1.0000 0.64250  0.57410  0.91620  Biso   1.000  O
  O24      1.0000 0.61820  0.66260  0.06600  Biso   1.000  O
  Zn4      1.0000 0.75483  0.48760  0.99878  Biso   1.000  Zn
  C31      1.0000 0.91020  0.32450  0.76230  Biso   1.000  C
  C32      1.0000 0.03640  0.33010  0.79820  Biso   1.000  C
  C33      1.0000 0.11760  0.27740  0.74510  Biso   1.000  C
  H7       1.0000 0.20190  0.28260  0.76810  Biso   1.000  H
  C34      1.0000 0.07850  0.21720  0.65900  Biso   1.000  C
  C35      1.0000 0.95140  0.21070  0.62490  Biso   1.000  C
  C36      1.0000 0.87000  0.26480  0.67440  Biso   1.000  C
  H8       1.0000 0.78610  0.26150  0.64880  Biso   1.000  H
  C37      1.0000 0.81500  0.37820  0.81590  Biso   1.000  C
  C38      1.0000 0.09200  0.38560  0.89950  Biso   1.000  C
  C39      1.0000 0.17170  0.15820  0.61190  Biso   1.000  C
  C40      1.0000 0.89530  0.14440  0.53730  Biso   1.000  C
  O25      1.0000 0.85770  0.43790  0.88760  Biso   1.000  O
  O26      1.0000 0.70450  0.36230  0.79080  Biso   1.000  O
  O27      1.0000 0.13560  0.46030  0.87360  Biso   1.000  O
  O28      1.0000 0.10090  0.35260  0.99710  Biso   1.000  O
  O29      1.0000 0.13060  0.08800  0.56300  Biso   1.000  O
  O30      1.0000 0.28140  0.17900  0.62360  Biso   1.000  O
  O31      1.0000 0.85750  0.07410  0.58380  Biso   1.000  O
  O32      1.0000 0.88180  0.16260  0.43400  Biso   1.000  O
