data_image0
_cell_length_a       26.865
_cell_length_b       12.937
_cell_length_c       23.858
_cell_angle_alpha    90
_cell_angle_beta     109.571
_cell_angle_gamma    90

_symmetry_space_group_name_H-M    "P 1"
_symmetry_int_tables_number       1

loop_
  _symmetry_equiv_pos_as_xyz
  'x, y, z'

loop_
  _atom_site_label
  _atom_site_occupancy
  _atom_site_fract_x
  _atom_site_fract_y
  _atom_site_fract_z
  _atom_site_thermal_displace_type
  _atom_site_B_iso_or_equiv
  _atom_site_type_symbol
  C1       1.0000 0.11550  0.15360  0.77830  Biso   1.000  C
  N1       1.0000 0.74038  0.52020  0.75730  Biso   1.000  N
  C2       1.0000 0.76770  0.60350  0.78490  Biso   1.000  C
  H1       1.0000 0.74960  0.66570  0.78260  Biso   1.000  H
  C3       1.0000 0.76700  0.43170  0.76130  Biso   1.000  C
  H2       1.0000 0.74880  0.37350  0.74230  Biso   1.000  H
  Cd1      1.0000 0.15225  0.96753  0.20671  Biso   1.000  Cd
  N2       1.0000 0.01608  0.50010  0.90860  Biso   1.000  N
  C4       1.0000 0.01555  0.64550  0.97050  Biso   1.000  C
  C5       1.0000 0.98628  0.57080  0.92360  Biso   1.000  C
  C6       1.0000 0.90605  0.50500  0.85170  Biso   1.000  C
  C7       1.0000 0.93144  0.57510  0.89650  Biso   1.000  C
  H3       1.0000 0.91190  0.62460  0.90830  Biso   1.000  H
  C8       1.0000 0.10230  0.85530  0.10760  Biso   1.000  C
  C9       1.0000 0.00970  0.25370  0.83570  Biso   1.000  C
  H4       1.0000 0.97810  0.23040  0.83920  Biso   1.000  H
  C10      1.0000 0.06680  0.62220  0.00690  Biso   1.000  C
  H5       1.0000 0.08230  0.56040  0.00170  Biso   1.000  H
  C11      1.0000 0.99370  0.74010  0.97820  Biso   1.000  C
  H6       1.0000 0.95980  0.75730  0.95370  Biso   1.000  H
  C12      1.0000 0.93744  0.43120  0.83770  Biso   1.000  C
  H7       1.0000 0.92230  0.38180  0.80860  Biso   1.000  H
  C13      1.0000 0.09500  0.69050  0.05090  Biso   1.000  C
  H8       1.0000 0.12900  0.67380  0.07530  Biso   1.000  H
  C14      1.0000 0.99164  0.43160  0.86740  Biso   1.000  C
  C15      1.0000 0.84852  0.51000  0.82070  Biso   1.000  C
  C16      1.0000 0.07260  0.78330  0.05870  Biso   1.000  C
  C17      1.0000 0.82010  0.60130  0.81600  Biso   1.000  C
  H9       1.0000 0.83720  0.66110  0.83420  Biso   1.000  H
  C18      1.0000 0.82011  0.42300  0.79230  Biso   1.000  C
  H10      1.0000 0.83710  0.35970  0.79440  Biso   1.000  H
  C19      1.0000 0.02170  0.80830  0.02150  Biso   1.000  C
  H11      1.0000 0.00670  0.87120  0.02610  Biso   1.000  H
  C20      1.0000 0.08660  0.22070  0.80900  Biso   1.000  C
  C21      1.0000 0.07420  0.38710  0.84680  Biso   1.000  C
  H12      1.0000 0.08630  0.45360  0.85870  Biso   1.000  H
  C22      1.0000 0.02609  0.35470  0.85070  Biso   1.000  C
  C23      1.0000 0.10380  0.32060  0.82540  Biso   1.000  C
  H13      1.0000 0.13560  0.34300  0.82210  Biso   1.000  H
  C24      1.0000 0.04040  0.18800  0.81570  Biso   1.000  C
  H14      1.0000 0.02960  0.12000  0.80650  Biso   1.000  H
  O1       1.0000 0.14578  0.82820  0.14210  Biso   1.000  O
  O2       1.0000 0.08154  0.94180  0.11240  Biso   1.000  O
  O3       1.0000 0.15635  0.18590  0.77230  Biso   1.000  O
  O4       1.0000 0.09510  0.06990  0.75680  Biso   1.000  O
  C25      1.0000 0.61550  0.65360  0.77830  Biso   1.000  C
  N3       1.0000 0.24038  0.02020  0.75730  Biso   1.000  N
  C26      1.0000 0.26770  0.10350  0.78490  Biso   1.000  C
  H15      1.0000 0.24960  0.16570  0.78260  Biso   1.000  H
  C27      1.0000 0.26700  0.93170  0.76130  Biso   1.000  C
  H16      1.0000 0.24880  0.87350  0.74230  Biso   1.000  H
  Cd2      1.0000 0.65225  0.46753  0.20671  Biso   1.000  Cd
  N4       1.0000 0.51608  0.00010  0.90860  Biso   1.000  N
  C28      1.0000 0.51555  0.14550  0.97050  Biso   1.000  C
  C29      1.0000 0.48628  0.07080  0.92360  Biso   1.000  C
  C30      1.0000 0.40605  0.00500  0.85170  Biso   1.000  C
  C31      1.0000 0.43144  0.07510  0.89650  Biso   1.000  C
  H17      1.0000 0.41190  0.12460  0.90830  Biso   1.000  H
  C32      1.0000 0.60230  0.35530  0.10760  Biso   1.000  C
  C33      1.0000 0.50970  0.75370  0.83570  Biso   1.000  C
  H18      1.0000 0.47810  0.73040  0.83920  Biso   1.000  H
  C34      1.0000 0.56680  0.12220  0.00690  Biso   1.000  C
  H19      1.0000 0.58230  0.06040  0.00170  Biso   1.000  H
  C35      1.0000 0.49370  0.24010  0.97820  Biso   1.000  C
  H20      1.0000 0.45980  0.25730  0.95370  Biso   1.000  H
  C36      1.0000 0.43744  0.93120  0.83770  Biso   1.000  C
  H21      1.0000 0.42230  0.88180  0.80860  Biso   1.000  H
  C37      1.0000 0.59500  0.19050  0.05090  Biso   1.000  C
  H22      1.0000 0.62900  0.17380  0.07530  Biso   1.000  H
  C38      1.0000 0.49164  0.93160  0.86740  Biso   1.000  C
  C39      1.0000 0.34852  0.01000  0.82070  Biso   1.000  C
  C40      1.0000 0.57260  0.28330  0.05870  Biso   1.000  C
  C41      1.0000 0.32010  0.10130  0.81600  Biso   1.000  C
  H23      1.0000 0.33720  0.16110  0.83420  Biso   1.000  H
  C42      1.0000 0.32011  0.92300  0.79230  Biso   1.000  C
  H24      1.0000 0.33710  0.85970  0.79440  Biso   1.000  H
  C43      1.0000 0.52170  0.30830  0.02150  Biso   1.000  C
  H25      1.0000 0.50670  0.37120  0.02610  Biso   1.000  H
  C44      1.0000 0.58660  0.72070  0.80900  Biso   1.000  C
  C45      1.0000 0.57420  0.88710  0.84680  Biso   1.000  C
  H26      1.0000 0.58630  0.95360  0.85870  Biso   1.000  H
  C46      1.0000 0.52609  0.85470  0.85070  Biso   1.000  C
  C47      1.0000 0.60380  0.82060  0.82540  Biso   1.000  C
  H27      1.0000 0.63560  0.84300  0.82210  Biso   1.000  H
  C48      1.0000 0.54040  0.68800  0.81570  Biso   1.000  C
  H28      1.0000 0.52960  0.62000  0.80650  Biso   1.000  H
  O5       1.0000 0.64578  0.32820  0.14210  Biso   1.000  O
  O6       1.0000 0.58154  0.44180  0.11240  Biso   1.000  O
  O7       1.0000 0.65635  0.68590  0.77230  Biso   1.000  O
  O8       1.0000 0.59510  0.56990  0.75680  Biso   1.000  O
  C49      1.0000 0.11550  0.84640  0.27830  Biso   1.000  C
  N5       1.0000 0.74038  0.47980  0.25730  Biso   1.000  N
  C50      1.0000 0.76770  0.39650  0.28490  Biso   1.000  C
  H29      1.0000 0.74960  0.33430  0.28260  Biso   1.000  H
  C51      1.0000 0.76700  0.56830  0.26130  Biso   1.000  C
  H30      1.0000 0.74880  0.62650  0.24230  Biso   1.000  H
  Cd3      1.0000 0.15225  0.03247  0.70671  Biso   1.000  Cd
  N6       1.0000 0.01608  0.49990  0.40860  Biso   1.000  N
  C52      1.0000 0.01555  0.35450  0.47050  Biso   1.000  C
  C53      1.0000 0.98628  0.42920  0.42360  Biso   1.000  C
  C54      1.0000 0.90605  0.49500  0.35170  Biso   1.000  C
  C55      1.0000 0.93144  0.42490  0.39650  Biso   1.000  C
  H31      1.0000 0.91190  0.37540  0.40830  Biso   1.000  H
  C56      1.0000 0.10230  0.14470  0.60760  Biso   1.000  C
  C57      1.0000 0.00970  0.74630  0.33570  Biso   1.000  C
  H32      1.0000 0.97810  0.76960  0.33920  Biso   1.000  H
  C58      1.0000 0.06680  0.37780  0.50690  Biso   1.000  C
  H33      1.0000 0.08230  0.43960  0.50170  Biso   1.000  H
  C59      1.0000 0.99370  0.25990  0.47820  Biso   1.000  C
  H34      1.0000 0.95980  0.24270  0.45370  Biso   1.000  H
  C60      1.0000 0.93744  0.56880  0.33770  Biso   1.000  C
  H35      1.0000 0.92230  0.61820  0.30860  Biso   1.000  H
  C61      1.0000 0.09500  0.30950  0.55090  Biso   1.000  C
  H36      1.0000 0.12900  0.32620  0.57530  Biso   1.000  H
  C62      1.0000 0.99164  0.56840  0.36740  Biso   1.000  C
  C63      1.0000 0.84852  0.49000  0.32070  Biso   1.000  C
  C64      1.0000 0.07260  0.21670  0.55870  Biso   1.000  C
  C65      1.0000 0.82010  0.39870  0.31600  Biso   1.000  C
  H37      1.0000 0.83720  0.33890  0.33420  Biso   1.000  H
  C66      1.0000 0.82011  0.57700  0.29230  Biso   1.000  C
  H38      1.0000 0.83710  0.64030  0.29440  Biso   1.000  H
  C67      1.0000 0.02170  0.19170  0.52150  Biso   1.000  C
  H39      1.0000 0.00670  0.12880  0.52610  Biso   1.000  H
  C68      1.0000 0.08660  0.77930  0.30900  Biso   1.000  C
  C69      1.0000 0.07420  0.61290  0.34680  Biso   1.000  C
  H40      1.0000 0.08630  0.54640  0.35870  Biso   1.000  H
  C70      1.0000 0.02609  0.64530  0.35070  Biso   1.000  C
  C71      1.0000 0.10380  0.67940  0.32540  Biso   1.000  C
  H41      1.0000 0.13560  0.65700  0.32210  Biso   1.000  H
  C72      1.0000 0.04040  0.81200  0.31570  Biso   1.000  C
  H42      1.0000 0.02960  0.88000  0.30650  Biso   1.000  H
  O9       1.0000 0.14578  0.17180  0.64210  Biso   1.000  O
  O10      1.0000 0.08154  0.05820  0.61240  Biso   1.000  O
  O11      1.0000 0.15635  0.81410  0.27230  Biso   1.000  O
  O12      1.0000 0.09510  0.93010  0.25680  Biso   1.000  O
  C73      1.0000 0.61550  0.34640  0.27830  Biso   1.000  C
  N7       1.0000 0.24038  0.97980  0.25730  Biso   1.000  N
  C74      1.0000 0.26770  0.89650  0.28490  Biso   1.000  C
  H43      1.0000 0.24960  0.83430  0.28260  Biso   1.000  H
  C75      1.0000 0.26700  0.06830  0.26130  Biso   1.000  C
  H44      1.0000 0.24880  0.12650  0.24230  Biso   1.000  H
  Cd4      1.0000 0.65225  0.53247  0.70671  Biso   1.000  Cd
  N8       1.0000 0.51608  0.99990  0.40860  Biso   1.000  N
  C76      1.0000 0.51555  0.85450  0.47050  Biso   1.000  C
  C77      1.0000 0.48628  0.92920  0.42360  Biso   1.000  C
  C78      1.0000 0.40605  0.99500  0.35170  Biso   1.000  C
  C79      1.0000 0.43144  0.92490  0.39650  Biso   1.000  C
  H45      1.0000 0.41190  0.87540  0.40830  Biso   1.000  H
  C80      1.0000 0.60230  0.64470  0.60760  Biso   1.000  C
  C81      1.0000 0.50970  0.24630  0.33570  Biso   1.000  C
  H46      1.0000 0.47810  0.26960  0.33920  Biso   1.000  H
  C82      1.0000 0.56680  0.87780  0.50690  Biso   1.000  C
  H47      1.0000 0.58230  0.93960  0.50170  Biso   1.000  H
  C83      1.0000 0.49370  0.75990  0.47820  Biso   1.000  C
  H48      1.0000 0.45980  0.74270  0.45370  Biso   1.000  H
  C84      1.0000 0.43744  0.06880  0.33770  Biso   1.000  C
  H49      1.0000 0.42230  0.11820  0.30860  Biso   1.000  H
  C85      1.0000 0.59500  0.80950  0.55090  Biso   1.000  C
  H50      1.0000 0.62900  0.82620  0.57530  Biso   1.000  H
  C86      1.0000 0.49164  0.06840  0.36740  Biso   1.000  C
  C87      1.0000 0.34852  0.99000  0.32070  Biso   1.000  C
  C88      1.0000 0.57260  0.71670  0.55870  Biso   1.000  C
  C89      1.0000 0.32010  0.89870  0.31600  Biso   1.000  C
  H51      1.0000 0.33720  0.83890  0.33420  Biso   1.000  H
  C90      1.0000 0.32011  0.07700  0.29230  Biso   1.000  C
  H52      1.0000 0.33710  0.14030  0.29440  Biso   1.000  H
  C91      1.0000 0.52170  0.69170  0.52150  Biso   1.000  C
  H53      1.0000 0.50670  0.62880  0.52610  Biso   1.000  H
  C92      1.0000 0.58660  0.27930  0.30900  Biso   1.000  C
  C93      1.0000 0.57420  0.11290  0.34680  Biso   1.000  C
  H54      1.0000 0.58630  0.04640  0.35870  Biso   1.000  H
  C94      1.0000 0.52609  0.14530  0.35070  Biso   1.000  C
  C95      1.0000 0.60380  0.17940  0.32540  Biso   1.000  C
  H55      1.0000 0.63560  0.15700  0.32210  Biso   1.000  H
  C96      1.0000 0.54040  0.31200  0.31570  Biso   1.000  C
  H56      1.0000 0.52960  0.38000  0.30650  Biso   1.000  H
  O13      1.0000 0.64578  0.67180  0.64210  Biso   1.000  O
  O14      1.0000 0.58154  0.55820  0.61240  Biso   1.000  O
  O15      1.0000 0.65635  0.31410  0.27230  Biso   1.000  O
  O16      1.0000 0.59510  0.43010  0.25680  Biso   1.000  O
  C97      1.0000 0.88450  0.15360  0.72170  Biso   1.000  C
  N9       1.0000 0.25962  0.52020  0.74270  Biso   1.000  N
  C98      1.0000 0.23230  0.60350  0.71510  Biso   1.000  C
  H57      1.0000 0.25040  0.66570  0.71740  Biso   1.000  H
  C99      1.0000 0.23300  0.43170  0.73870  Biso   1.000  C
  H58      1.0000 0.25120  0.37350  0.75770  Biso   1.000  H
  Cd5      1.0000 0.84775  0.96753  0.29329  Biso   1.000  Cd
  N10      1.0000 0.98392  0.50010  0.59140  Biso   1.000  N
  C100     1.0000 0.98445  0.64550  0.52950  Biso   1.000  C
  C101     1.0000 0.01372  0.57080  0.57640  Biso   1.000  C
  C102     1.0000 0.09395  0.50500  0.64830  Biso   1.000  C
  C103     1.0000 0.06856  0.57510  0.60350  Biso   1.000  C
  H59      1.0000 0.08810  0.62460  0.59170  Biso   1.000  H
  C104     1.0000 0.89770  0.85530  0.39240  Biso   1.000  C
  C105     1.0000 0.99030  0.25370  0.66430  Biso   1.000  C
  H60      1.0000 0.02190  0.23040  0.66080  Biso   1.000  H
  C106     1.0000 0.93320  0.62220  0.49310  Biso   1.000  C
  H61      1.0000 0.91770  0.56040  0.49830  Biso   1.000  H
  C107     1.0000 0.00630  0.74010  0.52180  Biso   1.000  C
  H62      1.0000 0.04020  0.75730  0.54630  Biso   1.000  H
  C108     1.0000 0.06256  0.43120  0.66230  Biso   1.000  C
  H63      1.0000 0.07770  0.38180  0.69140  Biso   1.000  H
  C109     1.0000 0.90500  0.69050  0.44910  Biso   1.000  C
  H64      1.0000 0.87100  0.67380  0.42470  Biso   1.000  H
  C110     1.0000 0.00836  0.43160  0.63260  Biso   1.000  C
  C111     1.0000 0.15148  0.51000  0.67930  Biso   1.000  C
  C112     1.0000 0.92740  0.78330  0.44130  Biso   1.000  C
  C113     1.0000 0.17990  0.60130  0.68400  Biso   1.000  C
  H65      1.0000 0.16280  0.66110  0.66580  Biso   1.000  H
  C114     1.0000 0.17989  0.42300  0.70770  Biso   1.000  C
  H66      1.0000 0.16290  0.35970  0.70560  Biso   1.000  H
  C115     1.0000 0.97830  0.80830  0.47850  Biso   1.000  C
  H67      1.0000 0.99330  0.87120  0.47390  Biso   1.000  H
  C116     1.0000 0.91340  0.22070  0.69100  Biso   1.000  C
  C117     1.0000 0.92580  0.38710  0.65320  Biso   1.000  C
  H68      1.0000 0.91370  0.45360  0.64130  Biso   1.000  H
  C118     1.0000 0.97391  0.35470  0.64930  Biso   1.000  C
  C119     1.0000 0.89620  0.32060  0.67460  Biso   1.000  C
  H69      1.0000 0.86440  0.34300  0.67790  Biso   1.000  H
  C120     1.0000 0.95960  0.18800  0.68430  Biso   1.000  C
  H70      1.0000 0.97040  0.12000  0.69350  Biso   1.000  H
  O17      1.0000 0.85422  0.82820  0.35790  Biso   1.000  O
  O18      1.0000 0.91846  0.94180  0.38760  Biso   1.000  O
  O19      1.0000 0.84365  0.18590  0.72770  Biso   1.000  O
  O20      1.0000 0.90490  0.06990  0.74320  Biso   1.000  O
  C121     1.0000 0.38450  0.65360  0.72170  Biso   1.000  C
  N11      1.0000 0.75962  0.02020  0.74270  Biso   1.000  N
  C122     1.0000 0.73230  0.10350  0.71510  Biso   1.000  C
  H71      1.0000 0.75040  0.16570  0.71740  Biso   1.000  H
  C123     1.0000 0.73300  0.93170  0.73870  Biso   1.000  C
  H72      1.0000 0.75120  0.87350  0.75770  Biso   1.000  H
  Cd6      1.0000 0.34775  0.46753  0.29329  Biso   1.000  Cd
  N12      1.0000 0.48392  0.00010  0.59140  Biso   1.000  N
  C124     1.0000 0.48445  0.14550  0.52950  Biso   1.000  C
  C125     1.0000 0.51372  0.07080  0.57640  Biso   1.000  C
  C126     1.0000 0.59395  0.00500  0.64830  Biso   1.000  C
  C127     1.0000 0.56856  0.07510  0.60350  Biso   1.000  C
  H73      1.0000 0.58810  0.12460  0.59170  Biso   1.000  H
  C128     1.0000 0.39770  0.35530  0.39240  Biso   1.000  C
  C129     1.0000 0.49030  0.75370  0.66430  Biso   1.000  C
  H74      1.0000 0.52190  0.73040  0.66080  Biso   1.000  H
  C130     1.0000 0.43320  0.12220  0.49310  Biso   1.000  C
  H75      1.0000 0.41770  0.06040  0.49830  Biso   1.000  H
  C131     1.0000 0.50630  0.24010  0.52180  Biso   1.000  C
  H76      1.0000 0.54020  0.25730  0.54630  Biso   1.000  H
  C132     1.0000 0.56256  0.93120  0.66230  Biso   1.000  C
  H77      1.0000 0.57770  0.88180  0.69140  Biso   1.000  H
  C133     1.0000 0.40500  0.19050  0.44910  Biso   1.000  C
  H78      1.0000 0.37100  0.17380  0.42470  Biso   1.000  H
  C134     1.0000 0.50836  0.93160  0.63260  Biso   1.000  C
  C135     1.0000 0.65148  0.01000  0.67930  Biso   1.000  C
  C136     1.0000 0.42740  0.28330  0.44130  Biso   1.000  C
  C137     1.0000 0.67990  0.10130  0.68400  Biso   1.000  C
  H79      1.0000 0.66280  0.16110  0.66580  Biso   1.000  H
  C138     1.0000 0.67989  0.92300  0.70770  Biso   1.000  C
  H80      1.0000 0.66290  0.85970  0.70560  Biso   1.000  H
  C139     1.0000 0.47830  0.30830  0.47850  Biso   1.000  C
  H81      1.0000 0.49330  0.37120  0.47390  Biso   1.000  H
  C140     1.0000 0.41340  0.72070  0.69100  Biso   1.000  C
  C141     1.0000 0.42580  0.88710  0.65320  Biso   1.000  C
  H82      1.0000 0.41370  0.95360  0.64130  Biso   1.000  H
  C142     1.0000 0.47391  0.85470  0.64930  Biso   1.000  C
  C143     1.0000 0.39620  0.82060  0.67460  Biso   1.000  C
  H83      1.0000 0.36440  0.84300  0.67790  Biso   1.000  H
  C144     1.0000 0.45960  0.68800  0.68430  Biso   1.000  C
  H84      1.0000 0.47040  0.62000  0.69350  Biso   1.000  H
  O21      1.0000 0.35422  0.32820  0.35790  Biso   1.000  O
  O22      1.0000 0.41846  0.44180  0.38760  Biso   1.000  O
  O23      1.0000 0.34365  0.68590  0.72770  Biso   1.000  O
  O24      1.0000 0.40490  0.56990  0.74320  Biso   1.000  O
  C145     1.0000 0.88450  0.84640  0.22170  Biso   1.000  C
  N13      1.0000 0.25962  0.47980  0.24270  Biso   1.000  N
  C146     1.0000 0.23230  0.39650  0.21510  Biso   1.000  C
  H85      1.0000 0.25040  0.33430  0.21740  Biso   1.000  H
  C147     1.0000 0.23300  0.56830  0.23870  Biso   1.000  C
  H86      1.0000 0.25120  0.62650  0.25770  Biso   1.000  H
  Cd7      1.0000 0.84775  0.03247  0.79329  Biso   1.000  Cd
  N14      1.0000 0.98392  0.49990  0.09140  Biso   1.000  N
  C148     1.0000 0.98445  0.35450  0.02950  Biso   1.000  C
  C149     1.0000 0.01372  0.42920  0.07640  Biso   1.000  C
  C150     1.0000 0.09395  0.49500  0.14830  Biso   1.000  C
  C151     1.0000 0.06856  0.42490  0.10350  Biso   1.000  C
  H87      1.0000 0.08810  0.37540  0.09170  Biso   1.000  H
  C152     1.0000 0.89770  0.14470  0.89240  Biso   1.000  C
  C153     1.0000 0.99030  0.74630  0.16430  Biso   1.000  C
  H88      1.0000 0.02190  0.76960  0.16080  Biso   1.000  H
  C154     1.0000 0.93320  0.37780  0.99310  Biso   1.000  C
  H89      1.0000 0.91770  0.43960  0.99830  Biso   1.000  H
  C155     1.0000 0.00630  0.25990  0.02180  Biso   1.000  C
  H90      1.0000 0.04020  0.24270  0.04630  Biso   1.000  H
  C156     1.0000 0.06256  0.56880  0.16230  Biso   1.000  C
  H91      1.0000 0.07770  0.61820  0.19140  Biso   1.000  H
  C157     1.0000 0.90500  0.30950  0.94910  Biso   1.000  C
  H92      1.0000 0.87100  0.32620  0.92470  Biso   1.000  H
  C158     1.0000 0.00836  0.56840  0.13260  Biso   1.000  C
  C159     1.0000 0.15148  0.49000  0.17930  Biso   1.000  C
  C160     1.0000 0.92740  0.21670  0.94130  Biso   1.000  C
  C161     1.0000 0.17990  0.39870  0.18400  Biso   1.000  C
  H93      1.0000 0.16280  0.33890  0.16580  Biso   1.000  H
  C162     1.0000 0.17989  0.57700  0.20770  Biso   1.000  C
  H94      1.0000 0.16290  0.64030  0.20560  Biso   1.000  H
  C163     1.0000 0.97830  0.19170  0.97850  Biso   1.000  C
  H95      1.0000 0.99330  0.12880  0.97390  Biso   1.000  H
  C164     1.0000 0.91340  0.77930  0.19100  Biso   1.000  C
  C165     1.0000 0.92580  0.61290  0.15320  Biso   1.000  C
  H96      1.0000 0.91370  0.54640  0.14130  Biso   1.000  H
  C166     1.0000 0.97391  0.64530  0.14930  Biso   1.000  C
  C167     1.0000 0.89620  0.67940  0.17460  Biso   1.000  C
  H97      1.0000 0.86440  0.65700  0.17790  Biso   1.000  H
  C168     1.0000 0.95960  0.81200  0.18430  Biso   1.000  C
  H98      1.0000 0.97040  0.88000  0.19350  Biso   1.000  H
  O25      1.0000 0.85422  0.17180  0.85790  Biso   1.000  O
  O26      1.0000 0.91846  0.05820  0.88760  Biso   1.000  O
  O27      1.0000 0.84365  0.81410  0.22770  Biso   1.000  O
  O28      1.0000 0.90490  0.93010  0.24320  Biso   1.000  O
  C169     1.0000 0.38450  0.34640  0.22170  Biso   1.000  C
  N15      1.0000 0.75962  0.97980  0.24270  Biso   1.000  N
  C170     1.0000 0.73230  0.89650  0.21510  Biso   1.000  C
  H99      1.0000 0.75040  0.83430  0.21740  Biso   1.000  H
  C171     1.0000 0.73300  0.06830  0.23870  Biso   1.000  C
  H100     1.0000 0.75120  0.12650  0.25770  Biso   1.000  H
  Cd8      1.0000 0.34775  0.53247  0.79329  Biso   1.000  Cd
  N16      1.0000 0.48392  0.99990  0.09140  Biso   1.000  N
  C172     1.0000 0.48445  0.85450  0.02950  Biso   1.000  C
  C173     1.0000 0.51372  0.92920  0.07640  Biso   1.000  C
  C174     1.0000 0.59395  0.99500  0.14830  Biso   1.000  C
  C175     1.0000 0.56856  0.92490  0.10350  Biso   1.000  C
  H101     1.0000 0.58810  0.87540  0.09170  Biso   1.000  H
  C176     1.0000 0.39770  0.64470  0.89240  Biso   1.000  C
  C177     1.0000 0.49030  0.24630  0.16430  Biso   1.000  C
  H102     1.0000 0.52190  0.26960  0.16080  Biso   1.000  H
  C178     1.0000 0.43320  0.87780  0.99310  Biso   1.000  C
  H103     1.0000 0.41770  0.93960  0.99830  Biso   1.000  H
  C179     1.0000 0.50630  0.75990  0.02180  Biso   1.000  C
  H104     1.0000 0.54020  0.74270  0.04630  Biso   1.000  H
  C180     1.0000 0.56256  0.06880  0.16230  Biso   1.000  C
  H105     1.0000 0.57770  0.11820  0.19140  Biso   1.000  H
  C181     1.0000 0.40500  0.80950  0.94910  Biso   1.000  C
  H106     1.0000 0.37100  0.82620  0.92470  Biso   1.000  H
  C182     1.0000 0.50836  0.06840  0.13260  Biso   1.000  C
  C183     1.0000 0.65148  0.99000  0.17930  Biso   1.000  C
  C184     1.0000 0.42740  0.71670  0.94130  Biso   1.000  C
  C185     1.0000 0.67990  0.89870  0.18400  Biso   1.000  C
  H107     1.0000 0.66280  0.83890  0.16580  Biso   1.000  H
  C186     1.0000 0.67989  0.07700  0.20770  Biso   1.000  C
  H108     1.0000 0.66290  0.14030  0.20560  Biso   1.000  H
  C187     1.0000 0.47830  0.69170  0.97850  Biso   1.000  C
  H109     1.0000 0.49330  0.62880  0.97390  Biso   1.000  H
  C188     1.0000 0.41340  0.27930  0.19100  Biso   1.000  C
  C189     1.0000 0.42580  0.11290  0.15320  Biso   1.000  C
  H110     1.0000 0.41370  0.04640  0.14130  Biso   1.000  H
  C190     1.0000 0.47391  0.14530  0.14930  Biso   1.000  C
  C191     1.0000 0.39620  0.17940  0.17460  Biso   1.000  C
  H111     1.0000 0.36440  0.15700  0.17790  Biso   1.000  H
  C192     1.0000 0.45960  0.31200  0.18430  Biso   1.000  C
  H112     1.0000 0.47040  0.38000  0.19350  Biso   1.000  H
  O29      1.0000 0.35422  0.67180  0.85790  Biso   1.000  O
  O30      1.0000 0.41846  0.55820  0.88760  Biso   1.000  O
  O31      1.0000 0.34365  0.31410  0.22770  Biso   1.000  O
  O32      1.0000 0.40490  0.43010  0.24320  Biso   1.000  O
