data_image0
_cell_length_a       11.21
_cell_length_b       12.383
_cell_length_c       13.696
_cell_angle_alpha    90
_cell_angle_beta     93.01
_cell_angle_gamma    90

_symmetry_space_group_name_H-M    "P 1"
_symmetry_int_tables_number       1

loop_
  _symmetry_equiv_pos_as_xyz
  'x, y, z'

loop_
  _atom_site_label
  _atom_site_occupancy
  _atom_site_fract_x
  _atom_site_fract_y
  _atom_site_fract_z
  _atom_site_thermal_displace_type
  _atom_site_B_iso_or_equiv
  _atom_site_type_symbol
  C1       1.0000 0.04940  0.95160  0.17430  Biso   1.000  C
  C2       1.0000 0.31800  0.86650  0.06250  Biso   1.000  C
  C3       1.0000 0.41340  0.92080  0.13020  Biso   1.000  C
  C4       1.0000 0.44580  0.03830  0.10860  Biso   1.000  C
  Nd1      1.0000 0.15371  0.10204  0.03351  Biso   1.000  Nd
  O1       1.0000 0.14040  0.00780  0.19900  Biso   1.000  O
  O2       1.0000 0.99970  0.95950  0.08980  Biso   1.000  O
  O3       1.0000 0.23540  0.91880  0.02540  Biso   1.000  O
  O4       1.0000 0.33840  0.76780  0.04990  Biso   1.000  O
  O5       1.0000 0.36100  0.10330  0.08910  Biso   1.000  O
  O6       1.0000 0.55020  0.06560  0.12150  Biso   1.000  O
  C5       1.0000 0.54940  0.45160  0.67430  Biso   1.000  C
  C6       1.0000 0.81800  0.36650  0.56250  Biso   1.000  C
  C7       1.0000 0.91340  0.42080  0.63020  Biso   1.000  C
  C8       1.0000 0.94580  0.53830  0.60860  Biso   1.000  C
  Nd2      1.0000 0.65371  0.60204  0.53351  Biso   1.000  Nd
  O7       1.0000 0.64040  0.50780  0.69900  Biso   1.000  O
  O8       1.0000 0.49970  0.45950  0.58980  Biso   1.000  O
  O9       1.0000 0.73540  0.41880  0.52540  Biso   1.000  O
  O10      1.0000 0.83840  0.26780  0.54990  Biso   1.000  O
  O11      1.0000 0.86100  0.60330  0.58910  Biso   1.000  O
  O12      1.0000 0.05020  0.56560  0.62150  Biso   1.000  O
  C9       1.0000 0.95060  0.95160  0.32570  Biso   1.000  C
  C10      1.0000 0.68200  0.86650  0.43750  Biso   1.000  C
  C11      1.0000 0.58660  0.92080  0.36980  Biso   1.000  C
  C12      1.0000 0.55420  0.03830  0.39140  Biso   1.000  C
  Nd3      1.0000 0.84629  0.10204  0.46649  Biso   1.000  Nd
  O13      1.0000 0.85960  0.00780  0.30100  Biso   1.000  O
  O14      1.0000 0.00030  0.95950  0.41020  Biso   1.000  O
  O15      1.0000 0.76460  0.91880  0.47460  Biso   1.000  O
  O16      1.0000 0.66160  0.76780  0.45010  Biso   1.000  O
  O17      1.0000 0.63900  0.10330  0.41090  Biso   1.000  O
  O18      1.0000 0.44980  0.06560  0.37850  Biso   1.000  O
  C13      1.0000 0.45060  0.45160  0.82570  Biso   1.000  C
  C14      1.0000 0.18200  0.36650  0.93750  Biso   1.000  C
  C15      1.0000 0.08660  0.42080  0.86980  Biso   1.000  C
  C16      1.0000 0.05420  0.53830  0.89140  Biso   1.000  C
  Nd4      1.0000 0.34629  0.60204  0.96649  Biso   1.000  Nd
  O19      1.0000 0.35960  0.50780  0.80100  Biso   1.000  O
  O20      1.0000 0.50030  0.45950  0.91020  Biso   1.000  O
  O21      1.0000 0.26460  0.41880  0.97460  Biso   1.000  O
  O22      1.0000 0.16160  0.26780  0.95010  Biso   1.000  O
  O23      1.0000 0.13900  0.60330  0.91090  Biso   1.000  O
  O24      1.0000 0.94980  0.56560  0.87850  Biso   1.000  O
  C17      1.0000 0.95060  0.04840  0.82570  Biso   1.000  C
  C18      1.0000 0.68200  0.13350  0.93750  Biso   1.000  C
  C19      1.0000 0.58660  0.07920  0.86980  Biso   1.000  C
  C20      1.0000 0.55420  0.96170  0.89140  Biso   1.000  C
  Nd5      1.0000 0.84629  0.89796  0.96649  Biso   1.000  Nd
  O25      1.0000 0.85960  0.99220  0.80100  Biso   1.000  O
  O26      1.0000 0.00030  0.04050  0.91020  Biso   1.000  O
  O27      1.0000 0.76460  0.08120  0.97460  Biso   1.000  O
  O28      1.0000 0.66160  0.23220  0.95010  Biso   1.000  O
  O29      1.0000 0.63900  0.89670  0.91090  Biso   1.000  O
  O30      1.0000 0.44980  0.93440  0.87850  Biso   1.000  O
  C21      1.0000 0.45060  0.54840  0.32570  Biso   1.000  C
  C22      1.0000 0.18200  0.63350  0.43750  Biso   1.000  C
  C23      1.0000 0.08660  0.57920  0.36980  Biso   1.000  C
  C24      1.0000 0.05420  0.46170  0.39140  Biso   1.000  C
  Nd6      1.0000 0.34629  0.39796  0.46649  Biso   1.000  Nd
  O31      1.0000 0.35960  0.49220  0.30100  Biso   1.000  O
  O32      1.0000 0.50030  0.54050  0.41020  Biso   1.000  O
  O33      1.0000 0.26460  0.58120  0.47460  Biso   1.000  O
  O34      1.0000 0.16160  0.73220  0.45010  Biso   1.000  O
  O35      1.0000 0.13900  0.39670  0.41090  Biso   1.000  O
  O36      1.0000 0.94980  0.43440  0.37850  Biso   1.000  O
  C25      1.0000 0.04940  0.04840  0.67430  Biso   1.000  C
  C26      1.0000 0.31800  0.13350  0.56250  Biso   1.000  C
  C27      1.0000 0.41340  0.07920  0.63020  Biso   1.000  C
  C28      1.0000 0.44580  0.96170  0.60860  Biso   1.000  C
  Nd7      1.0000 0.15371  0.89796  0.53351  Biso   1.000  Nd
  O37      1.0000 0.14040  0.99220  0.69900  Biso   1.000  O
  O38      1.0000 0.99970  0.04050  0.58980  Biso   1.000  O
  O39      1.0000 0.23540  0.08120  0.52540  Biso   1.000  O
  O40      1.0000 0.33840  0.23220  0.54990  Biso   1.000  O
  O41      1.0000 0.36100  0.89670  0.58910  Biso   1.000  O
  O42      1.0000 0.55020  0.93440  0.62150  Biso   1.000  O
  C29      1.0000 0.54940  0.54840  0.17430  Biso   1.000  C
  C30      1.0000 0.81800  0.63350  0.06250  Biso   1.000  C
  C31      1.0000 0.91340  0.57920  0.13020  Biso   1.000  C
  C32      1.0000 0.94580  0.46170  0.10860  Biso   1.000  C
  Nd8      1.0000 0.65371  0.39796  0.03351  Biso   1.000  Nd
  O43      1.0000 0.64040  0.49220  0.19900  Biso   1.000  O
  O44      1.0000 0.49970  0.54050  0.08980  Biso   1.000  O
  O45      1.0000 0.73540  0.58120  0.02540  Biso   1.000  O
  O46      1.0000 0.83840  0.73220  0.04990  Biso   1.000  O
  O47      1.0000 0.86100  0.39670  0.08910  Biso   1.000  O
  O48      1.0000 0.05020  0.43440  0.12150  Biso   1.000  O
  C33      1.0000 0.00000  0.87620  0.25000  Biso   1.000  C
  C34      1.0000 0.50000  0.37620  0.75000  Biso   1.000  C
  C35      1.0000 0.00000  0.12380  0.75000  Biso   1.000  C
  C36      1.0000 0.50000  0.62380  0.25000  Biso   1.000  C
