data_AQMAND01_clean
_audit_creation_date              2014-07-02
_audit_creation_method            'Materials Studio'
_symmetry_space_group_name_H-M    'P1'
_symmetry_Int_Tables_number       1
_symmetry_cell_setting            triclinic
loop_
_symmetry_equiv_pos_as_xyz
  x,y,z
_cell_length_a                    10.6026
_cell_length_b                    10.6026
_cell_length_c                    10.9735
_cell_angle_alpha                 78.6595
_cell_angle_beta                  62.5585
_cell_angle_gamma                 108.6340
loop_
_atom_site_label
_atom_site_type_symbol
_atom_site_fract_x
_atom_site_fract_y
_atom_site_fract_z
_atom_site_U_iso_or_equiv
_atom_site_adp_type
_atom_site_occupancy
Nd1    Nd    0.44937   0.63595   0.61984   0.01267  Uiso   1.00
Nd2    Nd    0.75579   0.06921   0.88016   0.01267  Uiso   1.00
Nd3    Nd    0.55063   0.36405   0.38016   0.01267  Uiso   1.00
Nd4    Nd    0.24421   0.93079   0.11984   0.01267  Uiso   1.00
H1     H     0.03490   0.61660   0.68970   0.01267  Uiso   1.00
H2     H     0.89440   0.51220   0.85780   0.01267  Uiso   1.00
H3     H     0.80630   0.72460   0.81030   0.01267  Uiso   1.00
H4     H     0.87000   0.75220   0.64220   0.01267  Uiso   1.00
H5     H     0.96510   0.38340   0.31030   0.01267  Uiso   1.00
H6     H     0.10560   0.48780   0.14220   0.01267  Uiso   1.00
H7     H     0.19370   0.27540   0.18970   0.01267  Uiso   1.00
H8     H     0.13000   0.24780   0.35780   0.01267  Uiso   1.00
H9     H     0.70120   0.45120   0.75000   0.01267  Uiso   1.00
H10    H     0.29880   0.54880   0.25000   0.01267  Uiso   1.00
C1     C     0.04760   0.43070   0.75730   0.01267  Uiso   1.00
C2     C     0.00730   0.55170   0.78280   0.01267  Uiso   1.00
C3     C     0.09510   0.64980   0.83270   0.01267  Uiso   1.00
C4     C     0.59950   0.37510   0.62560   0.01267  Uiso   1.00
C5     C     0.68800   0.80490   0.74270   0.01267  Uiso   1.00
C6     C     0.83450   0.79010   0.71720   0.01267  Uiso   1.00
C7     C     0.98250   0.92780   0.66730   0.01267  Uiso   1.00
C8     C     0.50070   0.22510   0.87440   0.01267  Uiso   1.00
C9     C     0.95240   0.56930   0.24270   0.01267  Uiso   1.00
C10    C     0.99270   0.44830   0.21720   0.01267  Uiso   1.00
C11    C     0.90490   0.35020   0.16730   0.01267  Uiso   1.00
C12    C     0.40050   0.62490   0.37440   0.01267  Uiso   1.00
C13    C     0.31200   0.19510   0.25730   0.01267  Uiso   1.00
C14    C     0.16550   0.20990   0.28280   0.01267  Uiso   1.00
C15    C     0.01750   0.07220   0.33270   0.01267  Uiso   1.00
C16    C     0.49930   0.77490   0.12560   0.01267  Uiso   1.00
C17    C     0.62440   0.37440   0.75000   0.01267  Uiso   1.00
C18    C     0.37560   0.62560   0.25000   0.01267  Uiso   1.00
O1     O     0.18450   0.44270   0.71020   0.01267  Uiso   1.00
O2     O     0.93200   0.31920   0.78580   0.01267  Uiso   1.00
O3     O     0.01610   0.68870   0.92720   0.01267  Uiso   1.00
O4     O     0.24480   0.69200   0.77420   0.01267  Uiso   1.00
O5     O     0.53940   0.44990   0.59190   0.01267  Uiso   1.00
O6     O     0.63430   0.29380   0.55890   0.01267  Uiso   1.00
O7     O     0.65290   0.89470   0.78980   0.01267  Uiso   1.00
O8     O     0.60500   0.71780   0.71420   0.01267  Uiso   1.00
O9     O     0.11590   0.94330   0.57280   0.01267  Uiso   1.00
O10    O     0.96620   0.01900   0.72580   0.01267  Uiso   1.00
O11    O     0.54180   0.13130   0.90810   0.01267  Uiso   1.00
O12    O     0.35270   0.19320   0.94110   0.01267  Uiso   1.00
O13    O     0.81550   0.55730   0.28980   0.01267  Uiso   1.00
O14    O     0.06800   0.68080   0.21420   0.01267  Uiso   1.00
O15    O     0.98390   0.31130   0.07280   0.01267  Uiso   1.00
O16    O     0.75520   0.30800   0.22580   0.01267  Uiso   1.00
O17    O     0.46060   0.55010   0.40810   0.01267  Uiso   1.00
O18    O     0.36570   0.70620   0.44110   0.01267  Uiso   1.00
O19    O     0.34710   0.10530   0.21020   0.01267  Uiso   1.00
O20    O     0.39500   0.28220   0.28580   0.01267  Uiso   1.00
O21    O     0.88410   0.05670   0.42720   0.01267  Uiso   1.00
O22    O     0.03380   0.98100   0.27420   0.01267  Uiso   1.00
O23    O     0.45820   0.86870   0.09190   0.01267  Uiso   1.00
O24    O     0.64730   0.80680   0.05890   0.01267  Uiso   1.00
