data_image0
_cell_length_a       18.7059
_cell_length_b       18.7059
_cell_length_c       18.7059
_cell_angle_alpha    90
_cell_angle_beta     90
_cell_angle_gamma    90

_symmetry_space_group_name_H-M    "P 1"
_symmetry_int_tables_number       1

loop_
  _symmetry_equiv_pos_as_xyz
  'x, y, z'

loop_
  _atom_site_label
  _atom_site_occupancy
  _atom_site_fract_x
  _atom_site_fract_y
  _atom_site_fract_z
  _atom_site_thermal_displace_type
  _atom_site_B_iso_or_equiv
  _atom_site_type_symbol
  N1       1.0000 0.07344  0.37229  0.57635  Biso   1.000  N
  C1       1.0000 0.12803  0.32884  0.58845  Biso   1.000  C
  H1       1.0000 0.14030  0.28810  0.56070  Biso   1.000  H
  N2       1.0000 0.41155  0.12803  0.67116  Biso   1.000  N
  N3       1.0000 0.92656  0.62771  0.57635  Biso   1.000  N
  C2       1.0000 0.87197  0.67116  0.58845  Biso   1.000  C
  H2       1.0000 0.85970  0.71190  0.56070  Biso   1.000  H
  N4       1.0000 0.58845  0.87197  0.67116  Biso   1.000  N
  N5       1.0000 0.92656  0.37229  0.42365  Biso   1.000  N
  C3       1.0000 0.87197  0.32884  0.41155  Biso   1.000  C
  H3       1.0000 0.85970  0.28810  0.43930  Biso   1.000  H
  N6       1.0000 0.58845  0.12803  0.32884  Biso   1.000  N
  N7       1.0000 0.07344  0.62771  0.42365  Biso   1.000  N
  C4       1.0000 0.12803  0.67116  0.41155  Biso   1.000  C
  H4       1.0000 0.14030  0.71190  0.43930  Biso   1.000  H
  N8       1.0000 0.41155  0.87197  0.32884  Biso   1.000  N
  N9       1.0000 0.57635  0.07344  0.37229  Biso   1.000  N
  H5       1.0000 0.56070  0.14030  0.28810  Biso   1.000  H
  N10      1.0000 0.67116  0.41155  0.12803  Biso   1.000  N
  N11      1.0000 0.57635  0.92656  0.62771  Biso   1.000  N
  H6       1.0000 0.56070  0.85970  0.71190  Biso   1.000  H
  N12      1.0000 0.67116  0.58845  0.87197  Biso   1.000  N
  N13      1.0000 0.42365  0.92656  0.37229  Biso   1.000  N
  H7       1.0000 0.43930  0.85970  0.28810  Biso   1.000  H
  N14      1.0000 0.32884  0.58845  0.12803  Biso   1.000  N
  N15      1.0000 0.42365  0.07344  0.62771  Biso   1.000  N
  H8       1.0000 0.43930  0.14030  0.71190  Biso   1.000  H
  N16      1.0000 0.32884  0.41155  0.87197  Biso   1.000  N
  N17      1.0000 0.37229  0.57635  0.07344  Biso   1.000  N
  H9       1.0000 0.28810  0.56070  0.14030  Biso   1.000  H
  N18      1.0000 0.62771  0.57635  0.92656  Biso   1.000  N
  H10      1.0000 0.71190  0.56070  0.85970  Biso   1.000  H
  N19      1.0000 0.37229  0.42365  0.92656  Biso   1.000  N
  H11      1.0000 0.28810  0.43930  0.85970  Biso   1.000  H
  N20      1.0000 0.62771  0.42365  0.07344  Biso   1.000  N
  H12      1.0000 0.71190  0.43930  0.14030  Biso   1.000  H
  N21      1.0000 0.37229  0.07344  0.42365  Biso   1.000  N
  C5       1.0000 0.32884  0.12803  0.41155  Biso   1.000  C
  H13      1.0000 0.28810  0.14030  0.43930  Biso   1.000  H
  N22      1.0000 0.12803  0.41155  0.32884  Biso   1.000  N
  N23      1.0000 0.62771  0.92656  0.42365  Biso   1.000  N
  C6       1.0000 0.67116  0.87197  0.41155  Biso   1.000  C
  H14      1.0000 0.71190  0.85970  0.43930  Biso   1.000  H
  N24      1.0000 0.87197  0.58845  0.32884  Biso   1.000  N
  N25      1.0000 0.37229  0.92656  0.57635  Biso   1.000  N
  C7       1.0000 0.32884  0.87197  0.58845  Biso   1.000  C
  H15      1.0000 0.28810  0.85970  0.56070  Biso   1.000  H
  N26      1.0000 0.12803  0.58845  0.67116  Biso   1.000  N
  N27      1.0000 0.62771  0.07344  0.57635  Biso   1.000  N
  C8       1.0000 0.67116  0.12803  0.58845  Biso   1.000  C
  H16      1.0000 0.71190  0.14030  0.56070  Biso   1.000  H
  N28      1.0000 0.87197  0.41155  0.67116  Biso   1.000  N
  N29      1.0000 0.07344  0.57635  0.62771  Biso   1.000  N
  H17      1.0000 0.14030  0.56070  0.71190  Biso   1.000  H
  N30      1.0000 0.41155  0.67116  0.87197  Biso   1.000  N
  N31      1.0000 0.92656  0.57635  0.37229  Biso   1.000  N
  H18      1.0000 0.85970  0.56070  0.28810  Biso   1.000  H
  N32      1.0000 0.58845  0.67116  0.12803  Biso   1.000  N
  N33      1.0000 0.92656  0.42365  0.62771  Biso   1.000  N
  H19      1.0000 0.85970  0.43930  0.71190  Biso   1.000  H
  N34      1.0000 0.58845  0.32884  0.87197  Biso   1.000  N
  N35      1.0000 0.07344  0.42365  0.37229  Biso   1.000  N
  H20      1.0000 0.14030  0.43930  0.28810  Biso   1.000  H
  N36      1.0000 0.41155  0.32884  0.12803  Biso   1.000  N
  N37      1.0000 0.57635  0.37229  0.92656  Biso   1.000  N
  H21      1.0000 0.56070  0.28810  0.85970  Biso   1.000  H
  N38      1.0000 0.57635  0.62771  0.07344  Biso   1.000  N
  H22      1.0000 0.56070  0.71190  0.14030  Biso   1.000  H
  N39      1.0000 0.42365  0.37229  0.07344  Biso   1.000  N
  H23      1.0000 0.43930  0.28810  0.14030  Biso   1.000  H
  N40      1.0000 0.42365  0.62771  0.92656  Biso   1.000  N
  H24      1.0000 0.43930  0.71190  0.85970  Biso   1.000  H
  N41      1.0000 0.92656  0.62771  0.42365  Biso   1.000  N
  C9       1.0000 0.87197  0.67116  0.41155  Biso   1.000  C
  H25      1.0000 0.85970  0.71190  0.43930  Biso   1.000  H
  N42      1.0000 0.58845  0.87197  0.32884  Biso   1.000  N
  N43      1.0000 0.07344  0.37229  0.42365  Biso   1.000  N
  C10      1.0000 0.12803  0.32884  0.41155  Biso   1.000  C
  H26      1.0000 0.14030  0.28810  0.43930  Biso   1.000  H
  N44      1.0000 0.41155  0.12803  0.32884  Biso   1.000  N
  N45      1.0000 0.07344  0.62771  0.57635  Biso   1.000  N
  C11      1.0000 0.12803  0.67116  0.58845  Biso   1.000  C
  H27      1.0000 0.14030  0.71190  0.56070  Biso   1.000  H
  N46      1.0000 0.41155  0.87197  0.67116  Biso   1.000  N
  N47      1.0000 0.92656  0.37229  0.57635  Biso   1.000  N
  C12      1.0000 0.87197  0.32884  0.58845  Biso   1.000  C
  H28      1.0000 0.85970  0.28810  0.56070  Biso   1.000  H
  N48      1.0000 0.58845  0.12803  0.67116  Biso   1.000  N
  N49      1.0000 0.42365  0.92656  0.62771  Biso   1.000  N
  H29      1.0000 0.43930  0.85970  0.71190  Biso   1.000  H
  N50      1.0000 0.32884  0.58845  0.87197  Biso   1.000  N
  N51      1.0000 0.42365  0.07344  0.37229  Biso   1.000  N
  H30      1.0000 0.43930  0.14030  0.28810  Biso   1.000  H
  N52      1.0000 0.32884  0.41155  0.12803  Biso   1.000  N
  N53      1.0000 0.57635  0.07344  0.62771  Biso   1.000  N
  H31      1.0000 0.56070  0.14030  0.71190  Biso   1.000  H
  N54      1.0000 0.67116  0.41155  0.87197  Biso   1.000  N
  N55      1.0000 0.57635  0.92656  0.37229  Biso   1.000  N
  H32      1.0000 0.56070  0.85970  0.28810  Biso   1.000  H
  N56      1.0000 0.67116  0.58845  0.12803  Biso   1.000  N
  N57      1.0000 0.62771  0.42365  0.92656  Biso   1.000  N
  H33      1.0000 0.71190  0.43930  0.85970  Biso   1.000  H
  N58      1.0000 0.37229  0.42365  0.07344  Biso   1.000  N
  H34      1.0000 0.28810  0.43930  0.14030  Biso   1.000  H
  N59      1.0000 0.62771  0.57635  0.07344  Biso   1.000  N
  H35      1.0000 0.71190  0.56070  0.14030  Biso   1.000  H
  N60      1.0000 0.37229  0.57635  0.92656  Biso   1.000  N
  H36      1.0000 0.28810  0.56070  0.85970  Biso   1.000  H
  N61      1.0000 0.62771  0.92656  0.57635  Biso   1.000  N
  C13      1.0000 0.67116  0.87197  0.58845  Biso   1.000  C
  H37      1.0000 0.71190  0.85970  0.56070  Biso   1.000  H
  N62      1.0000 0.87197  0.58845  0.67116  Biso   1.000  N
  N63      1.0000 0.37229  0.07344  0.57635  Biso   1.000  N
  C14      1.0000 0.32884  0.12803  0.58845  Biso   1.000  C
  H38      1.0000 0.28810  0.14030  0.56070  Biso   1.000  H
  N64      1.0000 0.12803  0.41155  0.67116  Biso   1.000  N
  N65      1.0000 0.62771  0.07344  0.42365  Biso   1.000  N
  C15      1.0000 0.67116  0.12803  0.41155  Biso   1.000  C
  H39      1.0000 0.71190  0.14030  0.43930  Biso   1.000  H
  N66      1.0000 0.87197  0.41155  0.32884  Biso   1.000  N
  N67      1.0000 0.37229  0.92656  0.42365  Biso   1.000  N
  C16      1.0000 0.32884  0.87197  0.41155  Biso   1.000  C
  H40      1.0000 0.28810  0.85970  0.43930  Biso   1.000  H
  N68      1.0000 0.12803  0.58845  0.32884  Biso   1.000  N
  N69      1.0000 0.92656  0.42365  0.37229  Biso   1.000  N
  H41      1.0000 0.85970  0.43930  0.28810  Biso   1.000  H
  N70      1.0000 0.58845  0.32884  0.12803  Biso   1.000  N
  N71      1.0000 0.07344  0.42365  0.62771  Biso   1.000  N
  H42      1.0000 0.14030  0.43930  0.71190  Biso   1.000  H
  N72      1.0000 0.41155  0.32884  0.87197  Biso   1.000  N
  N73      1.0000 0.07344  0.57635  0.37229  Biso   1.000  N
  H43      1.0000 0.14030  0.56070  0.28810  Biso   1.000  H
  N74      1.0000 0.41155  0.67116  0.12803  Biso   1.000  N
  N75      1.0000 0.92656  0.57635  0.62771  Biso   1.000  N
  H44      1.0000 0.85970  0.56070  0.71190  Biso   1.000  H
  N76      1.0000 0.58845  0.67116  0.87197  Biso   1.000  N
  N77      1.0000 0.42365  0.62771  0.07344  Biso   1.000  N
  H45      1.0000 0.43930  0.71190  0.14030  Biso   1.000  H
  N78      1.0000 0.42365  0.37229  0.92656  Biso   1.000  N
  H46      1.0000 0.43930  0.28810  0.85970  Biso   1.000  H
  N79      1.0000 0.57635  0.62771  0.92656  Biso   1.000  N
  H47      1.0000 0.56070  0.71190  0.85970  Biso   1.000  H
  N80      1.0000 0.57635  0.37229  0.07344  Biso   1.000  N
  H48      1.0000 0.56070  0.28810  0.14030  Biso   1.000  H
  Co1      1.0000 0.00000  0.36896  0.50000  Biso   1.000  Co
  Co2      1.0000 0.00000  0.63104  0.50000  Biso   1.000  Co
  Co3      1.0000 0.50000  0.00000  0.36896  Biso   1.000  Co
  Co4      1.0000 0.50000  0.00000  0.63104  Biso   1.000  Co
  Co5      1.0000 0.36896  0.50000  0.00000  Biso   1.000  Co
  Co6      1.0000 0.63104  0.50000  0.00000  Biso   1.000  Co
  Co7      1.0000 0.36896  0.00000  0.50000  Biso   1.000  Co
  Co8      1.0000 0.63104  0.00000  0.50000  Biso   1.000  Co
  Co9      1.0000 0.00000  0.50000  0.63104  Biso   1.000  Co
  Co10     1.0000 0.00000  0.50000  0.36896  Biso   1.000  Co
  Co11     1.0000 0.50000  0.36896  0.00000  Biso   1.000  Co
  Co12     1.0000 0.50000  0.63104  0.00000  Biso   1.000  Co
  Cl1      1.0000 0.00000  0.50000  0.50000  Biso   1.000  Cl
  Cl2      1.0000 0.50000  0.00000  0.50000  Biso   1.000  Cl
  Cl3      1.0000 0.50000  0.50000  0.00000  Biso   1.000  Cl
  C17      1.0000 0.22880  0.32054  0.67946  Biso   1.000  C
  C18      1.0000 0.16380  0.35240  0.64760  Biso   1.000  C
  C19      1.0000 0.77120  0.67946  0.67946  Biso   1.000  C
  C20      1.0000 0.83620  0.64760  0.64760  Biso   1.000  C
  C21      1.0000 0.77120  0.32054  0.32054  Biso   1.000  C
  C22      1.0000 0.83620  0.35240  0.35240  Biso   1.000  C
  C23      1.0000 0.22880  0.67946  0.32054  Biso   1.000  C
  C24      1.0000 0.16380  0.64760  0.35240  Biso   1.000  C
  C25      1.0000 0.67946  0.22880  0.32054  Biso   1.000  C
  C26      1.0000 0.64760  0.16380  0.35240  Biso   1.000  C
  C27      1.0000 0.67946  0.77120  0.67946  Biso   1.000  C
  C28      1.0000 0.64760  0.83620  0.64760  Biso   1.000  C
  C29      1.0000 0.32054  0.77120  0.32054  Biso   1.000  C
  C30      1.0000 0.35240  0.83620  0.35240  Biso   1.000  C
  C31      1.0000 0.32054  0.22880  0.67946  Biso   1.000  C
  C32      1.0000 0.35240  0.16380  0.64760  Biso   1.000  C
  C33      1.0000 0.32054  0.67946  0.22880  Biso   1.000  C
  C34      1.0000 0.35240  0.64760  0.16380  Biso   1.000  C
  C35      1.0000 0.67946  0.67946  0.77120  Biso   1.000  C
  C36      1.0000 0.64760  0.64760  0.83620  Biso   1.000  C
  C37      1.0000 0.32054  0.32054  0.77120  Biso   1.000  C
  C38      1.0000 0.35240  0.35240  0.83620  Biso   1.000  C
  C39      1.0000 0.67946  0.32054  0.22880  Biso   1.000  C
  C40      1.0000 0.64760  0.35240  0.16380  Biso   1.000  C
  C41      1.0000 0.32054  0.22880  0.32054  Biso   1.000  C
  C42      1.0000 0.35240  0.16380  0.35240  Biso   1.000  C
  C43      1.0000 0.67946  0.77120  0.32054  Biso   1.000  C
  C44      1.0000 0.64760  0.83620  0.35240  Biso   1.000  C
  C45      1.0000 0.32054  0.77120  0.67946  Biso   1.000  C
  C46      1.0000 0.35240  0.83620  0.64760  Biso   1.000  C
  C47      1.0000 0.67946  0.22880  0.67946  Biso   1.000  C
  C48      1.0000 0.64760  0.16380  0.64760  Biso   1.000  C
  C49      1.0000 0.22880  0.67946  0.67946  Biso   1.000  C
  C50      1.0000 0.16380  0.64760  0.64760  Biso   1.000  C
  C51      1.0000 0.77120  0.67946  0.32054  Biso   1.000  C
  C52      1.0000 0.83620  0.64760  0.35240  Biso   1.000  C
  C53      1.0000 0.77120  0.32054  0.67946  Biso   1.000  C
  C54      1.0000 0.83620  0.35240  0.64760  Biso   1.000  C
  C55      1.0000 0.22880  0.32054  0.32054  Biso   1.000  C
  C56      1.0000 0.16380  0.35240  0.35240  Biso   1.000  C
  C57      1.0000 0.67946  0.32054  0.77120  Biso   1.000  C
  C58      1.0000 0.64760  0.35240  0.83620  Biso   1.000  C
  C59      1.0000 0.67946  0.67946  0.22880  Biso   1.000  C
  C60      1.0000 0.64760  0.64760  0.16380  Biso   1.000  C
  C61      1.0000 0.32054  0.32054  0.22880  Biso   1.000  C
  C62      1.0000 0.35240  0.35240  0.16380  Biso   1.000  C
  C63      1.0000 0.32054  0.67946  0.77120  Biso   1.000  C
  C64      1.0000 0.35240  0.64760  0.83620  Biso   1.000  C
  C65      1.0000 0.25970  0.25970  0.65030  Biso   1.000  C
  H49      1.0000 0.23860  0.23860  0.60920  Biso   1.000  H
  C66      1.0000 0.74030  0.74030  0.65030  Biso   1.000  C
  H50      1.0000 0.76140  0.76140  0.60920  Biso   1.000  H
  C67      1.0000 0.74030  0.25970  0.34970  Biso   1.000  C
  H51      1.0000 0.76140  0.23860  0.39080  Biso   1.000  H
  C68      1.0000 0.25970  0.74030  0.34970  Biso   1.000  C
  H52      1.0000 0.23860  0.76140  0.39080  Biso   1.000  H
  C69      1.0000 0.65030  0.25970  0.25970  Biso   1.000  C
  H53      1.0000 0.60920  0.23860  0.23860  Biso   1.000  H
  C70      1.0000 0.65030  0.74030  0.74030  Biso   1.000  C
  H54      1.0000 0.60920  0.76140  0.76140  Biso   1.000  H
  C71      1.0000 0.34970  0.74030  0.25970  Biso   1.000  C
  H55      1.0000 0.39080  0.76140  0.23860  Biso   1.000  H
  C72      1.0000 0.34970  0.25970  0.74030  Biso   1.000  C
  H56      1.0000 0.39080  0.23860  0.76140  Biso   1.000  H
  C73      1.0000 0.25970  0.65030  0.25970  Biso   1.000  C
  H57      1.0000 0.23860  0.60920  0.23860  Biso   1.000  H
  C74      1.0000 0.74030  0.65030  0.74030  Biso   1.000  C
  H58      1.0000 0.76140  0.60920  0.76140  Biso   1.000  H
  C75      1.0000 0.25970  0.34970  0.74030  Biso   1.000  C
  H59      1.0000 0.23860  0.39080  0.76140  Biso   1.000  H
  C76      1.0000 0.74030  0.34970  0.25970  Biso   1.000  C
  H60      1.0000 0.76140  0.39080  0.23860  Biso   1.000  H
  C77      1.0000 0.25970  0.25970  0.34970  Biso   1.000  C
  H61      1.0000 0.23860  0.23860  0.39080  Biso   1.000  H
  C78      1.0000 0.74030  0.74030  0.34970  Biso   1.000  C
  H62      1.0000 0.76140  0.76140  0.39080  Biso   1.000  H
  C79      1.0000 0.25970  0.74030  0.65030  Biso   1.000  C
  H63      1.0000 0.23860  0.76140  0.60920  Biso   1.000  H
  C80      1.0000 0.74030  0.25970  0.65030  Biso   1.000  C
  H64      1.0000 0.76140  0.23860  0.60920  Biso   1.000  H
  C81      1.0000 0.25970  0.65030  0.74030  Biso   1.000  C
  H65      1.0000 0.23860  0.60920  0.76140  Biso   1.000  H
  C82      1.0000 0.74030  0.65030  0.25970  Biso   1.000  C
  H66      1.0000 0.76140  0.60920  0.23860  Biso   1.000  H
  C83      1.0000 0.74030  0.34970  0.74030  Biso   1.000  C
  H67      1.0000 0.76140  0.39080  0.76140  Biso   1.000  H
  C84      1.0000 0.25970  0.34970  0.25970  Biso   1.000  C
  H68      1.0000 0.23860  0.39080  0.23860  Biso   1.000  H
  C85      1.0000 0.65030  0.25970  0.74030  Biso   1.000  C
  H69      1.0000 0.60920  0.23860  0.76140  Biso   1.000  H
  C86      1.0000 0.65030  0.74030  0.25970  Biso   1.000  C
  H70      1.0000 0.60920  0.76140  0.23860  Biso   1.000  H
  C87      1.0000 0.34970  0.25970  0.25970  Biso   1.000  C
  H71      1.0000 0.39080  0.23860  0.23860  Biso   1.000  H
  C88      1.0000 0.34970  0.74030  0.74030  Biso   1.000  C
  H72      1.0000 0.39080  0.76140  0.76140  Biso   1.000  H
