data_image0
_cell_length_a       18.8345
_cell_length_b       18.8345
_cell_length_c       18.8345
_cell_angle_alpha    90
_cell_angle_beta     90
_cell_angle_gamma    90

_symmetry_space_group_name_H-M    "P 1"
_symmetry_int_tables_number       1

loop_
  _symmetry_equiv_pos_as_xyz
  'x, y, z'

loop_
  _atom_site_label
  _atom_site_occupancy
  _atom_site_fract_x
  _atom_site_fract_y
  _atom_site_fract_z
  _atom_site_thermal_displace_type
  _atom_site_B_iso_or_equiv
  _atom_site_type_symbol
  N1       1.0000 0.37154  0.07406  0.57762  Biso   1.000  N
  C1       1.0000 0.32826  0.12903  0.58949  Biso   1.000  C
  H1       1.0000 0.28800  0.14130  0.56170  Biso   1.000  H
  N2       1.0000 0.62846  0.92594  0.57762  Biso   1.000  N
  C2       1.0000 0.67174  0.87097  0.58949  Biso   1.000  C
  H2       1.0000 0.71200  0.85870  0.56170  Biso   1.000  H
  N3       1.0000 0.62846  0.07406  0.42238  Biso   1.000  N
  C3       1.0000 0.67174  0.12903  0.41051  Biso   1.000  C
  H3       1.0000 0.71200  0.14130  0.43830  Biso   1.000  H
  N4       1.0000 0.37154  0.92594  0.42238  Biso   1.000  N
  C4       1.0000 0.32826  0.87097  0.41051  Biso   1.000  C
  H4       1.0000 0.28800  0.85870  0.43830  Biso   1.000  H
  N5       1.0000 0.57762  0.37154  0.07406  Biso   1.000  N
  C5       1.0000 0.58949  0.32826  0.12903  Biso   1.000  C
  H5       1.0000 0.56170  0.28800  0.14130  Biso   1.000  H
  N6       1.0000 0.57762  0.62846  0.92594  Biso   1.000  N
  C6       1.0000 0.58949  0.67174  0.87097  Biso   1.000  C
  H6       1.0000 0.56170  0.71200  0.85870  Biso   1.000  H
  N7       1.0000 0.42238  0.62846  0.07406  Biso   1.000  N
  C7       1.0000 0.41051  0.67174  0.12903  Biso   1.000  C
  H7       1.0000 0.43830  0.71200  0.14130  Biso   1.000  H
  N8       1.0000 0.42238  0.37154  0.92594  Biso   1.000  N
  C8       1.0000 0.41051  0.32826  0.87097  Biso   1.000  C
  H8       1.0000 0.43830  0.28800  0.85870  Biso   1.000  H
  N9       1.0000 0.07406  0.57762  0.37154  Biso   1.000  N
  C9       1.0000 0.12903  0.58949  0.32826  Biso   1.000  C
  H9       1.0000 0.14130  0.56170  0.28800  Biso   1.000  H
  N10      1.0000 0.92594  0.57762  0.62846  Biso   1.000  N
  C10      1.0000 0.87097  0.58949  0.67174  Biso   1.000  C
  H10      1.0000 0.85870  0.56170  0.71200  Biso   1.000  H
  N11      1.0000 0.07406  0.42238  0.62846  Biso   1.000  N
  C11      1.0000 0.12903  0.41051  0.67174  Biso   1.000  C
  H11      1.0000 0.14130  0.43830  0.71200  Biso   1.000  H
  N12      1.0000 0.92594  0.42238  0.37154  Biso   1.000  N
  C12      1.0000 0.87097  0.41051  0.32826  Biso   1.000  C
  H12      1.0000 0.85870  0.43830  0.28800  Biso   1.000  H
  N13      1.0000 0.07406  0.37154  0.42238  Biso   1.000  N
  C13      1.0000 0.12903  0.32826  0.41051  Biso   1.000  C
  H13      1.0000 0.14130  0.28800  0.43830  Biso   1.000  H
  N14      1.0000 0.92594  0.62846  0.42238  Biso   1.000  N
  C14      1.0000 0.87097  0.67174  0.41051  Biso   1.000  C
  H14      1.0000 0.85870  0.71200  0.43830  Biso   1.000  H
  N15      1.0000 0.07406  0.62846  0.57762  Biso   1.000  N
  C15      1.0000 0.12903  0.67174  0.58949  Biso   1.000  C
  H15      1.0000 0.14130  0.71200  0.56170  Biso   1.000  H
  N16      1.0000 0.92594  0.37154  0.57762  Biso   1.000  N
  C16      1.0000 0.87097  0.32826  0.58949  Biso   1.000  C
  H16      1.0000 0.85870  0.28800  0.56170  Biso   1.000  H
  N17      1.0000 0.37154  0.57762  0.92594  Biso   1.000  N
  C17      1.0000 0.32826  0.58949  0.87097  Biso   1.000  C
  H17      1.0000 0.28800  0.56170  0.85870  Biso   1.000  H
  N18      1.0000 0.62846  0.57762  0.07406  Biso   1.000  N
  C18      1.0000 0.67174  0.58949  0.12903  Biso   1.000  C
  H18      1.0000 0.71200  0.56170  0.14130  Biso   1.000  H
  N19      1.0000 0.62846  0.42238  0.92594  Biso   1.000  N
  C19      1.0000 0.67174  0.41051  0.87097  Biso   1.000  C
  H19      1.0000 0.71200  0.43830  0.85870  Biso   1.000  H
  N20      1.0000 0.37154  0.42238  0.07406  Biso   1.000  N
  C20      1.0000 0.32826  0.41051  0.12903  Biso   1.000  C
  H20      1.0000 0.28800  0.43830  0.14130  Biso   1.000  H
  N21      1.0000 0.57762  0.07406  0.62846  Biso   1.000  N
  C21      1.0000 0.58949  0.12903  0.67174  Biso   1.000  C
  H21      1.0000 0.56170  0.14130  0.71200  Biso   1.000  H
  N22      1.0000 0.57762  0.92594  0.37154  Biso   1.000  N
  C22      1.0000 0.58949  0.87097  0.32826  Biso   1.000  C
  H22      1.0000 0.56170  0.85870  0.28800  Biso   1.000  H
  N23      1.0000 0.42238  0.07406  0.37154  Biso   1.000  N
  C23      1.0000 0.41051  0.12903  0.32826  Biso   1.000  C
  H23      1.0000 0.43830  0.14130  0.28800  Biso   1.000  H
  N24      1.0000 0.42238  0.92594  0.62846  Biso   1.000  N
  C24      1.0000 0.41051  0.87097  0.67174  Biso   1.000  C
  H24      1.0000 0.43830  0.85870  0.71200  Biso   1.000  H
  N25      1.0000 0.62846  0.92594  0.42238  Biso   1.000  N
  C25      1.0000 0.67174  0.87097  0.41051  Biso   1.000  C
  H25      1.0000 0.71200  0.85870  0.43830  Biso   1.000  H
  N26      1.0000 0.37154  0.07406  0.42238  Biso   1.000  N
  C26      1.0000 0.32826  0.12903  0.41051  Biso   1.000  C
  H26      1.0000 0.28800  0.14130  0.43830  Biso   1.000  H
  N27      1.0000 0.37154  0.92594  0.57762  Biso   1.000  N
  C27      1.0000 0.32826  0.87097  0.58949  Biso   1.000  C
  H27      1.0000 0.28800  0.85870  0.56170  Biso   1.000  H
  N28      1.0000 0.62846  0.07406  0.57762  Biso   1.000  N
  C28      1.0000 0.67174  0.12903  0.58949  Biso   1.000  C
  H28      1.0000 0.71200  0.14130  0.56170  Biso   1.000  H
  N29      1.0000 0.42238  0.62846  0.92594  Biso   1.000  N
  C29      1.0000 0.41051  0.67174  0.87097  Biso   1.000  C
  H29      1.0000 0.43830  0.71200  0.85870  Biso   1.000  H
  N30      1.0000 0.42238  0.37154  0.07406  Biso   1.000  N
  C30      1.0000 0.41051  0.32826  0.12903  Biso   1.000  C
  H30      1.0000 0.43830  0.28800  0.14130  Biso   1.000  H
  N31      1.0000 0.57762  0.37154  0.92594  Biso   1.000  N
  C31      1.0000 0.58949  0.32826  0.87097  Biso   1.000  C
  H31      1.0000 0.56170  0.28800  0.85870  Biso   1.000  H
  N32      1.0000 0.57762  0.62846  0.07406  Biso   1.000  N
  C32      1.0000 0.58949  0.67174  0.12903  Biso   1.000  C
  H32      1.0000 0.56170  0.71200  0.14130  Biso   1.000  H
  N33      1.0000 0.92594  0.42238  0.62846  Biso   1.000  N
  C33      1.0000 0.87097  0.41051  0.67174  Biso   1.000  C
  H33      1.0000 0.85870  0.43830  0.71200  Biso   1.000  H
  N34      1.0000 0.07406  0.42238  0.37154  Biso   1.000  N
  C34      1.0000 0.12903  0.41051  0.32826  Biso   1.000  C
  H34      1.0000 0.14130  0.43830  0.28800  Biso   1.000  H
  N35      1.0000 0.92594  0.57762  0.37154  Biso   1.000  N
  C35      1.0000 0.87097  0.58949  0.32826  Biso   1.000  C
  H35      1.0000 0.85870  0.56170  0.28800  Biso   1.000  H
  N36      1.0000 0.07406  0.57762  0.62846  Biso   1.000  N
  C36      1.0000 0.12903  0.58949  0.67174  Biso   1.000  C
  H36      1.0000 0.14130  0.56170  0.71200  Biso   1.000  H
  N37      1.0000 0.92594  0.62846  0.57762  Biso   1.000  N
  C37      1.0000 0.87097  0.67174  0.58949  Biso   1.000  C
  H37      1.0000 0.85870  0.71200  0.56170  Biso   1.000  H
  N38      1.0000 0.07406  0.37154  0.57762  Biso   1.000  N
  C38      1.0000 0.12903  0.32826  0.58949  Biso   1.000  C
  H38      1.0000 0.14130  0.28800  0.56170  Biso   1.000  H
  N39      1.0000 0.92594  0.37154  0.42238  Biso   1.000  N
  C39      1.0000 0.87097  0.32826  0.41051  Biso   1.000  C
  H39      1.0000 0.85870  0.28800  0.43830  Biso   1.000  H
  N40      1.0000 0.07406  0.62846  0.42238  Biso   1.000  N
  C40      1.0000 0.12903  0.67174  0.41051  Biso   1.000  C
  H40      1.0000 0.14130  0.71200  0.43830  Biso   1.000  H
  N41      1.0000 0.62846  0.42238  0.07406  Biso   1.000  N
  C41      1.0000 0.67174  0.41051  0.12903  Biso   1.000  C
  H41      1.0000 0.71200  0.43830  0.14130  Biso   1.000  H
  N42      1.0000 0.37154  0.42238  0.92594  Biso   1.000  N
  C42      1.0000 0.32826  0.41051  0.87097  Biso   1.000  C
  H42      1.0000 0.28800  0.43830  0.85870  Biso   1.000  H
  N43      1.0000 0.37154  0.57762  0.07406  Biso   1.000  N
  C43      1.0000 0.32826  0.58949  0.12903  Biso   1.000  C
  H43      1.0000 0.28800  0.56170  0.14130  Biso   1.000  H
  N44      1.0000 0.62846  0.57762  0.92594  Biso   1.000  N
  C44      1.0000 0.67174  0.58949  0.87097  Biso   1.000  C
  H44      1.0000 0.71200  0.56170  0.85870  Biso   1.000  H
  N45      1.0000 0.42238  0.92594  0.37154  Biso   1.000  N
  C45      1.0000 0.41051  0.87097  0.32826  Biso   1.000  C
  H45      1.0000 0.43830  0.85870  0.28800  Biso   1.000  H
  N46      1.0000 0.42238  0.07406  0.62846  Biso   1.000  N
  C46      1.0000 0.41051  0.12903  0.67174  Biso   1.000  C
  H46      1.0000 0.43830  0.14130  0.71200  Biso   1.000  H
  N47      1.0000 0.57762  0.92594  0.62846  Biso   1.000  N
  C47      1.0000 0.58949  0.87097  0.67174  Biso   1.000  C
  H47      1.0000 0.56170  0.85870  0.71200  Biso   1.000  H
  N48      1.0000 0.57762  0.07406  0.37154  Biso   1.000  N
  C48      1.0000 0.58949  0.12903  0.32826  Biso   1.000  C
  H48      1.0000 0.56170  0.14130  0.28800  Biso   1.000  H
  Co1      1.0000 0.36808  0.00000  0.50000  Biso   1.000  Co
  Co2      1.0000 0.63192  0.00000  0.50000  Biso   1.000  Co
  Co3      1.0000 0.50000  0.36808  0.00000  Biso   1.000  Co
  Co4      1.0000 0.50000  0.63192  0.00000  Biso   1.000  Co
  Co5      1.0000 0.00000  0.50000  0.36808  Biso   1.000  Co
  Co6      1.0000 0.00000  0.50000  0.63192  Biso   1.000  Co
  Co7      1.0000 0.00000  0.36808  0.50000  Biso   1.000  Co
  Co8      1.0000 0.00000  0.63192  0.50000  Biso   1.000  Co
  Co9      1.0000 0.36808  0.50000  0.00000  Biso   1.000  Co
  Co10     1.0000 0.63192  0.50000  0.00000  Biso   1.000  Co
  Co11     1.0000 0.50000  0.00000  0.63192  Biso   1.000  Co
  Co12     1.0000 0.50000  0.00000  0.36808  Biso   1.000  Co
  Cl1      1.0000 0.50000  0.00000  0.50000  Biso   1.000  Cl
  Cl2      1.0000 0.50000  0.50000  0.00000  Biso   1.000  Cl
  Cl3      1.0000 0.00000  0.50000  0.50000  Biso   1.000  Cl
  C49      1.0000 0.35155  0.16474  0.64845  Biso   1.000  C
  C50      1.0000 0.32005  0.22839  0.67995  Biso   1.000  C
  C51      1.0000 0.64845  0.83526  0.64845  Biso   1.000  C
  C52      1.0000 0.67995  0.77161  0.67995  Biso   1.000  C
  C53      1.0000 0.64845  0.16474  0.35155  Biso   1.000  C
  C54      1.0000 0.67995  0.22839  0.32005  Biso   1.000  C
  C55      1.0000 0.35155  0.83526  0.35155  Biso   1.000  C
  C56      1.0000 0.32005  0.77161  0.32005  Biso   1.000  C
  C57      1.0000 0.64845  0.35155  0.16474  Biso   1.000  C
  C58      1.0000 0.67995  0.32005  0.22839  Biso   1.000  C
  C59      1.0000 0.64845  0.64845  0.83526  Biso   1.000  C
  C60      1.0000 0.67995  0.67995  0.77161  Biso   1.000  C
  C61      1.0000 0.35155  0.64845  0.16474  Biso   1.000  C
  C62      1.0000 0.32005  0.67995  0.22839  Biso   1.000  C
  C63      1.0000 0.35155  0.35155  0.83526  Biso   1.000  C
  C64      1.0000 0.32005  0.32005  0.77161  Biso   1.000  C
  C65      1.0000 0.16474  0.64845  0.35155  Biso   1.000  C
  C66      1.0000 0.22839  0.67995  0.32005  Biso   1.000  C
  C67      1.0000 0.83526  0.64845  0.64845  Biso   1.000  C
  C68      1.0000 0.77161  0.67995  0.67995  Biso   1.000  C
  C69      1.0000 0.16474  0.35155  0.64845  Biso   1.000  C
  C70      1.0000 0.22839  0.32005  0.67995  Biso   1.000  C
  C71      1.0000 0.83526  0.35155  0.35155  Biso   1.000  C
  C72      1.0000 0.77161  0.32005  0.32005  Biso   1.000  C
  C73      1.0000 0.16474  0.35155  0.35155  Biso   1.000  C
  C74      1.0000 0.22839  0.32005  0.32005  Biso   1.000  C
  C75      1.0000 0.83526  0.64845  0.35155  Biso   1.000  C
  C76      1.0000 0.77161  0.67995  0.32005  Biso   1.000  C
  C77      1.0000 0.16474  0.64845  0.64845  Biso   1.000  C
  C78      1.0000 0.22839  0.67995  0.67995  Biso   1.000  C
  C79      1.0000 0.83526  0.35155  0.64845  Biso   1.000  C
  C80      1.0000 0.77161  0.32005  0.67995  Biso   1.000  C
  C81      1.0000 0.35155  0.64845  0.83526  Biso   1.000  C
  C82      1.0000 0.32005  0.67995  0.77161  Biso   1.000  C
  C83      1.0000 0.64845  0.64845  0.16474  Biso   1.000  C
  C84      1.0000 0.67995  0.67995  0.22839  Biso   1.000  C
  C85      1.0000 0.64845  0.35155  0.83526  Biso   1.000  C
  C86      1.0000 0.67995  0.32005  0.77161  Biso   1.000  C
  C87      1.0000 0.35155  0.35155  0.16474  Biso   1.000  C
  C88      1.0000 0.32005  0.32005  0.22839  Biso   1.000  C
  C89      1.0000 0.64845  0.16474  0.64845  Biso   1.000  C
  C90      1.0000 0.67995  0.22839  0.67995  Biso   1.000  C
  C91      1.0000 0.64845  0.83526  0.35155  Biso   1.000  C
  C92      1.0000 0.67995  0.77161  0.32005  Biso   1.000  C
  C93      1.0000 0.35155  0.16474  0.35155  Biso   1.000  C
  C94      1.0000 0.32005  0.22839  0.32005  Biso   1.000  C
  C95      1.0000 0.35155  0.83526  0.64845  Biso   1.000  C
  C96      1.0000 0.32005  0.77161  0.67995  Biso   1.000  C
  C97      1.0000 0.34951  0.25930  0.74070  Biso   1.000  C
  H49      1.0000 0.39050  0.23850  0.76150  Biso   1.000  H
  C98      1.0000 0.65049  0.74070  0.74070  Biso   1.000  C
  H50      1.0000 0.60950  0.76150  0.76150  Biso   1.000  H
  C99      1.0000 0.65049  0.25930  0.25930  Biso   1.000  C
  H51      1.0000 0.60950  0.23850  0.23850  Biso   1.000  H
  C100     1.0000 0.34951  0.74070  0.25930  Biso   1.000  C
  H52      1.0000 0.39050  0.76150  0.23850  Biso   1.000  H
  C101     1.0000 0.74070  0.34951  0.25930  Biso   1.000  C
  H53      1.0000 0.76150  0.39050  0.23850  Biso   1.000  H
  C102     1.0000 0.74070  0.65049  0.74070  Biso   1.000  C
  H54      1.0000 0.76150  0.60950  0.76150  Biso   1.000  H
  C103     1.0000 0.25930  0.65049  0.25930  Biso   1.000  C
  H55      1.0000 0.23850  0.60950  0.23850  Biso   1.000  H
  C104     1.0000 0.25930  0.34951  0.74070  Biso   1.000  C
  H56      1.0000 0.23850  0.39050  0.76150  Biso   1.000  H
  C105     1.0000 0.25930  0.74070  0.34951  Biso   1.000  C
  H57      1.0000 0.23850  0.76150  0.39050  Biso   1.000  H
  C106     1.0000 0.74070  0.74070  0.65049  Biso   1.000  C
  H58      1.0000 0.76150  0.76150  0.60950  Biso   1.000  H
  C107     1.0000 0.25930  0.25930  0.65049  Biso   1.000  C
  H59      1.0000 0.23850  0.23850  0.60950  Biso   1.000  H
  C108     1.0000 0.74070  0.25930  0.34951  Biso   1.000  C
  H60      1.0000 0.76150  0.23850  0.39050  Biso   1.000  H
  C109     1.0000 0.25930  0.34951  0.25930  Biso   1.000  C
  H61      1.0000 0.23850  0.39050  0.23850  Biso   1.000  H
  C110     1.0000 0.74070  0.65049  0.25930  Biso   1.000  C
  H62      1.0000 0.76150  0.60950  0.23850  Biso   1.000  H
  C111     1.0000 0.25930  0.65049  0.74070  Biso   1.000  C
  H63      1.0000 0.23850  0.60950  0.76150  Biso   1.000  H
  C112     1.0000 0.74070  0.34951  0.74070  Biso   1.000  C
  H64      1.0000 0.76150  0.39050  0.76150  Biso   1.000  H
  C113     1.0000 0.34951  0.74070  0.74070  Biso   1.000  C
  H65      1.0000 0.39050  0.76150  0.76150  Biso   1.000  H
  C114     1.0000 0.65049  0.74070  0.25930  Biso   1.000  C
  H66      1.0000 0.60950  0.76150  0.23850  Biso   1.000  H
  C115     1.0000 0.65049  0.25930  0.74070  Biso   1.000  C
  H67      1.0000 0.60950  0.23850  0.76150  Biso   1.000  H
  C116     1.0000 0.34951  0.25930  0.25930  Biso   1.000  C
  H68      1.0000 0.39050  0.23850  0.23850  Biso   1.000  H
  C117     1.0000 0.74070  0.25930  0.65049  Biso   1.000  C
  H69      1.0000 0.76150  0.23850  0.60950  Biso   1.000  H
  C118     1.0000 0.74070  0.74070  0.34951  Biso   1.000  C
  H70      1.0000 0.76150  0.76150  0.39050  Biso   1.000  H
  C119     1.0000 0.25930  0.25930  0.34951  Biso   1.000  C
  H71      1.0000 0.23850  0.23850  0.39050  Biso   1.000  H
  C120     1.0000 0.25930  0.74070  0.65049  Biso   1.000  C
  H72      1.0000 0.23850  0.76150  0.60950  Biso   1.000  H
  Co13     1.0000 0.28080  0.15670  0.50000  Biso   1.000  Co
  Co14     1.0000 0.71920  0.84330  0.50000  Biso   1.000  Co
  Co15     1.0000 0.71920  0.15670  0.50000  Biso   1.000  Co
  Co16     1.0000 0.28080  0.84330  0.50000  Biso   1.000  Co
  Co17     1.0000 0.50000  0.28080  0.15670  Biso   1.000  Co
  Co18     1.0000 0.50000  0.71920  0.84330  Biso   1.000  Co
  Co19     1.0000 0.50000  0.71920  0.15670  Biso   1.000  Co
  Co20     1.0000 0.50000  0.28080  0.84330  Biso   1.000  Co
  Co21     1.0000 0.15670  0.50000  0.28080  Biso   1.000  Co
  Co22     1.0000 0.84330  0.50000  0.71920  Biso   1.000  Co
  Co23     1.0000 0.15670  0.50000  0.71920  Biso   1.000  Co
  Co24     1.0000 0.84330  0.50000  0.28080  Biso   1.000  Co
  Co25     1.0000 0.15670  0.28080  0.50000  Biso   1.000  Co
  Co26     1.0000 0.84330  0.71920  0.50000  Biso   1.000  Co
  Co27     1.0000 0.15670  0.71920  0.50000  Biso   1.000  Co
  Co28     1.0000 0.84330  0.28080  0.50000  Biso   1.000  Co
  Co29     1.0000 0.28080  0.50000  0.84330  Biso   1.000  Co
  Co30     1.0000 0.71920  0.50000  0.15670  Biso   1.000  Co
  Co31     1.0000 0.71920  0.50000  0.84330  Biso   1.000  Co
  Co32     1.0000 0.28080  0.50000  0.15670  Biso   1.000  Co
  Co33     1.0000 0.50000  0.15670  0.71920  Biso   1.000  Co
  Co34     1.0000 0.50000  0.84330  0.28080  Biso   1.000  Co
  Co35     1.0000 0.50000  0.15670  0.28080  Biso   1.000  Co
  Co36     1.0000 0.50000  0.84330  0.71920  Biso   1.000  Co
  O1       1.0000 0.17360  0.17360  0.50000  Biso   1.000  O
  O2       1.0000 0.82640  0.82640  0.50000  Biso   1.000  O
  O3       1.0000 0.82640  0.17360  0.50000  Biso   1.000  O
  O4       1.0000 0.17360  0.82640  0.50000  Biso   1.000  O
  O5       1.0000 0.50000  0.17360  0.17360  Biso   1.000  O
  O6       1.0000 0.50000  0.82640  0.82640  Biso   1.000  O
  O7       1.0000 0.50000  0.82640  0.17360  Biso   1.000  O
  O8       1.0000 0.50000  0.17360  0.82640  Biso   1.000  O
  O9       1.0000 0.17360  0.50000  0.17360  Biso   1.000  O
  O10      1.0000 0.82640  0.50000  0.82640  Biso   1.000  O
  O11      1.0000 0.17360  0.50000  0.82640  Biso   1.000  O
  O12      1.0000 0.82640  0.50000  0.17360  Biso   1.000  O
