data_image0
_cell_length_a       25.7542
_cell_length_b       25.7542
_cell_length_c       6.755
_cell_angle_alpha    90
_cell_angle_beta     90
_cell_angle_gamma    120

_symmetry_space_group_name_H-M    "P 1"
_symmetry_int_tables_number       1

loop_
  _symmetry_equiv_pos_as_xyz
  'x, y, z'

loop_
  _atom_site_label
  _atom_site_occupancy
  _atom_site_fract_x
  _atom_site_fract_y
  _atom_site_fract_z
  _atom_site_thermal_displace_type
  _atom_site_B_iso_or_equiv
  _atom_site_type_symbol
  Ni1      1.0000 0.61862  0.64787  0.35290  Biso   1.000  Ni
  O1       1.0000 0.43786  0.40771  0.43705  Biso   1.000  O
  O2       1.0000 0.36879  0.36541  0.21820  Biso   1.000  O
  O3       1.0000 0.61356  0.58369  0.15751  Biso   1.000  O
  C1       1.0000 0.41774  0.40726  0.25516  Biso   1.000  C
  C2       1.0000 0.46225  0.45323  0.11848  Biso   1.000  C
  C3       1.0000 0.55904  0.54874  0.07910  Biso   1.000  C
  C4       1.0000 0.51743  0.49729  0.19457  Biso   1.000  C
  H1       1.0000 0.52800  0.49324  0.32766  Biso   1.000  H
  Ni2      1.0000 0.28529  0.98120  0.68623  Biso   1.000  Ni
  O4       1.0000 0.10453  0.74104  0.77038  Biso   1.000  O
  O5       1.0000 0.03546  0.69874  0.55153  Biso   1.000  O
  O6       1.0000 0.28023  0.91702  0.49084  Biso   1.000  O
  C5       1.0000 0.08441  0.74059  0.58849  Biso   1.000  C
  C6       1.0000 0.12892  0.78656  0.45181  Biso   1.000  C
  C7       1.0000 0.22571  0.88207  0.41243  Biso   1.000  C
  C8       1.0000 0.18410  0.83062  0.52790  Biso   1.000  C
  H2       1.0000 0.19467  0.82657  0.66099  Biso   1.000  H
  Ni3      1.0000 0.95195  0.31454  0.01957  Biso   1.000  Ni
  O7       1.0000 0.77119  0.07438  0.10372  Biso   1.000  O
  O8       1.0000 0.70212  0.03208  0.88487  Biso   1.000  O
  O9       1.0000 0.94689  0.25036  0.82418  Biso   1.000  O
  C9       1.0000 0.75107  0.07393  0.92183  Biso   1.000  C
  C10      1.0000 0.79558  0.11990  0.78515  Biso   1.000  C
  C11      1.0000 0.89237  0.21541  0.74577  Biso   1.000  C
  C12      1.0000 0.85076  0.16396  0.86124  Biso   1.000  C
  H3       1.0000 0.86133  0.15991  0.99433  Biso   1.000  H
  Ni4      1.0000 0.35213  0.97075  0.35290  Biso   1.000  Ni
  O10      1.0000 0.59229  0.03015  0.43705  Biso   1.000  O
  O11      1.0000 0.63459  0.00338  0.21820  Biso   1.000  O
  O12      1.0000 0.41631  0.02987  0.15751  Biso   1.000  O
  C13      1.0000 0.59274  0.01048  0.25516  Biso   1.000  C
  C14      1.0000 0.54677  0.00902  0.11848  Biso   1.000  C
  C15      1.0000 0.45126  0.01030  0.07910  Biso   1.000  C
  C16      1.0000 0.50271  0.02014  0.19457  Biso   1.000  C
  H4       1.0000 0.50676  0.03476  0.32766  Biso   1.000  H
  Ni5      1.0000 0.01880  0.30408  0.68623  Biso   1.000  Ni
  O13      1.0000 0.25896  0.36348  0.77038  Biso   1.000  O
  O14      1.0000 0.30126  0.33671  0.55153  Biso   1.000  O
  O15      1.0000 0.08298  0.36320  0.49084  Biso   1.000  O
  C17      1.0000 0.25941  0.34381  0.58849  Biso   1.000  C
  C18      1.0000 0.21344  0.34235  0.45181  Biso   1.000  C
  C19      1.0000 0.11793  0.34363  0.41243  Biso   1.000  C
  C20      1.0000 0.16938  0.35347  0.52790  Biso   1.000  C
  H5       1.0000 0.17343  0.36809  0.66099  Biso   1.000  H
  Ni6      1.0000 0.68546  0.63742  0.01957  Biso   1.000  Ni
  O16      1.0000 0.92562  0.69682  0.10372  Biso   1.000  O
  O17      1.0000 0.96792  0.67005  0.88487  Biso   1.000  O
  O18      1.0000 0.74964  0.69654  0.82418  Biso   1.000  O
  C21      1.0000 0.92607  0.67715  0.92183  Biso   1.000  C
  C22      1.0000 0.88010  0.67569  0.78515  Biso   1.000  C
  C23      1.0000 0.78459  0.67697  0.74577  Biso   1.000  C
  C24      1.0000 0.83604  0.68681  0.86124  Biso   1.000  C
  H6       1.0000 0.84009  0.70143  0.99433  Biso   1.000  H
  Ni7      1.0000 0.02925  0.38138  0.35290  Biso   1.000  Ni
  O19      1.0000 0.96985  0.56214  0.43705  Biso   1.000  O
  O20      1.0000 0.99662  0.63121  0.21820  Biso   1.000  O
  O21      1.0000 0.97013  0.38644  0.15751  Biso   1.000  O
  C25      1.0000 0.98952  0.58226  0.25516  Biso   1.000  C
  C26      1.0000 0.99098  0.53775  0.11848  Biso   1.000  C
  C27      1.0000 0.98970  0.44096  0.07910  Biso   1.000  C
  C28      1.0000 0.97986  0.48257  0.19457  Biso   1.000  C
  H7       1.0000 0.96524  0.47200  0.32766  Biso   1.000  H
  Ni8      1.0000 0.69592  0.71471  0.68623  Biso   1.000  Ni
  O22      1.0000 0.63652  0.89547  0.77038  Biso   1.000  O
  O23      1.0000 0.66329  0.96454  0.55153  Biso   1.000  O
  O24      1.0000 0.63680  0.71977  0.49084  Biso   1.000  O
  C29      1.0000 0.65619  0.91559  0.58849  Biso   1.000  C
  C30      1.0000 0.65765  0.87108  0.45181  Biso   1.000  C
  C31      1.0000 0.65637  0.77429  0.41243  Biso   1.000  C
  C32      1.0000 0.64653  0.81590  0.52790  Biso   1.000  C
  H8       1.0000 0.63191  0.80533  0.66099  Biso   1.000  H
  Ni9      1.0000 0.36258  0.04805  0.01957  Biso   1.000  Ni
  O25      1.0000 0.30318  0.22881  0.10372  Biso   1.000  O
  O26      1.0000 0.32995  0.29788  0.88487  Biso   1.000  O
  O27      1.0000 0.30346  0.05311  0.82418  Biso   1.000  O
  C33      1.0000 0.32285  0.24893  0.92183  Biso   1.000  C
  C34      1.0000 0.32431  0.20442  0.78515  Biso   1.000  C
  C35      1.0000 0.32303  0.10763  0.74577  Biso   1.000  C
  C36      1.0000 0.31319  0.14924  0.86124  Biso   1.000  C
  H9       1.0000 0.29857  0.13867  0.99433  Biso   1.000  H
  Ni10     1.0000 0.38138  0.35213  0.64710  Biso   1.000  Ni
  O28      1.0000 0.56214  0.59229  0.56295  Biso   1.000  O
  O29      1.0000 0.63121  0.63459  0.78180  Biso   1.000  O
  O30      1.0000 0.38644  0.41631  0.84249  Biso   1.000  O
  C37      1.0000 0.58226  0.59274  0.74484  Biso   1.000  C
  C38      1.0000 0.53775  0.54677  0.88152  Biso   1.000  C
  C39      1.0000 0.44096  0.45126  0.92090  Biso   1.000  C
  C40      1.0000 0.48257  0.50271  0.80543  Biso   1.000  C
  H10      1.0000 0.47200  0.50676  0.67234  Biso   1.000  H
  Ni11     1.0000 0.04805  0.68546  0.98043  Biso   1.000  Ni
  O31      1.0000 0.22881  0.92562  0.89628  Biso   1.000  O
  O32      1.0000 0.29788  0.96792  0.11513  Biso   1.000  O
  O33      1.0000 0.05311  0.74964  0.17582  Biso   1.000  O
  C41      1.0000 0.24893  0.92607  0.07817  Biso   1.000  C
  C42      1.0000 0.20442  0.88010  0.21485  Biso   1.000  C
  C43      1.0000 0.10763  0.78459  0.25423  Biso   1.000  C
  C44      1.0000 0.14924  0.83604  0.13876  Biso   1.000  C
  H11      1.0000 0.13867  0.84009  0.00567  Biso   1.000  H
  Ni12     1.0000 0.71471  0.01880  0.31377  Biso   1.000  Ni
  O34      1.0000 0.89547  0.25896  0.22962  Biso   1.000  O
  O35      1.0000 0.96454  0.30126  0.44847  Biso   1.000  O
  O36      1.0000 0.71977  0.08298  0.50916  Biso   1.000  O
  C45      1.0000 0.91559  0.25941  0.41151  Biso   1.000  C
  C46      1.0000 0.87108  0.21344  0.54819  Biso   1.000  C
  C47      1.0000 0.77429  0.11793  0.58757  Biso   1.000  C
  C48      1.0000 0.81590  0.16938  0.47210  Biso   1.000  C
  H12      1.0000 0.80533  0.17343  0.33901  Biso   1.000  H
  Ni13     1.0000 0.64787  0.02925  0.64710  Biso   1.000  Ni
  O37      1.0000 0.40771  0.96985  0.56295  Biso   1.000  O
  O38      1.0000 0.36541  0.99662  0.78180  Biso   1.000  O
  O39      1.0000 0.58369  0.97013  0.84249  Biso   1.000  O
  C49      1.0000 0.40726  0.98952  0.74484  Biso   1.000  C
  C50      1.0000 0.45323  0.99098  0.88152  Biso   1.000  C
  C51      1.0000 0.54874  0.98970  0.92090  Biso   1.000  C
  C52      1.0000 0.49729  0.97986  0.80543  Biso   1.000  C
  H13      1.0000 0.49324  0.96524  0.67234  Biso   1.000  H
  Ni14     1.0000 0.31454  0.36258  0.98043  Biso   1.000  Ni
  O40      1.0000 0.07438  0.30318  0.89628  Biso   1.000  O
  O41      1.0000 0.03208  0.32995  0.11513  Biso   1.000  O
  O42      1.0000 0.25036  0.30346  0.17582  Biso   1.000  O
  C53      1.0000 0.07393  0.32285  0.07817  Biso   1.000  C
  C54      1.0000 0.11990  0.32431  0.21485  Biso   1.000  C
  C55      1.0000 0.21541  0.32303  0.25423  Biso   1.000  C
  C56      1.0000 0.16396  0.31319  0.13876  Biso   1.000  C
  H14      1.0000 0.15991  0.29857  0.00567  Biso   1.000  H
  Ni15     1.0000 0.98120  0.69592  0.31377  Biso   1.000  Ni
  O43      1.0000 0.74104  0.63652  0.22962  Biso   1.000  O
  O44      1.0000 0.69874  0.66329  0.44847  Biso   1.000  O
  O45      1.0000 0.91702  0.63680  0.50916  Biso   1.000  O
  C57      1.0000 0.74059  0.65619  0.41151  Biso   1.000  C
  C58      1.0000 0.78656  0.65765  0.54819  Biso   1.000  C
  C59      1.0000 0.88207  0.65637  0.58757  Biso   1.000  C
  C60      1.0000 0.83062  0.64653  0.47210  Biso   1.000  C
  H15      1.0000 0.82657  0.63191  0.33901  Biso   1.000  H
  Ni16     1.0000 0.97075  0.61862  0.64710  Biso   1.000  Ni
  O46      1.0000 0.03015  0.43786  0.56295  Biso   1.000  O
  O47      1.0000 0.00338  0.36879  0.78180  Biso   1.000  O
  O48      1.0000 0.02987  0.61356  0.84249  Biso   1.000  O
  C61      1.0000 0.01048  0.41774  0.74484  Biso   1.000  C
  C62      1.0000 0.00902  0.46225  0.88152  Biso   1.000  C
  C63      1.0000 0.01030  0.55904  0.92090  Biso   1.000  C
  C64      1.0000 0.02014  0.51743  0.80543  Biso   1.000  C
  H16      1.0000 0.03476  0.52800  0.67234  Biso   1.000  H
  Ni17     1.0000 0.63742  0.95195  0.98043  Biso   1.000  Ni
  O49      1.0000 0.69682  0.77119  0.89628  Biso   1.000  O
  O50      1.0000 0.67005  0.70212  0.11513  Biso   1.000  O
  O51      1.0000 0.69654  0.94689  0.17582  Biso   1.000  O
  C65      1.0000 0.67715  0.75107  0.07817  Biso   1.000  C
  C66      1.0000 0.67569  0.79558  0.21485  Biso   1.000  C
  C67      1.0000 0.67697  0.89237  0.25423  Biso   1.000  C
  C68      1.0000 0.68681  0.85076  0.13876  Biso   1.000  C
  H17      1.0000 0.70143  0.86133  0.00567  Biso   1.000  H
  Ni18     1.0000 0.30408  0.28529  0.31377  Biso   1.000  Ni
  O52      1.0000 0.36348  0.10453  0.22962  Biso   1.000  O
  O53      1.0000 0.33671  0.03546  0.44847  Biso   1.000  O
  O54      1.0000 0.36320  0.28023  0.50916  Biso   1.000  O
  C69      1.0000 0.34381  0.08441  0.41151  Biso   1.000  C
  C70      1.0000 0.34235  0.12892  0.54819  Biso   1.000  C
  C71      1.0000 0.34363  0.22571  0.58757  Biso   1.000  C
  C72      1.0000 0.35347  0.18410  0.47210  Biso   1.000  C
  H18      1.0000 0.36809  0.19467  0.33901  Biso   1.000  H
