data_AQUCOF_clean
_audit_creation_date              2014-07-02
_audit_creation_method            'Materials Studio'
_symmetry_space_group_name_H-M    'P1'
_symmetry_Int_Tables_number       1
_symmetry_cell_setting            triclinic
loop_
_symmetry_equiv_pos_as_xyz
  x,y,z
_cell_length_a                    11.4029
_cell_length_b                    12.9964
_cell_length_c                    23.0570
_cell_angle_alpha                 90.0000
_cell_angle_beta                  90.0000
_cell_angle_gamma                 111.6360
loop_
_atom_site_label
_atom_site_type_symbol
_atom_site_fract_x
_atom_site_fract_y
_atom_site_fract_z
_atom_site_U_iso_or_equiv
_atom_site_adp_type
_atom_site_occupancy
Cu1    Cu    0.03090   0.40950   0.44309   0.01267  Uiso   1.00
Cu2    Cu    0.77900   0.05990   0.93868   0.01267  Uiso   1.00
Cu3    Cu    0.71810   0.54120   0.97288   0.01267  Uiso   1.00
Cu4    Cu    0.10760   0.93420   0.48365   0.01267  Uiso   1.00
Cu5    Cu    0.41550   0.39950   0.31891   0.01267  Uiso   1.00
Cu6    Cu    0.51320   0.16850   0.75250   0.01267  Uiso   1.00
Cu7    Cu    0.53090   0.90950   0.55691   0.01267  Uiso   1.00
Cu8    Cu    0.27900   0.55990   0.06132   0.01267  Uiso   1.00
Cu9    Cu    0.21810   0.04120   0.02712   0.01267  Uiso   1.00
Cu10   Cu    0.60760   0.43420   0.51635   0.01267  Uiso   1.00
Cu11   Cu    0.91550   0.89950   0.68109   0.01267  Uiso   1.00
Cu12   Cu    0.01320   0.66850   0.24750   0.01267  Uiso   1.00
H1     H     0.59540   0.66040   0.90020   0.01267  Uiso   1.00
H2     H     0.92780   0.03390   0.52830   0.01267  Uiso   1.00
H3     H     0.19810   0.64700   0.38090   0.01267  Uiso   1.00
H4     H     0.89820   0.19650   0.51950   0.01267  Uiso   1.00
H5     H     0.19580   0.12620   0.40730   0.01267  Uiso   1.00
H6     H     0.21860   0.81930   0.40390   0.01267  Uiso   1.00
H7     H     0.07060   0.97570   0.80040   0.01267  Uiso   1.00
H8     H     0.89590   0.26470   0.01820   0.01267  Uiso   1.00
H9     H     0.89240   0.76610   0.99800   0.01267  Uiso   1.00
H10    H     0.65290   0.36580   0.90090   0.01267  Uiso   1.00
H11    H     0.35190   0.05750   0.64980   0.01267  Uiso   1.00
H12    H     0.29040   0.06550   0.81710   0.01267  Uiso   1.00
H13    H     0.60740   0.84550   0.89270   0.01267  Uiso   1.00
H14    H     0.93780   0.71250   0.51510   0.01267  Uiso   1.00
H15    H     0.88910   0.44160   0.02040   0.01267  Uiso   1.00
H16    H     0.09540   0.16040   0.09980   0.01267  Uiso   1.00
H17    H     0.42780   0.53390   0.47170   0.01267  Uiso   1.00
H18    H     0.69810   0.14700   0.61910   0.01267  Uiso   1.00
H19    H     0.39820   0.69650   0.48050   0.01267  Uiso   1.00
H20    H     0.69580   0.62620   0.59270   0.01267  Uiso   1.00
H21    H     0.71860   0.31930   0.59610   0.01267  Uiso   1.00
H22    H     0.57060   0.47570   0.19960   0.01267  Uiso   1.00
H23    H     0.39590   0.76470   0.98180   0.01267  Uiso   1.00
H24    H     0.39240   0.26610   0.00200   0.01267  Uiso   1.00
H25    H     0.15290   0.86580   0.09910   0.01267  Uiso   1.00
H26    H     0.85190   0.55750   0.35020   0.01267  Uiso   1.00
H27    H     0.79040   0.56550   0.18290   0.01267  Uiso   1.00
H28    H     0.10740   0.34550   0.10730   0.01267  Uiso   1.00
H29    H     0.43780   0.21250   0.48490   0.01267  Uiso   1.00
H30    H     0.38910   0.94160   0.97960   0.01267  Uiso   1.00
C1     C     0.10900   0.24100   0.42560   0.01267  Uiso   1.00
C2     C     0.63100   0.13800   0.88140   0.01267  Uiso   1.00
C3     C     0.70300   0.24100   0.91970   0.01267  Uiso   1.00
C4     C     0.97500   0.58800   0.47780   0.01267  Uiso   1.00
C5     C     0.65700   0.71600   0.92040   0.01267  Uiso   1.00
C6     C     0.18800   0.32100   0.38460   0.01267  Uiso   1.00
C7     C     0.97500   0.08500   0.50100   0.01267  Uiso   1.00
C8     C     0.14700   0.65900   0.40920   0.01267  Uiso   1.00
C9     C     0.95800   0.18300   0.49650   0.01267  Uiso   1.00
C10    C     0.13300   0.13800   0.42920   0.01267  Uiso   1.00
C11    C     0.15600   0.76000   0.42230   0.01267  Uiso   1.00
C12    C     0.12800   0.99300   0.76980   0.01267  Uiso   1.00
C13    C     0.84300   0.28200   0.99220   0.01267  Uiso   1.00
C14    C     0.82900   0.77700   0.97670   0.01267  Uiso   1.00
C15    C     0.70000   0.34400   0.92760   0.01267  Uiso   1.00
C16    C     0.83500   0.88000   0.96860   0.01267  Uiso   1.00
C17    C     0.93600   0.98100   0.99680   0.01267  Uiso   1.00
C18    C     0.88900   0.49200   0.50810   0.01267  Uiso   1.00
C19    C     0.12500   0.96400   0.61090   0.01267  Uiso   1.00
C20    C     0.29700   0.04200   0.68120   0.01267  Uiso   1.00
C21    C     0.26100   0.04700   0.77940   0.01267  Uiso   1.00
C22    C     0.66800   0.82900   0.91360   0.01267  Uiso   1.00
C23    C     0.99100   0.69800   0.48850   0.01267  Uiso   1.00
C24    C     0.17700   0.99400   0.67130   0.01267  Uiso   1.00
C25    C     0.83500   0.38800   0.99590   0.01267  Uiso   1.00
C26    C     0.60900   0.74100   0.57440   0.01267  Uiso   1.00
C27    C     0.13100   0.63800   0.11860   0.01267  Uiso   1.00
C28    C     0.20300   0.74100   0.08030   0.01267  Uiso   1.00
C29    C     0.47500   0.08800   0.52220   0.01267  Uiso   1.00
C30    C     0.15700   0.21600   0.07960   0.01267  Uiso   1.00
C31    C     0.68800   0.82100   0.61540   0.01267  Uiso   1.00
C32    C     0.47500   0.58500   0.49900   0.01267  Uiso   1.00
C33    C     0.64700   0.15900   0.59080   0.01267  Uiso   1.00
C34    C     0.45800   0.68300   0.50350   0.01267  Uiso   1.00
C35    C     0.63300   0.63800   0.57080   0.01267  Uiso   1.00
C36    C     0.65600   0.26000   0.57770   0.01267  Uiso   1.00
C37    C     0.62800   0.49300   0.23020   0.01267  Uiso   1.00
C38    C     0.34300   0.78200   0.00780   0.01267  Uiso   1.00
C39    C     0.32900   0.27700   0.02330   0.01267  Uiso   1.00
C40    C     0.20000   0.84400   0.07240   0.01267  Uiso   1.00
C41    C     0.33500   0.38000   0.03140   0.01267  Uiso   1.00
C42    C     0.43600   0.48100   0.00320   0.01267  Uiso   1.00
C43    C     0.38900   0.99200   0.49190   0.01267  Uiso   1.00
C44    C     0.62500   0.46400   0.38910   0.01267  Uiso   1.00
C45    C     0.79700   0.54200   0.31880   0.01267  Uiso   1.00
C46    C     0.76100   0.54700   0.22060   0.01267  Uiso   1.00
C47    C     0.16800   0.32900   0.08640   0.01267  Uiso   1.00
C48    C     0.49100   0.19800   0.51150   0.01267  Uiso   1.00
C49    C     0.67700   0.49400   0.32870   0.01267  Uiso   1.00
C50    C     0.33500   0.88800   0.00410   0.01267  Uiso   1.00
N1     N     0.75200   0.41100   0.96590   0.01267  Uiso   1.00
N2     N     0.03000   0.26200   0.45790   0.01267  Uiso   1.00
N3     N     0.05400   0.56400   0.43870   0.01267  Uiso   1.00
N4     N     0.07900   0.78300   0.46180   0.01267  Uiso   1.00
N5     N     0.08800   0.96700   0.71320   0.01267  Uiso   1.00
N6     N     0.75300   0.90100   0.93430   0.01267  Uiso   1.00
N7     N     0.78400   0.21200   0.95530   0.01267  Uiso   1.00
N8     N     0.73600   0.69000   0.95580   0.01267  Uiso   1.00
N9     N     0.34800   0.07300   0.73480   0.01267  Uiso   1.00
N10    N     0.05700   0.05900   0.46760   0.01267  Uiso   1.00
N11    N     0.25200   0.91100   0.03410   0.01267  Uiso   1.00
N12    N     0.53000   0.76200   0.54210   0.01267  Uiso   1.00
N13    N     0.55400   0.06400   0.56130   0.01267  Uiso   1.00
N14    N     0.57900   0.28300   0.53820   0.01267  Uiso   1.00
N15    N     0.58800   0.46700   0.28680   0.01267  Uiso   1.00
N16    N     0.25300   0.40100   0.06570   0.01267  Uiso   1.00
N17    N     0.28400   0.71200   0.04470   0.01267  Uiso   1.00
N18    N     0.23600   0.19000   0.04420   0.01267  Uiso   1.00
N19    N     0.84800   0.57300   0.26520   0.01267  Uiso   1.00
N20    N     0.55700   0.55900   0.53240   0.01267  Uiso   1.00
O1     O     0.18900   0.97820   0.56880   0.01267  Uiso   1.00
O2     O     0.65150   0.05650   0.88140   0.01267  Uiso   1.00
O3     O     0.55500   0.15500   0.84350   0.01267  Uiso   1.00
O4     O     0.26310   0.30490   0.35250   0.01267  Uiso   1.00
O5     O     0.17400   0.42000   0.39110   0.01267  Uiso   1.00
O6     O     0.90040   0.39930   0.49810   0.01267  Uiso   1.00
O7     O     0.92100   0.07000   0.98910   0.01267  Uiso   1.00
O8     O     0.02300   0.96400   0.02140   0.01267  Uiso   1.00
O9     O     0.81020   0.50660   0.54110   0.01267  Uiso   1.00
O10    O     0.99760   0.91470   0.60590   0.01267  Uiso   1.00
O11    O     0.68900   0.47820   0.43120   0.01267  Uiso   1.00
O12    O     0.15150   0.55650   0.11860   0.01267  Uiso   1.00
O13    O     0.05500   0.65500   0.15650   0.01267  Uiso   1.00
O14    O     0.76310   0.80490   0.64750   0.01267  Uiso   1.00
O15    O     0.67400   0.92000   0.60890   0.01267  Uiso   1.00
O16    O     0.40040   0.89930   0.50190   0.01267  Uiso   1.00
O17    O     0.42100   0.57000   0.01090   0.01267  Uiso   1.00
O18    O     0.52300   0.46400   0.97860   0.01267  Uiso   1.00
O19    O     0.31020   0.00660   0.45890   0.01267  Uiso   1.00
O20    O     0.49760   0.41470   0.39410   0.01267  Uiso   1.00
