data_image0
_cell_length_a       28.6315
_cell_length_b       9.2743
_cell_length_c       9.2833
_cell_angle_alpha    90
_cell_angle_beta     116.615
_cell_angle_gamma    90

_symmetry_space_group_name_H-M    "P 1"
_symmetry_int_tables_number       1

loop_
  _symmetry_equiv_pos_as_xyz
  'x, y, z'

loop_
  _atom_site_label
  _atom_site_occupancy
  _atom_site_fract_x
  _atom_site_fract_y
  _atom_site_fract_z
  _atom_site_thermal_displace_type
  _atom_site_B_iso_or_equiv
  _atom_site_type_symbol
  Cu1      1.0000 0.18764  0.82690  0.31030  Biso   1.000  Cu
  O1       1.0000 0.12710  0.06640  0.33400  Biso   1.000  O
  O2       1.0000 0.13720  0.17600  0.56210  Biso   1.000  O
  N1       1.0000 0.22080  0.01100  0.73290  Biso   1.000  N
  N2       1.0000 0.25770  0.90820  0.78840  Biso   1.000  N
  N3       1.0000 0.25120  0.82470  0.66520  Biso   1.000  N
  N4       1.0000 0.21090  0.87220  0.53260  Biso   1.000  N
  N5       1.0000 0.14220  0.66140  0.31890  Biso   1.000  N
  C1       1.0000 0.14820  0.08440  0.48050  Biso   1.000  C
  C2       1.0000 0.19280  0.98640  0.57670  Biso   1.000  C
  C3       1.0000 0.11100  0.71980  0.37720  Biso   1.000  C
  C4       1.0000 0.07400  0.64380  0.40470  Biso   1.000  C
  C5       1.0000 0.06917  0.49740  0.36890  Biso   1.000  C
  C6       1.0000 0.10070  0.43350  0.30860  Biso   1.000  C
  C7       1.0000 0.13660  0.51930  0.28540  Biso   1.000  C
  C8       1.0000 0.02973  0.40770  0.39570  Biso   1.000  C
  H1       1.0000 0.11471  0.82105  0.40141  Biso   1.000  H
  H2       1.0000 0.05266  0.69030  0.44649  Biso   1.000  H
  H3       1.0000 0.09778  0.33250  0.28353  Biso   1.000  H
  H4       1.0000 0.15835  0.47530  0.24373  Biso   1.000  H
  H5       1.0000 0.04751  0.34796  0.48906  Biso   1.000  H
  H6       1.0000 0.00576  0.47011  0.41195  Biso   1.000  H
  H7       1.0000 0.02411  0.25380  0.23120  Biso   1.000  H
  Cu2      1.0000 0.68764  0.32690  0.31030  Biso   1.000  Cu
  O3       1.0000 0.62710  0.56640  0.33400  Biso   1.000  O
  O4       1.0000 0.63720  0.67600  0.56210  Biso   1.000  O
  N6       1.0000 0.72080  0.51100  0.73290  Biso   1.000  N
  N7       1.0000 0.75770  0.40820  0.78840  Biso   1.000  N
  N8       1.0000 0.75120  0.32470  0.66520  Biso   1.000  N
  N9       1.0000 0.71090  0.37220  0.53260  Biso   1.000  N
  N10      1.0000 0.64220  0.16140  0.31890  Biso   1.000  N
  C9       1.0000 0.64820  0.58440  0.48050  Biso   1.000  C
  C10      1.0000 0.69280  0.48640  0.57670  Biso   1.000  C
  C11      1.0000 0.61100  0.21980  0.37720  Biso   1.000  C
  C12      1.0000 0.57400  0.14380  0.40470  Biso   1.000  C
  C13      1.0000 0.56917  0.99740  0.36890  Biso   1.000  C
  C14      1.0000 0.60070  0.93350  0.30860  Biso   1.000  C
  C15      1.0000 0.63660  0.01930  0.28540  Biso   1.000  C
  C16      1.0000 0.52973  0.90770  0.39570  Biso   1.000  C
  H8       1.0000 0.61471  0.32105  0.40141  Biso   1.000  H
  H9       1.0000 0.55266  0.19030  0.44649  Biso   1.000  H
  H10      1.0000 0.59778  0.83250  0.28353  Biso   1.000  H
  H11      1.0000 0.65835  0.97530  0.24373  Biso   1.000  H
  H12      1.0000 0.54751  0.84796  0.48906  Biso   1.000  H
  H13      1.0000 0.50576  0.97011  0.41195  Biso   1.000  H
  H14      1.0000 0.52411  0.75380  0.23120  Biso   1.000  H
  Cu3      1.0000 0.81236  0.82690  0.18970  Biso   1.000  Cu
  O5       1.0000 0.87290  0.06640  0.16600  Biso   1.000  O
  O6       1.0000 0.86280  0.17600  0.93790  Biso   1.000  O
  N11      1.0000 0.77920  0.01100  0.76710  Biso   1.000  N
  N12      1.0000 0.74230  0.90820  0.71160  Biso   1.000  N
  N13      1.0000 0.74880  0.82470  0.83480  Biso   1.000  N
  N14      1.0000 0.78910  0.87220  0.96740  Biso   1.000  N
  N15      1.0000 0.85780  0.66140  0.18110  Biso   1.000  N
  C17      1.0000 0.85180  0.08440  0.01950  Biso   1.000  C
  C18      1.0000 0.80720  0.98640  0.92330  Biso   1.000  C
  C19      1.0000 0.88900  0.71980  0.12280  Biso   1.000  C
  C20      1.0000 0.92600  0.64380  0.09530  Biso   1.000  C
  C21      1.0000 0.93083  0.49740  0.13110  Biso   1.000  C
  C22      1.0000 0.89930  0.43350  0.19140  Biso   1.000  C
  C23      1.0000 0.86340  0.51930  0.21460  Biso   1.000  C
  C24      1.0000 0.97027  0.40770  0.10430  Biso   1.000  C
  H15      1.0000 0.88529  0.82105  0.09859  Biso   1.000  H
  H16      1.0000 0.94734  0.69030  0.05351  Biso   1.000  H
  H17      1.0000 0.90222  0.33250  0.21647  Biso   1.000  H
  H18      1.0000 0.84165  0.47530  0.25627  Biso   1.000  H
  H19      1.0000 0.95249  0.34796  0.01094  Biso   1.000  H
  H20      1.0000 0.99424  0.47011  0.08805  Biso   1.000  H
  H21      1.0000 0.97589  0.25380  0.26880  Biso   1.000  H
  Cu4      1.0000 0.31236  0.32690  0.18970  Biso   1.000  Cu
  O7       1.0000 0.37290  0.56640  0.16600  Biso   1.000  O
  O8       1.0000 0.36280  0.67600  0.93790  Biso   1.000  O
  N16      1.0000 0.27920  0.51100  0.76710  Biso   1.000  N
  N17      1.0000 0.24230  0.40820  0.71160  Biso   1.000  N
  N18      1.0000 0.24880  0.32470  0.83480  Biso   1.000  N
  N19      1.0000 0.28910  0.37220  0.96740  Biso   1.000  N
  N20      1.0000 0.35780  0.16140  0.18110  Biso   1.000  N
  C25      1.0000 0.35180  0.58440  0.01950  Biso   1.000  C
  C26      1.0000 0.30720  0.48640  0.92330  Biso   1.000  C
  C27      1.0000 0.38900  0.21980  0.12280  Biso   1.000  C
  C28      1.0000 0.42600  0.14380  0.09530  Biso   1.000  C
  C29      1.0000 0.43083  0.99740  0.13110  Biso   1.000  C
  C30      1.0000 0.39930  0.93350  0.19140  Biso   1.000  C
  C31      1.0000 0.36340  0.01930  0.21460  Biso   1.000  C
  C32      1.0000 0.47027  0.90770  0.10430  Biso   1.000  C
  H22      1.0000 0.38529  0.32105  0.09859  Biso   1.000  H
  H23      1.0000 0.44734  0.19030  0.05351  Biso   1.000  H
  H24      1.0000 0.40222  0.83250  0.21647  Biso   1.000  H
  H25      1.0000 0.34165  0.97530  0.25627  Biso   1.000  H
  H26      1.0000 0.45249  0.84796  0.01094  Biso   1.000  H
  H27      1.0000 0.49424  0.97011  0.08805  Biso   1.000  H
  H28      1.0000 0.47589  0.75380  0.26880  Biso   1.000  H
  Cu5      1.0000 0.81236  0.17310  0.68970  Biso   1.000  Cu
  O9       1.0000 0.87290  0.93360  0.66600  Biso   1.000  O
  O10      1.0000 0.86280  0.82400  0.43790  Biso   1.000  O
  N21      1.0000 0.77920  0.98900  0.26710  Biso   1.000  N
  N22      1.0000 0.74230  0.09180  0.21160  Biso   1.000  N
  N23      1.0000 0.74880  0.17530  0.33480  Biso   1.000  N
  N24      1.0000 0.78910  0.12780  0.46740  Biso   1.000  N
  N25      1.0000 0.85780  0.33860  0.68110  Biso   1.000  N
  C33      1.0000 0.85180  0.91560  0.51950  Biso   1.000  C
  C34      1.0000 0.80720  0.01360  0.42330  Biso   1.000  C
  C35      1.0000 0.88900  0.28020  0.62280  Biso   1.000  C
  C36      1.0000 0.92600  0.35620  0.59530  Biso   1.000  C
  C37      1.0000 0.93083  0.50260  0.63110  Biso   1.000  C
  C38      1.0000 0.89930  0.56650  0.69140  Biso   1.000  C
  C39      1.0000 0.86340  0.48070  0.71460  Biso   1.000  C
  C40      1.0000 0.97027  0.59230  0.60430  Biso   1.000  C
  H29      1.0000 0.88529  0.17895  0.59859  Biso   1.000  H
  H30      1.0000 0.94734  0.30970  0.55351  Biso   1.000  H
  H31      1.0000 0.90222  0.66750  0.71647  Biso   1.000  H
  H32      1.0000 0.84165  0.52470  0.75627  Biso   1.000  H
  H33      1.0000 0.95249  0.65204  0.51094  Biso   1.000  H
  H34      1.0000 0.99424  0.52989  0.58805  Biso   1.000  H
  H35      1.0000 0.97589  0.74620  0.76880  Biso   1.000  H
  Cu6      1.0000 0.31236  0.67310  0.68970  Biso   1.000  Cu
  O11      1.0000 0.37290  0.43360  0.66600  Biso   1.000  O
  O12      1.0000 0.36280  0.32400  0.43790  Biso   1.000  O
  N26      1.0000 0.27920  0.48900  0.26710  Biso   1.000  N
  N27      1.0000 0.24230  0.59180  0.21160  Biso   1.000  N
  N28      1.0000 0.24880  0.67530  0.33480  Biso   1.000  N
  N29      1.0000 0.28910  0.62780  0.46740  Biso   1.000  N
  N30      1.0000 0.35780  0.83860  0.68110  Biso   1.000  N
  C41      1.0000 0.35180  0.41560  0.51950  Biso   1.000  C
  C42      1.0000 0.30720  0.51360  0.42330  Biso   1.000  C
  C43      1.0000 0.38900  0.78020  0.62280  Biso   1.000  C
  C44      1.0000 0.42600  0.85620  0.59530  Biso   1.000  C
  C45      1.0000 0.43083  0.00260  0.63110  Biso   1.000  C
  C46      1.0000 0.39930  0.06650  0.69140  Biso   1.000  C
  C47      1.0000 0.36340  0.98070  0.71460  Biso   1.000  C
  C48      1.0000 0.47027  0.09230  0.60430  Biso   1.000  C
  H36      1.0000 0.38529  0.67895  0.59859  Biso   1.000  H
  H37      1.0000 0.44734  0.80970  0.55351  Biso   1.000  H
  H38      1.0000 0.40222  0.16750  0.71647  Biso   1.000  H
  H39      1.0000 0.34165  0.02470  0.75627  Biso   1.000  H
  H40      1.0000 0.45249  0.15204  0.51094  Biso   1.000  H
  H41      1.0000 0.49424  0.02989  0.58805  Biso   1.000  H
  H42      1.0000 0.47589  0.24620  0.76880  Biso   1.000  H
  Cu7      1.0000 0.18764  0.17310  0.81030  Biso   1.000  Cu
  O13      1.0000 0.12710  0.93360  0.83400  Biso   1.000  O
  O14      1.0000 0.13720  0.82400  0.06210  Biso   1.000  O
  N31      1.0000 0.22080  0.98900  0.23290  Biso   1.000  N
  N32      1.0000 0.25770  0.09180  0.28840  Biso   1.000  N
  N33      1.0000 0.25120  0.17530  0.16520  Biso   1.000  N
  N34      1.0000 0.21090  0.12780  0.03260  Biso   1.000  N
  N35      1.0000 0.14220  0.33860  0.81890  Biso   1.000  N
  C49      1.0000 0.14820  0.91560  0.98050  Biso   1.000  C
  C50      1.0000 0.19280  0.01360  0.07670  Biso   1.000  C
  C51      1.0000 0.11100  0.28020  0.87720  Biso   1.000  C
  C52      1.0000 0.07400  0.35620  0.90470  Biso   1.000  C
  C53      1.0000 0.06917  0.50260  0.86890  Biso   1.000  C
  C54      1.0000 0.10070  0.56650  0.80860  Biso   1.000  C
  C55      1.0000 0.13660  0.48070  0.78540  Biso   1.000  C
  C56      1.0000 0.02973  0.59230  0.89570  Biso   1.000  C
  H43      1.0000 0.11471  0.17895  0.90141  Biso   1.000  H
  H44      1.0000 0.05266  0.30970  0.94649  Biso   1.000  H
  H45      1.0000 0.09778  0.66750  0.78353  Biso   1.000  H
  H46      1.0000 0.15835  0.52470  0.74373  Biso   1.000  H
  H47      1.0000 0.04751  0.65204  0.98906  Biso   1.000  H
  H48      1.0000 0.00576  0.52989  0.91195  Biso   1.000  H
  H49      1.0000 0.02411  0.74620  0.73120  Biso   1.000  H
  Cu8      1.0000 0.68764  0.67310  0.81030  Biso   1.000  Cu
  O15      1.0000 0.62710  0.43360  0.83400  Biso   1.000  O
  O16      1.0000 0.63720  0.32400  0.06210  Biso   1.000  O
  N36      1.0000 0.72080  0.48900  0.23290  Biso   1.000  N
  N37      1.0000 0.75770  0.59180  0.28840  Biso   1.000  N
  N38      1.0000 0.75120  0.67530  0.16520  Biso   1.000  N
  N39      1.0000 0.71090  0.62780  0.03260  Biso   1.000  N
  N40      1.0000 0.64220  0.83860  0.81890  Biso   1.000  N
  C57      1.0000 0.64820  0.41560  0.98050  Biso   1.000  C
  C58      1.0000 0.69280  0.51360  0.07670  Biso   1.000  C
  C59      1.0000 0.61100  0.78020  0.87720  Biso   1.000  C
  C60      1.0000 0.57400  0.85620  0.90470  Biso   1.000  C
  C61      1.0000 0.56917  0.00260  0.86890  Biso   1.000  C
  C62      1.0000 0.60070  0.06650  0.80860  Biso   1.000  C
  C63      1.0000 0.63660  0.98070  0.78540  Biso   1.000  C
  C64      1.0000 0.52973  0.09230  0.89570  Biso   1.000  C
  H50      1.0000 0.61471  0.67895  0.90141  Biso   1.000  H
  H51      1.0000 0.55266  0.80970  0.94649  Biso   1.000  H
  H52      1.0000 0.59778  0.16750  0.78353  Biso   1.000  H
  H53      1.0000 0.65835  0.02470  0.74373  Biso   1.000  H
  H54      1.0000 0.54751  0.15204  0.98906  Biso   1.000  H
  H55      1.0000 0.50576  0.02989  0.91195  Biso   1.000  H
  H56      1.0000 0.52411  0.24620  0.73120  Biso   1.000  H
  C65      1.0000 0.00000  0.31360  0.25000  Biso   1.000  C
  C66      1.0000 0.50000  0.81360  0.25000  Biso   1.000  C
  C67      1.0000 0.00000  0.68640  0.75000  Biso   1.000  C
  C68      1.0000 0.50000  0.18640  0.75000  Biso   1.000  C
