data_image0
_cell_length_a       21.7899
_cell_length_b       16.6337
_cell_length_c       13.5149
_cell_angle_alpha    90
_cell_angle_beta     93.816
_cell_angle_gamma    90

_symmetry_space_group_name_H-M    "P 1"
_symmetry_int_tables_number       1

loop_
  _symmetry_equiv_pos_as_xyz
  'x, y, z'

loop_
  _atom_site_label
  _atom_site_occupancy
  _atom_site_fract_x
  _atom_site_fract_y
  _atom_site_fract_z
  _atom_site_thermal_displace_type
  _atom_site_B_iso_or_equiv
  _atom_site_type_symbol
  Cd1      1.0000 0.64332  0.24955  0.26697  Biso   1.000  Cd
  C1       1.0000 0.58457  0.11110  0.41470  Biso   1.000  C
  C2       1.0000 0.63600  0.90460  0.67990  Biso   1.000  C
  C3       1.0000 0.76770  0.14960  0.65490  Biso   1.000  C
  C4       1.0000 0.62431  0.08250  0.50470  Biso   1.000  C
  C5       1.0000 0.61005  0.01060  0.55200  Biso   1.000  C
  H1       1.0000 0.57570  0.98080  0.52980  Biso   1.000  H
  C6       1.0000 0.64778  0.98430  0.63260  Biso   1.000  C
  C7       1.0000 0.69830  0.02960  0.66460  Biso   1.000  C
  H2       1.0000 0.72370  0.01140  0.71790  Biso   1.000  H
  C8       1.0000 0.71218  0.10150  0.61950  Biso   1.000  C
  C9       1.0000 0.67440  0.12780  0.53900  Biso   1.000  C
  H3       1.0000 0.68290  0.17620  0.50820  Biso   1.000  H
  C10      1.0000 0.53140  0.39180  0.25090  Biso   1.000  C
  C11      1.0000 0.56590  0.46410  0.25090  Biso   1.000  C
  H4       1.0000 0.60860  0.46410  0.25140  Biso   1.000  H
  C12      1.0000 0.53290  0.53330  0.25000  Biso   1.000  C
  H5       1.0000 0.55360  0.58220  0.24940  Biso   1.000  H
  N1       1.0000 0.55048  0.31430  0.25110  Biso   1.000  N
  O1       1.0000 0.58995  0.18290  0.38940  Biso   1.000  O
  O2       1.0000 0.54867  0.06210  0.37270  Biso   1.000  O
  O3       1.0000 0.58608  0.86880  0.65930  Biso   1.000  O
  O4       1.0000 0.67820  0.87540  0.73590  Biso   1.000  O
  O5       1.0000 0.80588  0.11680  0.71540  Biso   1.000  O
  O6       1.0000 0.77364  0.21840  0.62580  Biso   1.000  O
  Cd2      1.0000 0.14332  0.74955  0.26697  Biso   1.000  Cd
  C13      1.0000 0.08457  0.61110  0.41470  Biso   1.000  C
  C14      1.0000 0.13600  0.40460  0.67990  Biso   1.000  C
  C15      1.0000 0.26770  0.64960  0.65490  Biso   1.000  C
  C16      1.0000 0.12431  0.58250  0.50470  Biso   1.000  C
  C17      1.0000 0.11005  0.51060  0.55200  Biso   1.000  C
  H6       1.0000 0.07570  0.48080  0.52980  Biso   1.000  H
  C18      1.0000 0.14778  0.48430  0.63260  Biso   1.000  C
  C19      1.0000 0.19830  0.52960  0.66460  Biso   1.000  C
  H7       1.0000 0.22370  0.51140  0.71790  Biso   1.000  H
  C20      1.0000 0.21218  0.60150  0.61950  Biso   1.000  C
  C21      1.0000 0.17440  0.62780  0.53900  Biso   1.000  C
  H8       1.0000 0.18290  0.67620  0.50820  Biso   1.000  H
  C22      1.0000 0.03140  0.89180  0.25090  Biso   1.000  C
  C23      1.0000 0.06590  0.96410  0.25090  Biso   1.000  C
  H9       1.0000 0.10860  0.96410  0.25140  Biso   1.000  H
  C24      1.0000 0.03290  0.03330  0.25000  Biso   1.000  C
  H10      1.0000 0.05360  0.08220  0.24940  Biso   1.000  H
  N2       1.0000 0.05048  0.81430  0.25110  Biso   1.000  N
  O7       1.0000 0.08995  0.68290  0.38940  Biso   1.000  O
  O8       1.0000 0.04867  0.56210  0.37270  Biso   1.000  O
  O9       1.0000 0.08608  0.36880  0.65930  Biso   1.000  O
  O10      1.0000 0.17820  0.37540  0.73590  Biso   1.000  O
  O11      1.0000 0.30588  0.61680  0.71540  Biso   1.000  O
  O12      1.0000 0.27364  0.71840  0.62580  Biso   1.000  O
  Cd3      1.0000 0.35668  0.24955  0.23303  Biso   1.000  Cd
  C25      1.0000 0.41543  0.11110  0.08530  Biso   1.000  C
  C26      1.0000 0.36400  0.90460  0.82010  Biso   1.000  C
  C27      1.0000 0.23230  0.14960  0.84510  Biso   1.000  C
  C28      1.0000 0.37569  0.08250  0.99530  Biso   1.000  C
  C29      1.0000 0.38995  0.01060  0.94800  Biso   1.000  C
  H11      1.0000 0.42430  0.98080  0.97020  Biso   1.000  H
  C30      1.0000 0.35222  0.98430  0.86740  Biso   1.000  C
  C31      1.0000 0.30170  0.02960  0.83540  Biso   1.000  C
  H12      1.0000 0.27630  0.01140  0.78210  Biso   1.000  H
  C32      1.0000 0.28782  0.10150  0.88050  Biso   1.000  C
  C33      1.0000 0.32560  0.12780  0.96100  Biso   1.000  C
  H13      1.0000 0.31710  0.17620  0.99180  Biso   1.000  H
  C34      1.0000 0.46860  0.39180  0.24910  Biso   1.000  C
  C35      1.0000 0.43410  0.46410  0.24910  Biso   1.000  C
  H14      1.0000 0.39140  0.46410  0.24860  Biso   1.000  H
  C36      1.0000 0.46710  0.53330  0.25000  Biso   1.000  C
  H15      1.0000 0.44640  0.58220  0.25060  Biso   1.000  H
  N3       1.0000 0.44952  0.31430  0.24890  Biso   1.000  N
  O13      1.0000 0.41005  0.18290  0.11060  Biso   1.000  O
  O14      1.0000 0.45133  0.06210  0.12730  Biso   1.000  O
  O15      1.0000 0.41392  0.86880  0.84070  Biso   1.000  O
  O16      1.0000 0.32180  0.87540  0.76410  Biso   1.000  O
  O17      1.0000 0.19412  0.11680  0.78460  Biso   1.000  O
  O18      1.0000 0.22636  0.21840  0.87420  Biso   1.000  O
  Cd4      1.0000 0.85668  0.74955  0.23303  Biso   1.000  Cd
  C37      1.0000 0.91543  0.61110  0.08530  Biso   1.000  C
  C38      1.0000 0.86400  0.40460  0.82010  Biso   1.000  C
  C39      1.0000 0.73230  0.64960  0.84510  Biso   1.000  C
  C40      1.0000 0.87569  0.58250  0.99530  Biso   1.000  C
  C41      1.0000 0.88995  0.51060  0.94800  Biso   1.000  C
  H16      1.0000 0.92430  0.48080  0.97020  Biso   1.000  H
  C42      1.0000 0.85222  0.48430  0.86740  Biso   1.000  C
  C43      1.0000 0.80170  0.52960  0.83540  Biso   1.000  C
  H17      1.0000 0.77630  0.51140  0.78210  Biso   1.000  H
  C44      1.0000 0.78782  0.60150  0.88050  Biso   1.000  C
  C45      1.0000 0.82560  0.62780  0.96100  Biso   1.000  C
  H18      1.0000 0.81710  0.67620  0.99180  Biso   1.000  H
  C46      1.0000 0.96860  0.89180  0.24910  Biso   1.000  C
  C47      1.0000 0.93410  0.96410  0.24910  Biso   1.000  C
  H19      1.0000 0.89140  0.96410  0.24860  Biso   1.000  H
  C48      1.0000 0.96710  0.03330  0.25000  Biso   1.000  C
  H20      1.0000 0.94640  0.08220  0.25060  Biso   1.000  H
  N4       1.0000 0.94952  0.81430  0.24890  Biso   1.000  N
  O19      1.0000 0.91005  0.68290  0.11060  Biso   1.000  O
  O20      1.0000 0.95133  0.56210  0.12730  Biso   1.000  O
  O21      1.0000 0.91392  0.36880  0.84070  Biso   1.000  O
  O22      1.0000 0.82180  0.37540  0.76410  Biso   1.000  O
  O23      1.0000 0.69412  0.61680  0.78460  Biso   1.000  O
  O24      1.0000 0.72636  0.71840  0.87420  Biso   1.000  O
  Cd5      1.0000 0.35668  0.75045  0.73303  Biso   1.000  Cd
  C49      1.0000 0.41543  0.88890  0.58530  Biso   1.000  C
  C50      1.0000 0.36400  0.09540  0.32010  Biso   1.000  C
  C51      1.0000 0.23230  0.85040  0.34510  Biso   1.000  C
  C52      1.0000 0.37569  0.91750  0.49530  Biso   1.000  C
  C53      1.0000 0.38995  0.98940  0.44800  Biso   1.000  C
  H21      1.0000 0.42430  0.01920  0.47020  Biso   1.000  H
  C54      1.0000 0.35222  0.01570  0.36740  Biso   1.000  C
  C55      1.0000 0.30170  0.97040  0.33540  Biso   1.000  C
  H22      1.0000 0.27630  0.98860  0.28210  Biso   1.000  H
  C56      1.0000 0.28782  0.89850  0.38050  Biso   1.000  C
  C57      1.0000 0.32560  0.87220  0.46100  Biso   1.000  C
  H23      1.0000 0.31710  0.82380  0.49180  Biso   1.000  H
  C58      1.0000 0.46860  0.60820  0.74910  Biso   1.000  C
  C59      1.0000 0.43410  0.53590  0.74910  Biso   1.000  C
  H24      1.0000 0.39140  0.53590  0.74860  Biso   1.000  H
  C60      1.0000 0.46710  0.46670  0.75000  Biso   1.000  C
  H25      1.0000 0.44640  0.41780  0.75060  Biso   1.000  H
  N5       1.0000 0.44952  0.68570  0.74890  Biso   1.000  N
  O25      1.0000 0.41005  0.81710  0.61060  Biso   1.000  O
  O26      1.0000 0.45133  0.93790  0.62730  Biso   1.000  O
  O27      1.0000 0.41392  0.13120  0.34070  Biso   1.000  O
  O28      1.0000 0.32180  0.12460  0.26410  Biso   1.000  O
  O29      1.0000 0.19412  0.88320  0.28460  Biso   1.000  O
  O30      1.0000 0.22636  0.78160  0.37420  Biso   1.000  O
  Cd6      1.0000 0.85668  0.25045  0.73303  Biso   1.000  Cd
  C61      1.0000 0.91543  0.38890  0.58530  Biso   1.000  C
  C62      1.0000 0.86400  0.59540  0.32010  Biso   1.000  C
  C63      1.0000 0.73230  0.35040  0.34510  Biso   1.000  C
  C64      1.0000 0.87569  0.41750  0.49530  Biso   1.000  C
  C65      1.0000 0.88995  0.48940  0.44800  Biso   1.000  C
  H26      1.0000 0.92430  0.51920  0.47020  Biso   1.000  H
  C66      1.0000 0.85222  0.51570  0.36740  Biso   1.000  C
  C67      1.0000 0.80170  0.47040  0.33540  Biso   1.000  C
  H27      1.0000 0.77630  0.48860  0.28210  Biso   1.000  H
  C68      1.0000 0.78782  0.39850  0.38050  Biso   1.000  C
  C69      1.0000 0.82560  0.37220  0.46100  Biso   1.000  C
  H28      1.0000 0.81710  0.32380  0.49180  Biso   1.000  H
  C70      1.0000 0.96860  0.10820  0.74910  Biso   1.000  C
  C71      1.0000 0.93410  0.03590  0.74910  Biso   1.000  C
  H29      1.0000 0.89140  0.03590  0.74860  Biso   1.000  H
  C72      1.0000 0.96710  0.96670  0.75000  Biso   1.000  C
  H30      1.0000 0.94640  0.91780  0.75060  Biso   1.000  H
  N6       1.0000 0.94952  0.18570  0.74890  Biso   1.000  N
  O31      1.0000 0.91005  0.31710  0.61060  Biso   1.000  O
  O32      1.0000 0.95133  0.43790  0.62730  Biso   1.000  O
  O33      1.0000 0.91392  0.63120  0.34070  Biso   1.000  O
  O34      1.0000 0.82180  0.62460  0.26410  Biso   1.000  O
  O35      1.0000 0.69412  0.38320  0.28460  Biso   1.000  O
  O36      1.0000 0.72636  0.28160  0.37420  Biso   1.000  O
  Cd7      1.0000 0.64332  0.75045  0.76697  Biso   1.000  Cd
  C73      1.0000 0.58457  0.88890  0.91470  Biso   1.000  C
  C74      1.0000 0.63600  0.09540  0.17990  Biso   1.000  C
  C75      1.0000 0.76770  0.85040  0.15490  Biso   1.000  C
  C76      1.0000 0.62431  0.91750  0.00470  Biso   1.000  C
  C77      1.0000 0.61005  0.98940  0.05200  Biso   1.000  C
  H31      1.0000 0.57570  0.01920  0.02980  Biso   1.000  H
  C78      1.0000 0.64778  0.01570  0.13260  Biso   1.000  C
  C79      1.0000 0.69830  0.97040  0.16460  Biso   1.000  C
  H32      1.0000 0.72370  0.98860  0.21790  Biso   1.000  H
  C80      1.0000 0.71218  0.89850  0.11950  Biso   1.000  C
  C81      1.0000 0.67440  0.87220  0.03900  Biso   1.000  C
  H33      1.0000 0.68290  0.82380  0.00820  Biso   1.000  H
  C82      1.0000 0.53140  0.60820  0.75090  Biso   1.000  C
  C83      1.0000 0.56590  0.53590  0.75090  Biso   1.000  C
  H34      1.0000 0.60860  0.53590  0.75140  Biso   1.000  H
  C84      1.0000 0.53290  0.46670  0.75000  Biso   1.000  C
  H35      1.0000 0.55360  0.41780  0.74940  Biso   1.000  H
  N7       1.0000 0.55048  0.68570  0.75110  Biso   1.000  N
  O37      1.0000 0.58995  0.81710  0.88940  Biso   1.000  O
  O38      1.0000 0.54867  0.93790  0.87270  Biso   1.000  O
  O39      1.0000 0.58608  0.13120  0.15930  Biso   1.000  O
  O40      1.0000 0.67820  0.12460  0.23590  Biso   1.000  O
  O41      1.0000 0.80588  0.88320  0.21540  Biso   1.000  O
  O42      1.0000 0.77364  0.78160  0.12580  Biso   1.000  O
  Cd8      1.0000 0.14332  0.25045  0.76697  Biso   1.000  Cd
  C85      1.0000 0.08457  0.38890  0.91470  Biso   1.000  C
  C86      1.0000 0.13600  0.59540  0.17990  Biso   1.000  C
  C87      1.0000 0.26770  0.35040  0.15490  Biso   1.000  C
  C88      1.0000 0.12431  0.41750  0.00470  Biso   1.000  C
  C89      1.0000 0.11005  0.48940  0.05200  Biso   1.000  C
  H36      1.0000 0.07570  0.51920  0.02980  Biso   1.000  H
  C90      1.0000 0.14778  0.51570  0.13260  Biso   1.000  C
  C91      1.0000 0.19830  0.47040  0.16460  Biso   1.000  C
  H37      1.0000 0.22370  0.48860  0.21790  Biso   1.000  H
  C92      1.0000 0.21218  0.39850  0.11950  Biso   1.000  C
  C93      1.0000 0.17440  0.37220  0.03900  Biso   1.000  C
  H38      1.0000 0.18290  0.32380  0.00820  Biso   1.000  H
  C94      1.0000 0.03140  0.10820  0.75090  Biso   1.000  C
  C95      1.0000 0.06590  0.03590  0.75090  Biso   1.000  C
  H39      1.0000 0.10860  0.03590  0.75140  Biso   1.000  H
  C96      1.0000 0.03290  0.96670  0.75000  Biso   1.000  C
  H40      1.0000 0.05360  0.91780  0.74940  Biso   1.000  H
  N8       1.0000 0.05048  0.18570  0.75110  Biso   1.000  N
  O43      1.0000 0.08995  0.31710  0.88940  Biso   1.000  O
  O44      1.0000 0.04867  0.43790  0.87270  Biso   1.000  O
  O45      1.0000 0.08608  0.63120  0.15930  Biso   1.000  O
  O46      1.0000 0.17820  0.62460  0.23590  Biso   1.000  O
  O47      1.0000 0.30588  0.38320  0.21540  Biso   1.000  O
  O48      1.0000 0.27364  0.28160  0.12580  Biso   1.000  O
  Cd9      1.0000 0.50000  0.13271  0.25000  Biso   1.000  Cd
  N9       1.0000 0.50000  0.27040  0.25000  Biso   1.000  N
  Cd10     1.0000 0.00000  0.63271  0.25000  Biso   1.000  Cd
  N10      1.0000 0.00000  0.77040  0.25000  Biso   1.000  N
  Cd11     1.0000 0.50000  0.86729  0.75000  Biso   1.000  Cd
  N11      1.0000 0.50000  0.72960  0.75000  Biso   1.000  N
  Cd12     1.0000 0.00000  0.36729  0.75000  Biso   1.000  Cd
  N12      1.0000 0.00000  0.22960  0.75000  Biso   1.000  N
