data_image0
_cell_length_a       22.538
_cell_length_b       7.044
_cell_length_c       13.772
_cell_angle_alpha    90
_cell_angle_beta     90
_cell_angle_gamma    90

_symmetry_space_group_name_H-M    "P 1"
_symmetry_int_tables_number       1

loop_
  _symmetry_equiv_pos_as_xyz
  'x, y, z'

loop_
  _atom_site_label
  _atom_site_occupancy
  _atom_site_fract_x
  _atom_site_fract_y
  _atom_site_fract_z
  _atom_site_thermal_displace_type
  _atom_site_B_iso_or_equiv
  _atom_site_type_symbol
  N1       1.0000 0.93758  0.34430  0.93610  Biso   1.000  N
  H1       1.0000 0.87830  0.53310  0.87820  Biso   1.000  H
  C1       1.0000 0.88937  0.40460  0.88870  Biso   1.000  C
  C2       1.0000 0.77640  0.41250  0.77730  Biso   1.000  C
  H2       1.0000 0.79340  0.53040  0.79600  Biso   1.000  H
  N2       1.0000 0.88937  0.09540  0.88870  Biso   1.000  N
  N3       1.0000 0.43758  0.84430  0.43610  Biso   1.000  N
  H3       1.0000 0.37830  0.03310  0.37820  Biso   1.000  H
  C3       1.0000 0.38937  0.90460  0.38870  Biso   1.000  C
  C4       1.0000 0.27640  0.91250  0.27730  Biso   1.000  C
  H4       1.0000 0.29340  0.03040  0.29600  Biso   1.000  H
  N4       1.0000 0.38937  0.59540  0.38870  Biso   1.000  N
  N5       1.0000 0.06242  0.15570  0.93610  Biso   1.000  N
  H5       1.0000 0.12170  0.96690  0.87820  Biso   1.000  H
  C5       1.0000 0.11063  0.09540  0.88870  Biso   1.000  C
  C6       1.0000 0.22360  0.08750  0.77730  Biso   1.000  C
  H6       1.0000 0.20660  0.96960  0.79600  Biso   1.000  H
  N6       1.0000 0.11063  0.40460  0.88870  Biso   1.000  N
  N7       1.0000 0.56242  0.65570  0.43610  Biso   1.000  N
  H7       1.0000 0.62170  0.46690  0.37820  Biso   1.000  H
  C7       1.0000 0.61063  0.59540  0.38870  Biso   1.000  C
  C8       1.0000 0.72360  0.58750  0.27730  Biso   1.000  C
  H8       1.0000 0.70660  0.46960  0.29600  Biso   1.000  H
  N8       1.0000 0.61063  0.90460  0.38870  Biso   1.000  N
  N9       1.0000 0.06242  0.84430  0.06390  Biso   1.000  N
  H9       1.0000 0.12170  0.03310  0.12180  Biso   1.000  H
  C9       1.0000 0.11063  0.90460  0.11130  Biso   1.000  C
  C10      1.0000 0.22360  0.91250  0.22270  Biso   1.000  C
  H10      1.0000 0.20660  0.03040  0.20400  Biso   1.000  H
  N10      1.0000 0.11063  0.59540  0.11130  Biso   1.000  N
  N11      1.0000 0.56242  0.34430  0.56390  Biso   1.000  N
  H11      1.0000 0.62170  0.53310  0.62180  Biso   1.000  H
  C11      1.0000 0.61063  0.40460  0.61130  Biso   1.000  C
  C12      1.0000 0.72360  0.41250  0.72270  Biso   1.000  C
  H12      1.0000 0.70660  0.53040  0.70400  Biso   1.000  H
  N12      1.0000 0.61063  0.09540  0.61130  Biso   1.000  N
  N13      1.0000 0.93758  0.65570  0.06390  Biso   1.000  N
  H13      1.0000 0.87830  0.46690  0.12180  Biso   1.000  H
  C13      1.0000 0.88937  0.59540  0.11130  Biso   1.000  C
  C14      1.0000 0.77640  0.58750  0.22270  Biso   1.000  C
  H14      1.0000 0.79340  0.46960  0.20400  Biso   1.000  H
  N14      1.0000 0.88937  0.90460  0.11130  Biso   1.000  N
  N15      1.0000 0.43758  0.15570  0.56390  Biso   1.000  N
  H15      1.0000 0.37830  0.96690  0.62180  Biso   1.000  H
  C15      1.0000 0.38937  0.09540  0.61130  Biso   1.000  C
  C16      1.0000 0.27640  0.08750  0.72270  Biso   1.000  C
  H16      1.0000 0.29340  0.96960  0.70400  Biso   1.000  H
  N16      1.0000 0.38937  0.40460  0.61130  Biso   1.000  N
  N17      1.0000 0.06242  0.65570  0.06390  Biso   1.000  N
  H17      1.0000 0.12170  0.46690  0.12180  Biso   1.000  H
  C17      1.0000 0.22360  0.58750  0.22270  Biso   1.000  C
  H18      1.0000 0.20660  0.46960  0.20400  Biso   1.000  H
  N18      1.0000 0.56242  0.15570  0.56390  Biso   1.000  N
  H19      1.0000 0.62170  0.96690  0.62180  Biso   1.000  H
  C18      1.0000 0.72360  0.08750  0.72270  Biso   1.000  C
  H20      1.0000 0.70660  0.96960  0.70400  Biso   1.000  H
  N19      1.0000 0.93758  0.84430  0.06390  Biso   1.000  N
  H21      1.0000 0.87830  0.03310  0.12180  Biso   1.000  H
  C19      1.0000 0.77640  0.91250  0.22270  Biso   1.000  C
  H22      1.0000 0.79340  0.03040  0.20400  Biso   1.000  H
  N20      1.0000 0.43758  0.34430  0.56390  Biso   1.000  N
  H23      1.0000 0.37830  0.53310  0.62180  Biso   1.000  H
  C20      1.0000 0.27640  0.41250  0.72270  Biso   1.000  C
  H24      1.0000 0.29340  0.53040  0.70400  Biso   1.000  H
  N21      1.0000 0.93758  0.15570  0.93610  Biso   1.000  N
  H25      1.0000 0.87830  0.96690  0.87820  Biso   1.000  H
  C21      1.0000 0.77640  0.08750  0.77730  Biso   1.000  C
  H26      1.0000 0.79340  0.96960  0.79600  Biso   1.000  H
  N22      1.0000 0.43758  0.65570  0.43610  Biso   1.000  N
  H27      1.0000 0.37830  0.46690  0.37820  Biso   1.000  H
  C22      1.0000 0.27640  0.58750  0.27730  Biso   1.000  C
  H28      1.0000 0.29340  0.46960  0.29600  Biso   1.000  H
  N23      1.0000 0.06242  0.34430  0.93610  Biso   1.000  N
  H29      1.0000 0.12170  0.53310  0.87820  Biso   1.000  H
  C23      1.0000 0.22360  0.41250  0.77730  Biso   1.000  C
  H30      1.0000 0.20660  0.53040  0.79600  Biso   1.000  H
  N24      1.0000 0.56242  0.84430  0.43610  Biso   1.000  N
  H31      1.0000 0.62170  0.03310  0.37820  Biso   1.000  H
  C24      1.0000 0.72360  0.91250  0.27730  Biso   1.000  C
  H32      1.0000 0.70660  0.03040  0.29600  Biso   1.000  H
  Cu1      1.0000 0.00000  0.50000  0.00000  Biso   1.000  Cu
  Cu2      1.0000 0.50000  0.00000  0.50000  Biso   1.000  Cu
  Cu3      1.0000 0.00000  0.00000  0.00000  Biso   1.000  Cu
  Cu4      1.0000 0.50000  0.50000  0.50000  Biso   1.000  Cu
  C25      1.0000 0.80350  0.25000  0.80380  Biso   1.000  C
  C26      1.0000 0.85930  0.25000  0.85840  Biso   1.000  C
  C27      1.0000 0.30350  0.75000  0.30380  Biso   1.000  C
  C28      1.0000 0.35930  0.75000  0.35840  Biso   1.000  C
  C29      1.0000 0.19650  0.25000  0.80380  Biso   1.000  C
  C30      1.0000 0.14070  0.25000  0.85840  Biso   1.000  C
  C31      1.0000 0.69650  0.75000  0.30380  Biso   1.000  C
  C32      1.0000 0.64070  0.75000  0.35840  Biso   1.000  C
  C33      1.0000 0.19650  0.75000  0.19620  Biso   1.000  C
  C34      1.0000 0.14070  0.75000  0.14160  Biso   1.000  C
  C35      1.0000 0.69650  0.25000  0.69620  Biso   1.000  C
  C36      1.0000 0.64070  0.25000  0.64160  Biso   1.000  C
  C37      1.0000 0.80350  0.75000  0.19620  Biso   1.000  C
  C38      1.0000 0.85930  0.75000  0.14160  Biso   1.000  C
  C39      1.0000 0.30350  0.25000  0.69620  Biso   1.000  C
  C40      1.0000 0.35930  0.25000  0.64160  Biso   1.000  C
