data_image0
_cell_length_a       17.0093
_cell_length_b       11.9939
_cell_length_c       25.0317
_cell_angle_alpha    90
_cell_angle_beta     92.911
_cell_angle_gamma    90

_symmetry_space_group_name_H-M    "P 1"
_symmetry_int_tables_number       1

loop_
  _symmetry_equiv_pos_as_xyz
  'x, y, z'

loop_
  _atom_site_label
  _atom_site_occupancy
  _atom_site_fract_x
  _atom_site_fract_y
  _atom_site_fract_z
  _atom_site_thermal_displace_type
  _atom_site_B_iso_or_equiv
  _atom_site_type_symbol
  Cu1      1.0000 0.04641  0.69513  0.12147  Biso   1.000  Cu
  S1       1.0000 0.77800  0.42600  0.10954  Biso   1.000  S
  S2       1.0000 0.28270  0.46140  0.13616  Biso   1.000  S
  O1       1.0000 0.46160  0.28900  0.09120  Biso   1.000  O
  O2       1.0000 0.96940  0.59050  0.14840  Biso   1.000  O
  O3       1.0000 0.62720  0.31100  0.11540  Biso   1.000  O
  O4       1.0000 0.10450  0.57720  0.04920  Biso   1.000  O
  O5       1.0000 0.13390  0.59130  0.13630  Biso   1.000  O
  O6       1.0000 0.91870  0.53900  0.06890  Biso   1.000  O
  C1       1.0000 0.41660  0.33540  0.12200  Biso   1.000  C
  O7       1.0000 0.42880  0.34640  0.17070  Biso   1.000  O
  C2       1.0000 0.91700  0.54910  0.11760  Biso   1.000  C
  C3       1.0000 0.21920  0.48560  0.08180  Biso   1.000  C
  C4       1.0000 0.14820  0.55250  0.08970  Biso   1.000  C
  C5       1.0000 0.84570  0.50710  0.14510  Biso   1.000  C
  O8       1.0000 0.60890  0.34200  0.20120  Biso   1.000  O
  C6       1.0000 0.34470  0.38200  0.09670  Biso   1.000  C
  C7       1.0000 0.31490  0.38120  0.04480  Biso   1.000  C
  H1       1.0000 0.33890  0.34370  0.01740  Biso   1.000  H
  C8       1.0000 0.64670  0.34550  0.15780  Biso   1.000  C
  C9       1.0000 0.24440  0.44270  0.03670  Biso   1.000  C
  H2       1.0000 0.21840  0.45230  0.00340  Biso   1.000  H
  C10      1.0000 0.72090  0.41500  0.16370  Biso   1.000  C
  C11      1.0000 0.82360  0.53400  0.19440  Biso   1.000  C
  H3       1.0000 0.85150  0.58080  0.21800  Biso   1.000  H
  C12      1.0000 0.75130  0.47900  0.20540  Biso   1.000  C
  H4       1.0000 0.72710  0.48690  0.23770  Biso   1.000  H
  Cu2      1.0000 0.54641  0.19513  0.12147  Biso   1.000  Cu
  S3       1.0000 0.27800  0.92600  0.10954  Biso   1.000  S
  S4       1.0000 0.78270  0.96140  0.13616  Biso   1.000  S
  O9       1.0000 0.96160  0.78900  0.09120  Biso   1.000  O
  O10      1.0000 0.46940  0.09050  0.14840  Biso   1.000  O
  O11      1.0000 0.12720  0.81100  0.11540  Biso   1.000  O
  O12      1.0000 0.60450  0.07720  0.04920  Biso   1.000  O
  O13      1.0000 0.63390  0.09130  0.13630  Biso   1.000  O
  O14      1.0000 0.41870  0.03900  0.06890  Biso   1.000  O
  C13      1.0000 0.91660  0.83540  0.12200  Biso   1.000  C
  O15      1.0000 0.92880  0.84640  0.17070  Biso   1.000  O
  C14      1.0000 0.41700  0.04910  0.11760  Biso   1.000  C
  C15      1.0000 0.71920  0.98560  0.08180  Biso   1.000  C
  C16      1.0000 0.64820  0.05250  0.08970  Biso   1.000  C
  C17      1.0000 0.34570  0.00710  0.14510  Biso   1.000  C
  O16      1.0000 0.10890  0.84200  0.20120  Biso   1.000  O
  C18      1.0000 0.84470  0.88200  0.09670  Biso   1.000  C
  C19      1.0000 0.81490  0.88120  0.04480  Biso   1.000  C
  H5       1.0000 0.83890  0.84370  0.01740  Biso   1.000  H
  C20      1.0000 0.14670  0.84550  0.15780  Biso   1.000  C
  C21      1.0000 0.74440  0.94270  0.03670  Biso   1.000  C
  H6       1.0000 0.71840  0.95230  0.00340  Biso   1.000  H
  C22      1.0000 0.22090  0.91500  0.16370  Biso   1.000  C
  C23      1.0000 0.32360  0.03400  0.19440  Biso   1.000  C
  H7       1.0000 0.35150  0.08080  0.21800  Biso   1.000  H
  C24      1.0000 0.25130  0.97900  0.20540  Biso   1.000  C
  H8       1.0000 0.22710  0.98690  0.23770  Biso   1.000  H
  Cu3      1.0000 0.95359  0.69513  0.37853  Biso   1.000  Cu
  S5       1.0000 0.22200  0.42600  0.39046  Biso   1.000  S
  S6       1.0000 0.71730  0.46140  0.36384  Biso   1.000  S
  O17      1.0000 0.53840  0.28900  0.40880  Biso   1.000  O
  O18      1.0000 0.03060  0.59050  0.35160  Biso   1.000  O
  O19      1.0000 0.37280  0.31100  0.38460  Biso   1.000  O
  O20      1.0000 0.89550  0.57720  0.45080  Biso   1.000  O
  O21      1.0000 0.86610  0.59130  0.36370  Biso   1.000  O
  O22      1.0000 0.08130  0.53900  0.43110  Biso   1.000  O
  C25      1.0000 0.58340  0.33540  0.37800  Biso   1.000  C
  O23      1.0000 0.57120  0.34640  0.32930  Biso   1.000  O
  C26      1.0000 0.08300  0.54910  0.38240  Biso   1.000  C
  C27      1.0000 0.78080  0.48560  0.41820  Biso   1.000  C
  C28      1.0000 0.85180  0.55250  0.41030  Biso   1.000  C
  C29      1.0000 0.15430  0.50710  0.35490  Biso   1.000  C
  O24      1.0000 0.39110  0.34200  0.29880  Biso   1.000  O
  C30      1.0000 0.65530  0.38200  0.40330  Biso   1.000  C
  C31      1.0000 0.68510  0.38120  0.45520  Biso   1.000  C
  H9       1.0000 0.66110  0.34370  0.48260  Biso   1.000  H
  C32      1.0000 0.35330  0.34550  0.34220  Biso   1.000  C
  C33      1.0000 0.75560  0.44270  0.46330  Biso   1.000  C
  H10      1.0000 0.78160  0.45230  0.49660  Biso   1.000  H
  C34      1.0000 0.27910  0.41500  0.33630  Biso   1.000  C
  C35      1.0000 0.17640  0.53400  0.30560  Biso   1.000  C
  H11      1.0000 0.14850  0.58080  0.28200  Biso   1.000  H
  C36      1.0000 0.24870  0.47900  0.29460  Biso   1.000  C
  H12      1.0000 0.27290  0.48690  0.26230  Biso   1.000  H
  Cu4      1.0000 0.45359  0.19513  0.37853  Biso   1.000  Cu
  S7       1.0000 0.72200  0.92600  0.39046  Biso   1.000  S
  S8       1.0000 0.21730  0.96140  0.36384  Biso   1.000  S
  O25      1.0000 0.03840  0.78900  0.40880  Biso   1.000  O
  O26      1.0000 0.53060  0.09050  0.35160  Biso   1.000  O
  O27      1.0000 0.87280  0.81100  0.38460  Biso   1.000  O
  O28      1.0000 0.39550  0.07720  0.45080  Biso   1.000  O
  O29      1.0000 0.36610  0.09130  0.36370  Biso   1.000  O
  O30      1.0000 0.58130  0.03900  0.43110  Biso   1.000  O
  C37      1.0000 0.08340  0.83540  0.37800  Biso   1.000  C
  O31      1.0000 0.07120  0.84640  0.32930  Biso   1.000  O
  C38      1.0000 0.58300  0.04910  0.38240  Biso   1.000  C
  C39      1.0000 0.28080  0.98560  0.41820  Biso   1.000  C
  C40      1.0000 0.35180  0.05250  0.41030  Biso   1.000  C
  C41      1.0000 0.65430  0.00710  0.35490  Biso   1.000  C
  O32      1.0000 0.89110  0.84200  0.29880  Biso   1.000  O
  C42      1.0000 0.15530  0.88200  0.40330  Biso   1.000  C
  C43      1.0000 0.18510  0.88120  0.45520  Biso   1.000  C
  H13      1.0000 0.16110  0.84370  0.48260  Biso   1.000  H
  C44      1.0000 0.85330  0.84550  0.34220  Biso   1.000  C
  C45      1.0000 0.25560  0.94270  0.46330  Biso   1.000  C
  H14      1.0000 0.28160  0.95230  0.49660  Biso   1.000  H
  C46      1.0000 0.77910  0.91500  0.33630  Biso   1.000  C
  C47      1.0000 0.67640  0.03400  0.30560  Biso   1.000  C
  H15      1.0000 0.64850  0.08080  0.28200  Biso   1.000  H
  C48      1.0000 0.74870  0.97900  0.29460  Biso   1.000  C
  H16      1.0000 0.77290  0.98690  0.26230  Biso   1.000  H
  Cu5      1.0000 0.95359  0.30487  0.87853  Biso   1.000  Cu
  S9       1.0000 0.22200  0.57400  0.89046  Biso   1.000  S
  S10      1.0000 0.71730  0.53860  0.86384  Biso   1.000  S
  O33      1.0000 0.53840  0.71100  0.90880  Biso   1.000  O
  O34      1.0000 0.03060  0.40950  0.85160  Biso   1.000  O
  O35      1.0000 0.37280  0.68900  0.88460  Biso   1.000  O
  O36      1.0000 0.89550  0.42280  0.95080  Biso   1.000  O
  O37      1.0000 0.86610  0.40870  0.86370  Biso   1.000  O
  O38      1.0000 0.08130  0.46100  0.93110  Biso   1.000  O
  C49      1.0000 0.58340  0.66460  0.87800  Biso   1.000  C
  O39      1.0000 0.57120  0.65360  0.82930  Biso   1.000  O
  C50      1.0000 0.08300  0.45090  0.88240  Biso   1.000  C
  C51      1.0000 0.78080  0.51440  0.91820  Biso   1.000  C
  C52      1.0000 0.85180  0.44750  0.91030  Biso   1.000  C
  C53      1.0000 0.15430  0.49290  0.85490  Biso   1.000  C
  O40      1.0000 0.39110  0.65800  0.79880  Biso   1.000  O
  C54      1.0000 0.65530  0.61800  0.90330  Biso   1.000  C
  C55      1.0000 0.68510  0.61880  0.95520  Biso   1.000  C
  H17      1.0000 0.66110  0.65630  0.98260  Biso   1.000  H
  C56      1.0000 0.35330  0.65450  0.84220  Biso   1.000  C
  C57      1.0000 0.75560  0.55730  0.96330  Biso   1.000  C
  H18      1.0000 0.78160  0.54770  0.99660  Biso   1.000  H
  C58      1.0000 0.27910  0.58500  0.83630  Biso   1.000  C
  C59      1.0000 0.17640  0.46600  0.80560  Biso   1.000  C
  H19      1.0000 0.14850  0.41920  0.78200  Biso   1.000  H
  C60      1.0000 0.24870  0.52100  0.79460  Biso   1.000  C
  H20      1.0000 0.27290  0.51310  0.76230  Biso   1.000  H
  Cu6      1.0000 0.45359  0.80487  0.87853  Biso   1.000  Cu
  S11      1.0000 0.72200  0.07400  0.89046  Biso   1.000  S
  S12      1.0000 0.21730  0.03860  0.86384  Biso   1.000  S
  O41      1.0000 0.03840  0.21100  0.90880  Biso   1.000  O
  O42      1.0000 0.53060  0.90950  0.85160  Biso   1.000  O
  O43      1.0000 0.87280  0.18900  0.88460  Biso   1.000  O
  O44      1.0000 0.39550  0.92280  0.95080  Biso   1.000  O
  O45      1.0000 0.36610  0.90870  0.86370  Biso   1.000  O
  O46      1.0000 0.58130  0.96100  0.93110  Biso   1.000  O
  C61      1.0000 0.08340  0.16460  0.87800  Biso   1.000  C
  O47      1.0000 0.07120  0.15360  0.82930  Biso   1.000  O
  C62      1.0000 0.58300  0.95090  0.88240  Biso   1.000  C
  C63      1.0000 0.28080  0.01440  0.91820  Biso   1.000  C
  C64      1.0000 0.35180  0.94750  0.91030  Biso   1.000  C
  C65      1.0000 0.65430  0.99290  0.85490  Biso   1.000  C
  O48      1.0000 0.89110  0.15800  0.79880  Biso   1.000  O
  C66      1.0000 0.15530  0.11800  0.90330  Biso   1.000  C
  C67      1.0000 0.18510  0.11880  0.95520  Biso   1.000  C
  H21      1.0000 0.16110  0.15630  0.98260  Biso   1.000  H
  C68      1.0000 0.85330  0.15450  0.84220  Biso   1.000  C
  C69      1.0000 0.25560  0.05730  0.96330  Biso   1.000  C
  H22      1.0000 0.28160  0.04770  0.99660  Biso   1.000  H
  C70      1.0000 0.77910  0.08500  0.83630  Biso   1.000  C
  C71      1.0000 0.67640  0.96600  0.80560  Biso   1.000  C
  H23      1.0000 0.64850  0.91920  0.78200  Biso   1.000  H
  C72      1.0000 0.74870  0.02100  0.79460  Biso   1.000  C
  H24      1.0000 0.77290  0.01310  0.76230  Biso   1.000  H
  Cu7      1.0000 0.04641  0.30487  0.62147  Biso   1.000  Cu
  S13      1.0000 0.77800  0.57400  0.60954  Biso   1.000  S
  S14      1.0000 0.28270  0.53860  0.63616  Biso   1.000  S
  O49      1.0000 0.46160  0.71100  0.59120  Biso   1.000  O
  O50      1.0000 0.96940  0.40950  0.64840  Biso   1.000  O
  O51      1.0000 0.62720  0.68900  0.61540  Biso   1.000  O
  O52      1.0000 0.10450  0.42280  0.54920  Biso   1.000  O
  O53      1.0000 0.13390  0.40870  0.63630  Biso   1.000  O
  O54      1.0000 0.91870  0.46100  0.56890  Biso   1.000  O
  C73      1.0000 0.41660  0.66460  0.62200  Biso   1.000  C
  O55      1.0000 0.42880  0.65360  0.67070  Biso   1.000  O
  C74      1.0000 0.91700  0.45090  0.61760  Biso   1.000  C
  C75      1.0000 0.21920  0.51440  0.58180  Biso   1.000  C
  C76      1.0000 0.14820  0.44750  0.58970  Biso   1.000  C
  C77      1.0000 0.84570  0.49290  0.64510  Biso   1.000  C
  O56      1.0000 0.60890  0.65800  0.70120  Biso   1.000  O
  C78      1.0000 0.34470  0.61800  0.59670  Biso   1.000  C
  C79      1.0000 0.31490  0.61880  0.54480  Biso   1.000  C
  H25      1.0000 0.33890  0.65630  0.51740  Biso   1.000  H
  C80      1.0000 0.64670  0.65450  0.65780  Biso   1.000  C
  C81      1.0000 0.24440  0.55730  0.53670  Biso   1.000  C
  H26      1.0000 0.21840  0.54770  0.50340  Biso   1.000  H
  C82      1.0000 0.72090  0.58500  0.66370  Biso   1.000  C
  C83      1.0000 0.82360  0.46600  0.69440  Biso   1.000  C
  H27      1.0000 0.85150  0.41920  0.71800  Biso   1.000  H
  C84      1.0000 0.75130  0.52100  0.70540  Biso   1.000  C
  H28      1.0000 0.72710  0.51310  0.73770  Biso   1.000  H
  Cu8      1.0000 0.54641  0.80487  0.62147  Biso   1.000  Cu
  S15      1.0000 0.27800  0.07400  0.60954  Biso   1.000  S
  S16      1.0000 0.78270  0.03860  0.63616  Biso   1.000  S
  O57      1.0000 0.96160  0.21100  0.59120  Biso   1.000  O
  O58      1.0000 0.46940  0.90950  0.64840  Biso   1.000  O
  O59      1.0000 0.12720  0.18900  0.61540  Biso   1.000  O
  O60      1.0000 0.60450  0.92280  0.54920  Biso   1.000  O
  O61      1.0000 0.63390  0.90870  0.63630  Biso   1.000  O
  O62      1.0000 0.41870  0.96100  0.56890  Biso   1.000  O
  C85      1.0000 0.91660  0.16460  0.62200  Biso   1.000  C
  O63      1.0000 0.92880  0.15360  0.67070  Biso   1.000  O
  C86      1.0000 0.41700  0.95090  0.61760  Biso   1.000  C
  C87      1.0000 0.71920  0.01440  0.58180  Biso   1.000  C
  C88      1.0000 0.64820  0.94750  0.58970  Biso   1.000  C
  C89      1.0000 0.34570  0.99290  0.64510  Biso   1.000  C
  O64      1.0000 0.10890  0.15800  0.70120  Biso   1.000  O
  C90      1.0000 0.84470  0.11800  0.59670  Biso   1.000  C
  C91      1.0000 0.81490  0.11880  0.54480  Biso   1.000  C
  H29      1.0000 0.83890  0.15630  0.51740  Biso   1.000  H
  C92      1.0000 0.14670  0.15450  0.65780  Biso   1.000  C
  C93      1.0000 0.74440  0.05730  0.53670  Biso   1.000  C
  H30      1.0000 0.71840  0.04770  0.50340  Biso   1.000  H
  C94      1.0000 0.22090  0.08500  0.66370  Biso   1.000  C
  C95      1.0000 0.32360  0.96600  0.69440  Biso   1.000  C
  H31      1.0000 0.35150  0.91920  0.71800  Biso   1.000  H
  C96      1.0000 0.25130  0.02100  0.70540  Biso   1.000  C
  H32      1.0000 0.22710  0.01310  0.73770  Biso   1.000  H
  Ca1      1.0000 0.50000  0.35900  0.25000  Biso   1.000  Ca
  Ca2      1.0000 0.00000  0.85900  0.25000  Biso   1.000  Ca
  Ca3      1.0000 0.50000  0.64100  0.75000  Biso   1.000  Ca
  Ca4      1.0000 0.00000  0.14100  0.75000  Biso   1.000  Ca
  Ca5      1.0000 0.00000  0.50000  0.00000  Biso   1.000  Ca
  Ca6      1.0000 0.50000  0.00000  0.00000  Biso   1.000  Ca
  Ca7      1.0000 0.00000  0.50000  0.50000  Biso   1.000  Ca
  Ca8      1.0000 0.50000  0.00000  0.50000  Biso   1.000  Ca
