data_image0
_cell_length_a       20.586
_cell_length_b       20.586
_cell_length_c       7.522
_cell_angle_alpha    90
_cell_angle_beta     90
_cell_angle_gamma    90

_symmetry_space_group_name_H-M    "P 1"
_symmetry_int_tables_number       1

loop_
  _symmetry_equiv_pos_as_xyz
  'x, y, z'

loop_
  _atom_site_label
  _atom_site_occupancy
  _atom_site_fract_x
  _atom_site_fract_y
  _atom_site_fract_z
  _atom_site_thermal_displace_type
  _atom_site_B_iso_or_equiv
  _atom_site_type_symbol
  N1       1.0000 0.00590  0.42370  0.17320  Biso   1.000  N
  C1       1.0000 0.01780  0.32490  0.43050  Biso   1.000  C
  C2       1.0000 0.96080  0.35530  0.39300  Biso   1.000  C
  H1       1.0000 0.92360  0.34410  0.45640  Biso   1.000  H
  C3       1.0000 0.95740  0.40120  0.26700  Biso   1.000  C
  H2       1.0000 0.91660  0.41870  0.24440  Biso   1.000  H
  C4       1.0000 0.06210  0.39780  0.21490  Biso   1.000  C
  H3       1.0000 0.09870  0.41310  0.15590  Biso   1.000  H
  C5       1.0000 0.02570  0.27420  0.57100  Biso   1.000  C
  N2       1.0000 0.98840  0.27880  0.69400  Biso   1.000  N
  N3       1.0000 0.99090  0.07980  0.34250  Biso   1.000  N
  C6       1.0000 0.97230  0.17810  0.08510  Biso   1.000  C
  C7       1.0000 0.02180  0.13490  0.06920  Biso   1.000  C
  H4       1.0000 0.05040  0.13760  0.97360  Biso   1.000  H
  C8       1.0000 0.02970  0.08600  0.19800  Biso   1.000  C
  H5       1.0000 0.06330  0.05630  0.18310  Biso   1.000  H
  C9       1.0000 0.93290  0.17040  0.22880  Biso   1.000  C
  H6       1.0000 0.89800  0.19850  0.24540  Biso   1.000  H
  C10      1.0000 0.95840  0.22660  0.94950  Biso   1.000  C
  N4       1.0000 0.99760  0.23100  0.82800  Biso   1.000  N
  C11      1.0000 0.07420  0.22420  0.54700  Biso   1.000  C
  H7       1.0000 0.09390  0.21410  0.65930  Biso   1.000  H
  H8       1.0000 0.10690  0.23930  0.46590  Biso   1.000  H
  H9       1.0000 0.05410  0.18590  0.49940  Biso   1.000  H
  C12      1.0000 0.90570  0.27250  0.95000  Biso   1.000  C
  H10      1.0000 0.86900  0.25420  0.88970  Biso   1.000  H
  H11      1.0000 0.91900  0.31160  0.89120  Biso   1.000  H
  H12      1.0000 0.89390  0.28230  0.07090  Biso   1.000  H
  C13      1.0000 0.94400  0.12100  0.35110  Biso   1.000  C
  H13      1.0000 0.91540  0.11750  0.44640  Biso   1.000  H
  C14      1.0000 0.07080  0.35040  0.33700  Biso   1.000  C
  H14      1.0000 0.11240  0.33460  0.35970  Biso   1.000  H
  N5       1.0000 0.99410  0.57630  0.17320  Biso   1.000  N
  C15      1.0000 0.98220  0.67510  0.43050  Biso   1.000  C
  C16      1.0000 0.03920  0.64470  0.39300  Biso   1.000  C
  H15      1.0000 0.07640  0.65590  0.45640  Biso   1.000  H
  C17      1.0000 0.04260  0.59880  0.26700  Biso   1.000  C
  H16      1.0000 0.08340  0.58130  0.24440  Biso   1.000  H
  C18      1.0000 0.93790  0.60220  0.21490  Biso   1.000  C
  H17      1.0000 0.90130  0.58690  0.15590  Biso   1.000  H
  C19      1.0000 0.97430  0.72580  0.57100  Biso   1.000  C
  N6       1.0000 0.01160  0.72120  0.69400  Biso   1.000  N
  N7       1.0000 0.00910  0.92020  0.34250  Biso   1.000  N
  C20      1.0000 0.02770  0.82190  0.08510  Biso   1.000  C
  C21      1.0000 0.97820  0.86510  0.06920  Biso   1.000  C
  H18      1.0000 0.94960  0.86240  0.97360  Biso   1.000  H
  C22      1.0000 0.97030  0.91400  0.19800  Biso   1.000  C
  H19      1.0000 0.93670  0.94370  0.18310  Biso   1.000  H
  C23      1.0000 0.06710  0.82960  0.22880  Biso   1.000  C
  H20      1.0000 0.10200  0.80150  0.24540  Biso   1.000  H
  C24      1.0000 0.04160  0.77340  0.94950  Biso   1.000  C
  N8       1.0000 0.00240  0.76900  0.82800  Biso   1.000  N
  C25      1.0000 0.92580  0.77580  0.54700  Biso   1.000  C
  H21      1.0000 0.90610  0.78590  0.65930  Biso   1.000  H
  H22      1.0000 0.89310  0.76070  0.46590  Biso   1.000  H
  H23      1.0000 0.94590  0.81410  0.49940  Biso   1.000  H
  C26      1.0000 0.09430  0.72750  0.95000  Biso   1.000  C
  H24      1.0000 0.13100  0.74580  0.88970  Biso   1.000  H
  H25      1.0000 0.08100  0.68840  0.89120  Biso   1.000  H
  H26      1.0000 0.10610  0.71770  0.07090  Biso   1.000  H
  C27      1.0000 0.05600  0.87900  0.35110  Biso   1.000  C
  H27      1.0000 0.08460  0.88250  0.44640  Biso   1.000  H
  C28      1.0000 0.92920  0.64960  0.33700  Biso   1.000  C
  H28      1.0000 0.88760  0.66540  0.35970  Biso   1.000  H
  N9       1.0000 0.42370  0.99410  0.82680  Biso   1.000  N
  C29      1.0000 0.32490  0.98220  0.56950  Biso   1.000  C
  C30      1.0000 0.35530  0.03920  0.60700  Biso   1.000  C
  H29      1.0000 0.34410  0.07640  0.54360  Biso   1.000  H
  C31      1.0000 0.40120  0.04260  0.73300  Biso   1.000  C
  H30      1.0000 0.41870  0.08340  0.75560  Biso   1.000  H
  C32      1.0000 0.39780  0.93790  0.78510  Biso   1.000  C
  H31      1.0000 0.41310  0.90130  0.84410  Biso   1.000  H
  C33      1.0000 0.27420  0.97430  0.42900  Biso   1.000  C
  N10      1.0000 0.27880  0.01160  0.30600  Biso   1.000  N
  N11      1.0000 0.07980  0.00910  0.65750  Biso   1.000  N
  C34      1.0000 0.17810  0.02770  0.91490  Biso   1.000  C
  C35      1.0000 0.13490  0.97820  0.93080  Biso   1.000  C
  H32      1.0000 0.13760  0.94960  0.02640  Biso   1.000  H
  C36      1.0000 0.08600  0.97030  0.80200  Biso   1.000  C
  H33      1.0000 0.05630  0.93670  0.81690  Biso   1.000  H
  C37      1.0000 0.17040  0.06710  0.77120  Biso   1.000  C
  H34      1.0000 0.19850  0.10200  0.75460  Biso   1.000  H
  C38      1.0000 0.22660  0.04160  0.05050  Biso   1.000  C
  N12      1.0000 0.23100  0.00240  0.17200  Biso   1.000  N
  C39      1.0000 0.22420  0.92580  0.45300  Biso   1.000  C
  H35      1.0000 0.21410  0.90610  0.34070  Biso   1.000  H
  H36      1.0000 0.23930  0.89310  0.53410  Biso   1.000  H
  H37      1.0000 0.18590  0.94590  0.50060  Biso   1.000  H
  C40      1.0000 0.27250  0.09430  0.05000  Biso   1.000  C
  H38      1.0000 0.25420  0.13100  0.11030  Biso   1.000  H
  H39      1.0000 0.31160  0.08100  0.10880  Biso   1.000  H
  H40      1.0000 0.28230  0.10610  0.92910  Biso   1.000  H
  C41      1.0000 0.12100  0.05600  0.64890  Biso   1.000  C
  H41      1.0000 0.11750  0.08460  0.55360  Biso   1.000  H
  C42      1.0000 0.35040  0.92920  0.66300  Biso   1.000  C
  H42      1.0000 0.33460  0.88760  0.64030  Biso   1.000  H
  N13      1.0000 0.57630  0.00590  0.82680  Biso   1.000  N
  C43      1.0000 0.67510  0.01780  0.56950  Biso   1.000  C
  C44      1.0000 0.64470  0.96080  0.60700  Biso   1.000  C
  H43      1.0000 0.65590  0.92360  0.54360  Biso   1.000  H
  C45      1.0000 0.59880  0.95740  0.73300  Biso   1.000  C
  H44      1.0000 0.58130  0.91660  0.75560  Biso   1.000  H
  C46      1.0000 0.60220  0.06210  0.78510  Biso   1.000  C
  H45      1.0000 0.58690  0.09870  0.84410  Biso   1.000  H
  C47      1.0000 0.72580  0.02570  0.42900  Biso   1.000  C
  N14      1.0000 0.72120  0.98840  0.30600  Biso   1.000  N
  N15      1.0000 0.92020  0.99090  0.65750  Biso   1.000  N
  C48      1.0000 0.82190  0.97230  0.91490  Biso   1.000  C
  C49      1.0000 0.86510  0.02180  0.93080  Biso   1.000  C
  H46      1.0000 0.86240  0.05040  0.02640  Biso   1.000  H
  C50      1.0000 0.91400  0.02970  0.80200  Biso   1.000  C
  H47      1.0000 0.94370  0.06330  0.81690  Biso   1.000  H
  C51      1.0000 0.82960  0.93290  0.77120  Biso   1.000  C
  H48      1.0000 0.80150  0.89800  0.75460  Biso   1.000  H
  C52      1.0000 0.77340  0.95840  0.05050  Biso   1.000  C
  N16      1.0000 0.76900  0.99760  0.17200  Biso   1.000  N
  C53      1.0000 0.77580  0.07420  0.45300  Biso   1.000  C
  H49      1.0000 0.78590  0.09390  0.34070  Biso   1.000  H
  H50      1.0000 0.76070  0.10690  0.53410  Biso   1.000  H
  H51      1.0000 0.81410  0.05410  0.50060  Biso   1.000  H
  C54      1.0000 0.72750  0.90570  0.05000  Biso   1.000  C
  H52      1.0000 0.74580  0.86900  0.11030  Biso   1.000  H
  H53      1.0000 0.68840  0.91900  0.10880  Biso   1.000  H
  H54      1.0000 0.71770  0.89390  0.92910  Biso   1.000  H
  C55      1.0000 0.87900  0.94400  0.64890  Biso   1.000  C
  H55      1.0000 0.88250  0.91540  0.55360  Biso   1.000  H
  C56      1.0000 0.64960  0.07080  0.66300  Biso   1.000  C
  H56      1.0000 0.66540  0.11240  0.64030  Biso   1.000  H
  N17      1.0000 0.50590  0.07630  0.17320  Biso   1.000  N
  C57      1.0000 0.51780  0.17510  0.43050  Biso   1.000  C
  C58      1.0000 0.46080  0.14470  0.39300  Biso   1.000  C
  H57      1.0000 0.42360  0.15590  0.45640  Biso   1.000  H
  C59      1.0000 0.45740  0.09880  0.26700  Biso   1.000  C
  H58      1.0000 0.41660  0.08130  0.24440  Biso   1.000  H
  C60      1.0000 0.56210  0.10220  0.21490  Biso   1.000  C
  H59      1.0000 0.59870  0.08690  0.15590  Biso   1.000  H
  C61      1.0000 0.52570  0.22580  0.57100  Biso   1.000  C
  N18      1.0000 0.48840  0.22120  0.69400  Biso   1.000  N
  N19      1.0000 0.49090  0.42020  0.34250  Biso   1.000  N
  C62      1.0000 0.47230  0.32190  0.08510  Biso   1.000  C
  C63      1.0000 0.52180  0.36510  0.06920  Biso   1.000  C
  H60      1.0000 0.55040  0.36240  0.97360  Biso   1.000  H
  C64      1.0000 0.52970  0.41400  0.19800  Biso   1.000  C
  H61      1.0000 0.56330  0.44370  0.18310  Biso   1.000  H
  C65      1.0000 0.43290  0.32960  0.22880  Biso   1.000  C
  H62      1.0000 0.39800  0.30150  0.24540  Biso   1.000  H
  C66      1.0000 0.45840  0.27340  0.94950  Biso   1.000  C
  N20      1.0000 0.49760  0.26900  0.82800  Biso   1.000  N
  C67      1.0000 0.57420  0.27580  0.54700  Biso   1.000  C
  H63      1.0000 0.59390  0.28590  0.65930  Biso   1.000  H
  H64      1.0000 0.60690  0.26070  0.46590  Biso   1.000  H
  H65      1.0000 0.55410  0.31410  0.49940  Biso   1.000  H
  C68      1.0000 0.40570  0.22750  0.95000  Biso   1.000  C
  H66      1.0000 0.36900  0.24580  0.88970  Biso   1.000  H
  H67      1.0000 0.41900  0.18840  0.89120  Biso   1.000  H
  H68      1.0000 0.39390  0.21770  0.07090  Biso   1.000  H
  C69      1.0000 0.44400  0.37900  0.35110  Biso   1.000  C
  H69      1.0000 0.41540  0.38250  0.44640  Biso   1.000  H
  C70      1.0000 0.57080  0.14960  0.33700  Biso   1.000  C
  H70      1.0000 0.61240  0.16540  0.35970  Biso   1.000  H
  N21      1.0000 0.49410  0.92370  0.17320  Biso   1.000  N
  C71      1.0000 0.48220  0.82490  0.43050  Biso   1.000  C
  C72      1.0000 0.53920  0.85530  0.39300  Biso   1.000  C
  H71      1.0000 0.57640  0.84410  0.45640  Biso   1.000  H
  C73      1.0000 0.54260  0.90120  0.26700  Biso   1.000  C
  H72      1.0000 0.58340  0.91870  0.24440  Biso   1.000  H
  C74      1.0000 0.43790  0.89780  0.21490  Biso   1.000  C
  H73      1.0000 0.40130  0.91310  0.15590  Biso   1.000  H
  C75      1.0000 0.47430  0.77420  0.57100  Biso   1.000  C
  N22      1.0000 0.51160  0.77880  0.69400  Biso   1.000  N
  N23      1.0000 0.50910  0.57980  0.34250  Biso   1.000  N
  C76      1.0000 0.52770  0.67810  0.08510  Biso   1.000  C
  C77      1.0000 0.47820  0.63490  0.06920  Biso   1.000  C
  H74      1.0000 0.44960  0.63760  0.97360  Biso   1.000  H
  C78      1.0000 0.47030  0.58600  0.19800  Biso   1.000  C
  H75      1.0000 0.43670  0.55630  0.18310  Biso   1.000  H
  C79      1.0000 0.56710  0.67040  0.22880  Biso   1.000  C
  H76      1.0000 0.60200  0.69850  0.24540  Biso   1.000  H
  C80      1.0000 0.54160  0.72660  0.94950  Biso   1.000  C
  N24      1.0000 0.50240  0.73100  0.82800  Biso   1.000  N
  C81      1.0000 0.42580  0.72420  0.54700  Biso   1.000  C
  H77      1.0000 0.40610  0.71410  0.65930  Biso   1.000  H
  H78      1.0000 0.39310  0.73930  0.46590  Biso   1.000  H
  H79      1.0000 0.44590  0.68590  0.49940  Biso   1.000  H
  C82      1.0000 0.59430  0.77250  0.95000  Biso   1.000  C
  H80      1.0000 0.63100  0.75420  0.88970  Biso   1.000  H
  H81      1.0000 0.58100  0.81160  0.89120  Biso   1.000  H
  H82      1.0000 0.60610  0.78230  0.07090  Biso   1.000  H
  C83      1.0000 0.55600  0.62100  0.35110  Biso   1.000  C
  H83      1.0000 0.58460  0.61750  0.44640  Biso   1.000  H
  C84      1.0000 0.42920  0.85040  0.33700  Biso   1.000  C
  H84      1.0000 0.38760  0.83460  0.35970  Biso   1.000  H
  N25      1.0000 0.92370  0.50590  0.82680  Biso   1.000  N
  C85      1.0000 0.82490  0.51780  0.56950  Biso   1.000  C
  C86      1.0000 0.85530  0.46080  0.60700  Biso   1.000  C
  H85      1.0000 0.84410  0.42360  0.54360  Biso   1.000  H
  C87      1.0000 0.90120  0.45740  0.73300  Biso   1.000  C
  H86      1.0000 0.91870  0.41660  0.75560  Biso   1.000  H
  C88      1.0000 0.89780  0.56210  0.78510  Biso   1.000  C
  H87      1.0000 0.91310  0.59870  0.84410  Biso   1.000  H
  C89      1.0000 0.77420  0.52570  0.42900  Biso   1.000  C
  N26      1.0000 0.77880  0.48840  0.30600  Biso   1.000  N
  N27      1.0000 0.57980  0.49090  0.65750  Biso   1.000  N
  C90      1.0000 0.67810  0.47230  0.91490  Biso   1.000  C
  C91      1.0000 0.63490  0.52180  0.93080  Biso   1.000  C
  H88      1.0000 0.63760  0.55040  0.02640  Biso   1.000  H
  C92      1.0000 0.58600  0.52970  0.80200  Biso   1.000  C
  H89      1.0000 0.55630  0.56330  0.81690  Biso   1.000  H
  C93      1.0000 0.67040  0.43290  0.77120  Biso   1.000  C
  H90      1.0000 0.69850  0.39800  0.75460  Biso   1.000  H
  C94      1.0000 0.72660  0.45840  0.05050  Biso   1.000  C
  N28      1.0000 0.73100  0.49760  0.17200  Biso   1.000  N
  C95      1.0000 0.72420  0.57420  0.45300  Biso   1.000  C
  H91      1.0000 0.71410  0.59390  0.34070  Biso   1.000  H
  H92      1.0000 0.73930  0.60690  0.53410  Biso   1.000  H
  H93      1.0000 0.68590  0.55410  0.50060  Biso   1.000  H
  C96      1.0000 0.77250  0.40570  0.05000  Biso   1.000  C
  H94      1.0000 0.75420  0.36900  0.11030  Biso   1.000  H
  H95      1.0000 0.81160  0.41900  0.10880  Biso   1.000  H
  H96      1.0000 0.78230  0.39390  0.92910  Biso   1.000  H
  C97      1.0000 0.62100  0.44400  0.64890  Biso   1.000  C
  H97      1.0000 0.61750  0.41540  0.55360  Biso   1.000  H
  C98      1.0000 0.85040  0.57080  0.66300  Biso   1.000  C
  H98      1.0000 0.83460  0.61240  0.64030  Biso   1.000  H
  N29      1.0000 0.07630  0.49410  0.82680  Biso   1.000  N
  C99      1.0000 0.17510  0.48220  0.56950  Biso   1.000  C
  C100     1.0000 0.14470  0.53920  0.60700  Biso   1.000  C
  H99      1.0000 0.15590  0.57640  0.54360  Biso   1.000  H
  C101     1.0000 0.09880  0.54260  0.73300  Biso   1.000  C
  H100     1.0000 0.08130  0.58340  0.75560  Biso   1.000  H
  C102     1.0000 0.10220  0.43790  0.78510  Biso   1.000  C
  H101     1.0000 0.08690  0.40130  0.84410  Biso   1.000  H
  C103     1.0000 0.22580  0.47430  0.42900  Biso   1.000  C
  N30      1.0000 0.22120  0.51160  0.30600  Biso   1.000  N
  N31      1.0000 0.42020  0.50910  0.65750  Biso   1.000  N
  C104     1.0000 0.32190  0.52770  0.91490  Biso   1.000  C
  C105     1.0000 0.36510  0.47820  0.93080  Biso   1.000  C
  H102     1.0000 0.36240  0.44960  0.02640  Biso   1.000  H
  C106     1.0000 0.41400  0.47030  0.80200  Biso   1.000  C
  H103     1.0000 0.44370  0.43670  0.81690  Biso   1.000  H
  C107     1.0000 0.32960  0.56710  0.77120  Biso   1.000  C
  H104     1.0000 0.30150  0.60200  0.75460  Biso   1.000  H
  C108     1.0000 0.27340  0.54160  0.05050  Biso   1.000  C
  N32      1.0000 0.26900  0.50240  0.17200  Biso   1.000  N
  C109     1.0000 0.27580  0.42580  0.45300  Biso   1.000  C
  H105     1.0000 0.28590  0.40610  0.34070  Biso   1.000  H
  H106     1.0000 0.26070  0.39310  0.53410  Biso   1.000  H
  H107     1.0000 0.31410  0.44590  0.50060  Biso   1.000  H
  C110     1.0000 0.22750  0.59430  0.05000  Biso   1.000  C
  H108     1.0000 0.24580  0.63100  0.11030  Biso   1.000  H
  H109     1.0000 0.18840  0.58100  0.10880  Biso   1.000  H
  H110     1.0000 0.21770  0.60610  0.92910  Biso   1.000  H
  C111     1.0000 0.37900  0.55600  0.64890  Biso   1.000  C
  H111     1.0000 0.38250  0.58460  0.55360  Biso   1.000  H
  C112     1.0000 0.14960  0.42920  0.66300  Biso   1.000  C
  H112     1.0000 0.16540  0.38760  0.64030  Biso   1.000  H
  Cu1      1.0000 0.00000  0.00000  0.50000  Biso   1.000  Cu
  Cu2      1.0000 0.50000  0.50000  0.50000  Biso   1.000  Cu
  Cu3      1.0000 0.00000  0.50000  0.00000  Biso   1.000  Cu
  Cu4      1.0000 0.50000  0.00000  0.00000  Biso   1.000  Cu
