data_image0
_cell_length_a       10.142
_cell_length_b       13.222
_cell_length_c       14.872
_cell_angle_alpha    109.018
_cell_angle_beta     101.882
_cell_angle_gamma    98.999

_symmetry_space_group_name_H-M    "P 1"
_symmetry_int_tables_number       1

loop_
  _symmetry_equiv_pos_as_xyz
  'x, y, z'

loop_
  _atom_site_label
  _atom_site_occupancy
  _atom_site_fract_x
  _atom_site_fract_y
  _atom_site_fract_z
  _atom_site_thermal_displace_type
  _atom_site_B_iso_or_equiv
  _atom_site_type_symbol
  Co1      1.0000 0.53003  0.51470  0.14843  Biso   1.000  Co
  C1       1.0000 0.74330  0.73680  0.26100  Biso   1.000  C
  H1       1.0000 0.80580  0.69320  0.24780  Biso   1.000  H
  C2       1.0000 0.79630  0.84660  0.31660  Biso   1.000  C
  H2       1.0000 0.89180  0.87580  0.34020  Biso   1.000  H
  C3       1.0000 0.70580  0.91370  0.33710  Biso   1.000  C
  C4       1.0000 0.56490  0.86330  0.30000  Biso   1.000  C
  H3       1.0000 0.49970  0.90470  0.31170  Biso   1.000  H
  C5       1.0000 0.52320  0.75400  0.24680  Biso   1.000  C
  H4       1.0000 0.42820  0.72240  0.22400  Biso   1.000  H
  C6       1.0000 0.87560  0.09430  0.42490  Biso   1.000  C
  C7       1.0000 0.97820  0.29620  0.50280  Biso   1.000  C
  H5       1.0000 0.03120  0.28760  0.45790  Biso   1.000  H
  C8       1.0000 0.99120  0.39950  0.56910  Biso   1.000  C
  H6       1.0000 0.04960  0.46050  0.56810  Biso   1.000  H
  C9       1.0000 0.91590  0.41130  0.63750  Biso   1.000  C
  C10      1.0000 0.83010  0.32110  0.63900  Biso   1.000  C
  H7       1.0000 0.78120  0.32940  0.68640  Biso   1.000  H
  C11      1.0000 0.81660  0.21910  0.57080  Biso   1.000  C
  H8       1.0000 0.75720  0.15870  0.57210  Biso   1.000  H
  C12      1.0000 0.88840  0.20300  0.50010  Biso   1.000  C
  C13      1.0000 0.00120  0.60990  0.73140  Biso   1.000  C
  C14      1.0000 0.14220  0.62170  0.74570  Biso   1.000  C
  H9       1.0000 0.17970  0.56040  0.73080  Biso   1.000  H
  C15      1.0000 0.22540  0.72590  0.78220  Biso   1.000  C
  H10      1.0000 0.32000  0.73470  0.78840  Biso   1.000  H
  C16      1.0000 0.17350  0.81850  0.81010  Biso   1.000  C
  C17      1.0000 0.02960  0.80330  0.79370  Biso   1.000  C
  H11      1.0000 0.99140  0.86410  0.80940  Biso   1.000  H
  C18      1.0000 0.94580  0.70020  0.75490  Biso   1.000  C
  H12      1.0000 0.85030  0.69060  0.74410  Biso   1.000  H
  C19      1.0000 0.27270  0.92900  0.85320  Biso   1.000  C
  C20      1.0000 0.30680  0.11790  0.97200  Biso   1.000  C
  C21      1.0000 0.43410  0.16340  0.96360  Biso   1.000  C
  H13      1.0000 0.47830  0.12010  0.92270  Biso   1.000  H
  C22      1.0000 0.49300  0.27150  0.01560  Biso   1.000  C
  H14      1.0000 0.57900  0.29950  0.00910  Biso   1.000  H
  C23      1.0000 0.31730  0.29710  0.08280  Biso   1.000  C
  H15      1.0000 0.27430  0.34270  0.12290  Biso   1.000  H
  C24      1.0000 0.25110  0.18760  0.03470  Biso   1.000  C
  H16      1.0000 0.16740  0.16060  0.04490  Biso   1.000  H
  C25      1.0000 0.51540  0.50670  0.31190  Biso   1.000  C
  C26      1.0000 0.50760  0.50260  0.40870  Biso   1.000  C
  C27      1.0000 0.61270  0.48000  0.46680  Biso   1.000  C
  H17      1.0000 0.69030  0.46660  0.44530  Biso   1.000  H
  C28      1.0000 0.39560  0.52320  0.44230  Biso   1.000  C
  H18      1.0000 0.32370  0.53950  0.40370  Biso   1.000  H
  C29      1.0000 0.97550  0.51770  0.09110  Biso   1.000  C
  H19      1.0000 0.95890  0.52990  0.15250  Biso   1.000  H
  C30      1.0000 0.10770  0.52050  0.08190  Biso   1.000  C
  H20      1.0000 0.18020  0.53410  0.13730  Biso   1.000  H
  C31      1.0000 0.13420  0.50360  0.99190  Biso   1.000  C
  C32      1.0000 0.27980  0.51200  0.98250  Biso   1.000  C
  N1       1.0000 0.60780  0.68790  0.22440  Biso   1.000  N
  N2       1.0000 0.74450  0.02530  0.39640  Biso   1.000  N
  N3       1.0000 0.23270  0.00960  0.92150  Biso   1.000  N
  N4       1.0000 0.43920  0.34170  0.07540  Biso   1.000  N
  O1       1.0000 0.96910  0.06800  0.39080  Biso   1.000  O
  O2       1.0000 0.90860  0.51040  0.70330  Biso   1.000  O
  O3       1.0000 0.38150  0.94390  0.83310  Biso   1.000  O
  O4       1.0000 0.62150  0.49380  0.28310  Biso   1.000  O
  O5       1.0000 0.41310  0.52180  0.25770  Biso   1.000  O
  O6       1.0000 0.37520  0.54440  0.06050  Biso   1.000  O
  O7       1.0000 0.29640  0.48830  0.89720  Biso   1.000  O
  Co2      1.0000 0.46997  0.48530  0.85157  Biso   1.000  Co
  C33      1.0000 0.25670  0.26320  0.73900  Biso   1.000  C
  H21      1.0000 0.19420  0.30680  0.75220  Biso   1.000  H
  C34      1.0000 0.20370  0.15340  0.68340  Biso   1.000  C
  H22      1.0000 0.10820  0.12420  0.65980  Biso   1.000  H
  C35      1.0000 0.29420  0.08630  0.66290  Biso   1.000  C
  C36      1.0000 0.43510  0.13670  0.70000  Biso   1.000  C
  H23      1.0000 0.50030  0.09530  0.68830  Biso   1.000  H
  C37      1.0000 0.47680  0.24600  0.75320  Biso   1.000  C
  H24      1.0000 0.57180  0.27760  0.77600  Biso   1.000  H
  C38      1.0000 0.12440  0.90570  0.57510  Biso   1.000  C
  C39      1.0000 0.02180  0.70380  0.49720  Biso   1.000  C
  H25      1.0000 0.96880  0.71240  0.54210  Biso   1.000  H
  C40      1.0000 0.00880  0.60050  0.43090  Biso   1.000  C
  H26      1.0000 0.95040  0.53950  0.43190  Biso   1.000  H
  C41      1.0000 0.08410  0.58870  0.36250  Biso   1.000  C
  C42      1.0000 0.16990  0.67890  0.36100  Biso   1.000  C
  H27      1.0000 0.21880  0.67060  0.31360  Biso   1.000  H
  C43      1.0000 0.18340  0.78090  0.42920  Biso   1.000  C
  H28      1.0000 0.24280  0.84130  0.42790  Biso   1.000  H
  C44      1.0000 0.11160  0.79700  0.49990  Biso   1.000  C
  C45      1.0000 0.99880  0.39010  0.26860  Biso   1.000  C
  C46      1.0000 0.85780  0.37830  0.25430  Biso   1.000  C
  H29      1.0000 0.82030  0.43960  0.26920  Biso   1.000  H
  C47      1.0000 0.77460  0.27410  0.21780  Biso   1.000  C
  H30      1.0000 0.68000  0.26530  0.21160  Biso   1.000  H
  C48      1.0000 0.82650  0.18150  0.18990  Biso   1.000  C
  C49      1.0000 0.97040  0.19670  0.20630  Biso   1.000  C
  H31      1.0000 0.00860  0.13590  0.19060  Biso   1.000  H
  C50      1.0000 0.05420  0.29980  0.24510  Biso   1.000  C
  H32      1.0000 0.14970  0.30940  0.25590  Biso   1.000  H
  C51      1.0000 0.72730  0.07100  0.14680  Biso   1.000  C
  C52      1.0000 0.69320  0.88210  0.02800  Biso   1.000  C
  C53      1.0000 0.56590  0.83660  0.03640  Biso   1.000  C
  H33      1.0000 0.52170  0.87990  0.07730  Biso   1.000  H
  C54      1.0000 0.50700  0.72850  0.98440  Biso   1.000  C
  H34      1.0000 0.42100  0.70050  0.99090  Biso   1.000  H
  C55      1.0000 0.68270  0.70290  0.91720  Biso   1.000  C
  H35      1.0000 0.72570  0.65730  0.87710  Biso   1.000  H
  C56      1.0000 0.74890  0.81240  0.96530  Biso   1.000  C
  H36      1.0000 0.83260  0.83940  0.95510  Biso   1.000  H
  C57      1.0000 0.48460  0.49330  0.68810  Biso   1.000  C
  C58      1.0000 0.49240  0.49740  0.59130  Biso   1.000  C
  C59      1.0000 0.38730  0.52000  0.53320  Biso   1.000  C
  H37      1.0000 0.30970  0.53340  0.55470  Biso   1.000  H
  C60      1.0000 0.60440  0.47680  0.55770  Biso   1.000  C
  H38      1.0000 0.67630  0.46050  0.59630  Biso   1.000  H
  C61      1.0000 0.02450  0.48230  0.90890  Biso   1.000  C
  H39      1.0000 0.04110  0.47010  0.84750  Biso   1.000  H
  C62      1.0000 0.89230  0.47950  0.91810  Biso   1.000  C
  H40      1.0000 0.81980  0.46590  0.86270  Biso   1.000  H
  C63      1.0000 0.86580  0.49640  0.00810  Biso   1.000  C
  C64      1.0000 0.72020  0.48800  0.01750  Biso   1.000  C
  N5       1.0000 0.39220  0.31210  0.77560  Biso   1.000  N
  N6       1.0000 0.25550  0.97470  0.60360  Biso   1.000  N
  N7       1.0000 0.76730  0.99040  0.07850  Biso   1.000  N
  N8       1.0000 0.56080  0.65830  0.92460  Biso   1.000  N
  O8       1.0000 0.03090  0.93200  0.60920  Biso   1.000  O
  O9       1.0000 0.09140  0.48960  0.29670  Biso   1.000  O
  O10      1.0000 0.61850  0.05610  0.16690  Biso   1.000  O
  O11      1.0000 0.37850  0.50620  0.71690  Biso   1.000  O
  O12      1.0000 0.58690  0.47820  0.74230  Biso   1.000  O
  O13      1.0000 0.62480  0.45560  0.93950  Biso   1.000  O
  O14      1.0000 0.70360  0.51170  0.10280  Biso   1.000  O
