data_ARUYES_clean
_audit_creation_date              2014-07-02
_audit_creation_method            'Materials Studio'
_symmetry_space_group_name_H-M    'P1'
_symmetry_Int_Tables_number       1
_symmetry_cell_setting            triclinic
loop_
_symmetry_equiv_pos_as_xyz
  x,y,z
_cell_length_a                    7.0800
_cell_length_b                    17.3265
_cell_length_c                    20.7867
_cell_angle_alpha                 90.0000
_cell_angle_beta                  99.2752
_cell_angle_gamma                 90.0000
loop_
_atom_site_label
_atom_site_type_symbol
_atom_site_fract_x
_atom_site_fract_y
_atom_site_fract_z
_atom_site_U_iso_or_equiv
_atom_site_adp_type
_atom_site_occupancy
Na1    Na    0.22220   0.76205   0.38780   0.01267  Uiso   1.00
Na2    Na    0.27780   0.26205   0.11220   0.01267  Uiso   1.00
Na3    Na    0.77780   0.23795   0.61220   0.01267  Uiso   1.00
Na4    Na    0.72220   0.73795   0.88780   0.01267  Uiso   1.00
Bi1    Bi    0.69453   0.76993   0.36538   0.01267  Uiso   1.00
Bi2    Bi    0.80547   0.26993   0.13462   0.01267  Uiso   1.00
Bi3    Bi    0.30547   0.23007   0.63462   0.01267  Uiso   1.00
Bi4    Bi    0.19453   0.73007   0.86538   0.01267  Uiso   1.00
H1     H     0.13040   0.91090   0.30080   0.01267  Uiso   1.00
H2     H     0.57310   0.04700   0.27440   0.01267  Uiso   1.00
H3     H     0.36140   0.13620   0.22050   0.01267  Uiso   1.00
H4     H     0.91820   0.00100   0.24690   0.01267  Uiso   1.00
H5     H     0.16470   0.72560   0.63090   0.01267  Uiso   1.00
H6     H     0.71470   0.71560   0.71810   0.01267  Uiso   1.00
H7     H     0.81030   0.71340   0.61670   0.01267  Uiso   1.00
H8     H     0.26080   0.72890   0.53020   0.01267  Uiso   1.00
H9     H     0.36960   0.41090   0.19920   0.01267  Uiso   1.00
H10    H     0.92690   0.54700   0.22560   0.01267  Uiso   1.00
H11    H     0.13860   0.63620   0.27950   0.01267  Uiso   1.00
H12    H     0.58180   0.50100   0.25310   0.01267  Uiso   1.00
H13    H     0.33530   0.22560   0.86910   0.01267  Uiso   1.00
H14    H     0.78530   0.21560   0.78190   0.01267  Uiso   1.00
H15    H     0.68970   0.21340   0.88330   0.01267  Uiso   1.00
H16    H     0.23920   0.22890   0.96980   0.01267  Uiso   1.00
H17    H     0.86960   0.08910   0.69920   0.01267  Uiso   1.00
H18    H     0.42690   0.95300   0.72560   0.01267  Uiso   1.00
H19    H     0.63860   0.86380   0.77950   0.01267  Uiso   1.00
H20    H     0.08180   0.99900   0.75310   0.01267  Uiso   1.00
H21    H     0.83530   0.27440   0.36910   0.01267  Uiso   1.00
H22    H     0.28530   0.28440   0.28190   0.01267  Uiso   1.00
H23    H     0.18970   0.28660   0.38330   0.01267  Uiso   1.00
H24    H     0.73920   0.27110   0.46980   0.01267  Uiso   1.00
H25    H     0.63040   0.58910   0.80080   0.01267  Uiso   1.00
H26    H     0.07310   0.45300   0.77440   0.01267  Uiso   1.00
H27    H     0.86140   0.36380   0.72050   0.01267  Uiso   1.00
H28    H     0.41820   0.49900   0.74690   0.01267  Uiso   1.00
H29    H     0.66470   0.77440   0.13090   0.01267  Uiso   1.00
H30    H     0.21470   0.78440   0.21810   0.01267  Uiso   1.00
H31    H     0.31030   0.78660   0.11670   0.01267  Uiso   1.00
H32    H     0.76080   0.77110   0.03020   0.01267  Uiso   1.00
C1     C     0.50980   0.91080   0.32520   0.01267  Uiso   1.00
C2     C     0.37330   0.97050   0.29340   0.01267  Uiso   1.00
C3     C     0.17620   0.95620   0.28480   0.01267  Uiso   1.00
C4     C     0.44210   0.03780   0.26900   0.01267  Uiso   1.00
C5     C     0.31570   0.09100   0.23660   0.01267  Uiso   1.00
C6     C     0.04940   0.00980   0.25240   0.01267  Uiso   1.00
C7     C     0.11980   0.07680   0.22820   0.01267  Uiso   1.00
C8     C     0.98150   0.13440   0.19260   0.01267  Uiso   1.00
C9     C     0.36610   0.72260   0.75060   0.01267  Uiso   1.00
C10    C     0.42940   0.72150   0.68480   0.01267  Uiso   1.00
C11    C     0.29450   0.72460   0.62810   0.01267  Uiso   1.00
C12    C     0.62380   0.71780   0.68040   0.01267  Uiso   1.00
C13    C     0.68100   0.71740   0.61970   0.01267  Uiso   1.00
C14    C     0.35180   0.72600   0.56780   0.01267  Uiso   1.00
C15    C     0.54590   0.72300   0.56300   0.01267  Uiso   1.00
C16    C     0.61020   0.72750   0.49750   0.01267  Uiso   1.00
C17    C     0.99020   0.41080   0.17480   0.01267  Uiso   1.00
C18    C     0.12670   0.47050   0.20660   0.01267  Uiso   1.00
C19    C     0.32380   0.45620   0.21520   0.01267  Uiso   1.00
C20    C     0.05790   0.53780   0.23100   0.01267  Uiso   1.00
C21    C     0.18430   0.59100   0.26340   0.01267  Uiso   1.00
C22    C     0.45060   0.50980   0.24760   0.01267  Uiso   1.00
C23    C     0.38020   0.57680   0.27180   0.01267  Uiso   1.00
C24    C     0.51850   0.63440   0.30740   0.01267  Uiso   1.00
C25    C     0.13390   0.22260   0.74940   0.01267  Uiso   1.00
C26    C     0.07060   0.22150   0.81520   0.01267  Uiso   1.00
C27    C     0.20550   0.22460   0.87190   0.01267  Uiso   1.00
C28    C     0.87620   0.21780   0.81960   0.01267  Uiso   1.00
C29    C     0.81900   0.21740   0.88030   0.01267  Uiso   1.00
C30    C     0.14820   0.22600   0.93220   0.01267  Uiso   1.00
C31    C     0.95410   0.22300   0.93700   0.01267  Uiso   1.00
C32    C     0.88980   0.22750   0.00250   0.01267  Uiso   1.00
C33    C     0.49020   0.08920   0.67480   0.01267  Uiso   1.00
C34    C     0.62670   0.02950   0.70660   0.01267  Uiso   1.00
C35    C     0.82380   0.04380   0.71520   0.01267  Uiso   1.00
C36    C     0.55790   0.96220   0.73100   0.01267  Uiso   1.00
C37    C     0.68430   0.90900   0.76340   0.01267  Uiso   1.00
C38    C     0.95060   0.99020   0.74760   0.01267  Uiso   1.00
C39    C     0.88020   0.92320   0.77180   0.01267  Uiso   1.00
C40    C     0.01850   0.86560   0.80740   0.01267  Uiso   1.00
C41    C     0.63390   0.27740   0.24940   0.01267  Uiso   1.00
C42    C     0.57060   0.27850   0.31520   0.01267  Uiso   1.00
C43    C     0.70550   0.27540   0.37190   0.01267  Uiso   1.00
C44    C     0.37620   0.28220   0.31960   0.01267  Uiso   1.00
C45    C     0.31900   0.28260   0.38030   0.01267  Uiso   1.00
C46    C     0.64820   0.27400   0.43220   0.01267  Uiso   1.00
C47    C     0.45410   0.27700   0.43700   0.01267  Uiso   1.00
C48    C     0.38980   0.27250   0.50250   0.01267  Uiso   1.00
C49    C     0.00980   0.58920   0.82520   0.01267  Uiso   1.00
C50    C     0.87330   0.52950   0.79340   0.01267  Uiso   1.00
C51    C     0.67620   0.54380   0.78480   0.01267  Uiso   1.00
C52    C     0.94210   0.46220   0.76900   0.01267  Uiso   1.00
C53    C     0.81570   0.40900   0.73660   0.01267  Uiso   1.00
C54    C     0.54940   0.49020   0.75240   0.01267  Uiso   1.00
C55    C     0.61980   0.42320   0.72820   0.01267  Uiso   1.00
C56    C     0.48150   0.36560   0.69260   0.01267  Uiso   1.00
C57    C     0.86610   0.77740   0.25060   0.01267  Uiso   1.00
C58    C     0.92940   0.77850   0.18480   0.01267  Uiso   1.00
C59    C     0.79450   0.77540   0.12810   0.01267  Uiso   1.00
C60    C     0.12380   0.78220   0.18040   0.01267  Uiso   1.00
C61    C     0.18100   0.78260   0.11970   0.01267  Uiso   1.00
C62    C     0.85180   0.77400   0.06780   0.01267  Uiso   1.00
C63    C     0.04590   0.77700   0.06300   0.01267  Uiso   1.00
C64    C     0.11020   0.77250   0.99750   0.01267  Uiso   1.00
O1     O     0.43571   0.84573   0.33781   0.01267  Uiso   1.00
O2     O     0.68456   0.92170   0.33826   0.01267  Uiso   1.00
O3     O     0.80552   0.12571   0.18612   0.01267  Uiso   1.00
O4     O     0.05696   0.19392   0.16886   0.01267  Uiso   1.00
O5     O     0.18806   0.71903   0.75286   0.01267  Uiso   1.00
O6     O     0.48989   0.72736   0.80099   0.01267  Uiso   1.00
O7     O     0.51858   0.77384   0.45638   0.01267  Uiso   1.00
O8     O     0.75008   0.68970   0.48628   0.01267  Uiso   1.00
O9     O     0.06429   0.34573   0.16219   0.01267  Uiso   1.00
O10    O     0.81544   0.42170   0.16174   0.01267  Uiso   1.00
O11    O     0.69448   0.62571   0.31388   0.01267  Uiso   1.00
O12    O     0.44304   0.69392   0.33114   0.01267  Uiso   1.00
O13    O     0.31194   0.21903   0.74714   0.01267  Uiso   1.00
O14    O     0.01011   0.22736   0.69901   0.01267  Uiso   1.00
O15    O     0.98142   0.27384   0.04362   0.01267  Uiso   1.00
O16    O     0.74992   0.18970   0.01372   0.01267  Uiso   1.00
O17    O     0.56429   0.15427   0.66219   0.01267  Uiso   1.00
O18    O     0.31544   0.07830   0.66174   0.01267  Uiso   1.00
O19    O     0.19448   0.87429   0.81388   0.01267  Uiso   1.00
O20    O     0.94304   0.80608   0.83114   0.01267  Uiso   1.00
O21    O     0.81194   0.28097   0.24714   0.01267  Uiso   1.00
O22    O     0.51011   0.27264   0.19901   0.01267  Uiso   1.00
O23    O     0.48142   0.22616   0.54362   0.01267  Uiso   1.00
O24    O     0.24992   0.31030   0.51372   0.01267  Uiso   1.00
O25    O     0.93571   0.65427   0.83781   0.01267  Uiso   1.00
O26    O     0.18456   0.57830   0.83826   0.01267  Uiso   1.00
O27    O     0.30552   0.37429   0.68612   0.01267  Uiso   1.00
O28    O     0.55696   0.30608   0.66886   0.01267  Uiso   1.00
O29    O     0.68806   0.78097   0.25286   0.01267  Uiso   1.00
O30    O     0.98989   0.77264   0.30099   0.01267  Uiso   1.00
O31    O     0.01858   0.72616   0.95638   0.01267  Uiso   1.00
O32    O     0.25008   0.81030   0.98628   0.01267  Uiso   1.00
