data_image0
_cell_length_a       9.8162
_cell_length_b       23.284
_cell_length_c       8.9306
_cell_angle_alpha    90
_cell_angle_beta     90
_cell_angle_gamma    90

_symmetry_space_group_name_H-M    "P 1"
_symmetry_int_tables_number       1

loop_
  _symmetry_equiv_pos_as_xyz
  'x, y, z'

loop_
  _atom_site_label
  _atom_site_occupancy
  _atom_site_fract_x
  _atom_site_fract_y
  _atom_site_fract_z
  _atom_site_thermal_displace_type
  _atom_site_B_iso_or_equiv
  _atom_site_type_symbol
  Zn1      1.0000 0.44051  0.54696  0.21892  Biso   1.000  Zn
  P1       1.0000 0.28715  0.49715  0.93735  Biso   1.000  P
  H1       1.0000 0.29300  0.45490  0.01900  Biso   1.000  H
  P2       1.0000 0.42532  0.68444  0.26368  Biso   1.000  P
  H2       1.0000 0.53600  0.70890  0.20700  Biso   1.000  H
  O1       1.0000 0.32580  0.54516  0.04300  Biso   1.000  O
  O2       1.0000 0.14180  0.50339  0.88150  Biso   1.000  O
  O3       1.0000 0.38640  0.49118  0.80940  Biso   1.000  O
  O4       1.0000 0.46520  0.62308  0.29730  Biso   1.000  O
  O5       1.0000 0.31380  0.68794  0.14710  Biso   1.000  O
  O6       1.0000 0.39690  0.71573  0.40690  Biso   1.000  O
  Zn2      1.0000 0.05949  0.95304  0.21892  Biso   1.000  Zn
  P3       1.0000 0.21285  0.00285  0.93735  Biso   1.000  P
  H3       1.0000 0.20700  0.04510  0.01900  Biso   1.000  H
  P4       1.0000 0.07468  0.81556  0.26368  Biso   1.000  P
  H4       1.0000 0.96400  0.79110  0.20700  Biso   1.000  H
  O7       1.0000 0.17420  0.95484  0.04300  Biso   1.000  O
  O8       1.0000 0.35820  0.99661  0.88150  Biso   1.000  O
  O9       1.0000 0.11360  0.00882  0.80940  Biso   1.000  O
  O10      1.0000 0.03480  0.87692  0.29730  Biso   1.000  O
  O11      1.0000 0.18620  0.81206  0.14710  Biso   1.000  O
  O12      1.0000 0.10310  0.78427  0.40690  Biso   1.000  O
  Zn3      1.0000 0.55949  0.04696  0.28108  Biso   1.000  Zn
  P5       1.0000 0.71285  0.99715  0.56265  Biso   1.000  P
  H5       1.0000 0.70700  0.95490  0.48100  Biso   1.000  H
  P6       1.0000 0.57468  0.18444  0.23632  Biso   1.000  P
  H6       1.0000 0.46400  0.20890  0.29300  Biso   1.000  H
  O13      1.0000 0.67420  0.04516  0.45700  Biso   1.000  O
  O14      1.0000 0.85820  0.00339  0.61850  Biso   1.000  O
  O15      1.0000 0.61360  0.99118  0.69060  Biso   1.000  O
  O16      1.0000 0.53480  0.12308  0.20270  Biso   1.000  O
  O17      1.0000 0.68620  0.18794  0.35290  Biso   1.000  O
  O18      1.0000 0.60310  0.21573  0.09310  Biso   1.000  O
  Zn4      1.0000 0.94051  0.45304  0.28108  Biso   1.000  Zn
  P7       1.0000 0.78715  0.50285  0.56265  Biso   1.000  P
  H7       1.0000 0.79300  0.54510  0.48100  Biso   1.000  H
  P8       1.0000 0.92532  0.31556  0.23632  Biso   1.000  P
  H8       1.0000 0.03600  0.29110  0.29300  Biso   1.000  H
  O19      1.0000 0.82580  0.45484  0.45700  Biso   1.000  O
  O20      1.0000 0.64180  0.49661  0.61850  Biso   1.000  O
  O21      1.0000 0.88640  0.50882  0.69060  Biso   1.000  O
  O22      1.0000 0.96520  0.37692  0.20270  Biso   1.000  O
  O23      1.0000 0.81380  0.31206  0.35290  Biso   1.000  O
  O24      1.0000 0.89690  0.28427  0.09310  Biso   1.000  O
  Zn5      1.0000 0.55949  0.45304  0.78108  Biso   1.000  Zn
  P9       1.0000 0.71285  0.50285  0.06265  Biso   1.000  P
  H9       1.0000 0.70700  0.54510  0.98100  Biso   1.000  H
  P10      1.0000 0.57468  0.31556  0.73632  Biso   1.000  P
  H10      1.0000 0.46400  0.29110  0.79300  Biso   1.000  H
  O25      1.0000 0.67420  0.45484  0.95700  Biso   1.000  O
  O26      1.0000 0.85820  0.49661  0.11850  Biso   1.000  O
  O27      1.0000 0.61360  0.50882  0.19060  Biso   1.000  O
  O28      1.0000 0.53480  0.37692  0.70270  Biso   1.000  O
  O29      1.0000 0.68620  0.31206  0.85290  Biso   1.000  O
  O30      1.0000 0.60310  0.28427  0.59310  Biso   1.000  O
  Zn6      1.0000 0.94051  0.04696  0.78108  Biso   1.000  Zn
  P11      1.0000 0.78715  0.99715  0.06265  Biso   1.000  P
  H11      1.0000 0.79300  0.95490  0.98100  Biso   1.000  H
  P12      1.0000 0.92532  0.18444  0.73632  Biso   1.000  P
  H12      1.0000 0.03600  0.20890  0.79300  Biso   1.000  H
  O31      1.0000 0.82580  0.04516  0.95700  Biso   1.000  O
  O32      1.0000 0.64180  0.00339  0.11850  Biso   1.000  O
  O33      1.0000 0.88640  0.99118  0.19060  Biso   1.000  O
  O34      1.0000 0.96520  0.12308  0.70270  Biso   1.000  O
  O35      1.0000 0.81380  0.18794  0.85290  Biso   1.000  O
  O36      1.0000 0.89690  0.21573  0.59310  Biso   1.000  O
  Zn7      1.0000 0.44051  0.95304  0.71892  Biso   1.000  Zn
  P13      1.0000 0.28715  0.00285  0.43735  Biso   1.000  P
  H13      1.0000 0.29300  0.04510  0.51900  Biso   1.000  H
  P14      1.0000 0.42532  0.81556  0.76368  Biso   1.000  P
  H14      1.0000 0.53600  0.79110  0.70700  Biso   1.000  H
  O37      1.0000 0.32580  0.95484  0.54300  Biso   1.000  O
  O38      1.0000 0.14180  0.99661  0.38150  Biso   1.000  O
  O39      1.0000 0.38640  0.00882  0.30940  Biso   1.000  O
  O40      1.0000 0.46520  0.87692  0.79730  Biso   1.000  O
  O41      1.0000 0.31380  0.81206  0.64710  Biso   1.000  O
  O42      1.0000 0.39690  0.78427  0.90690  Biso   1.000  O
  Zn8      1.0000 0.05949  0.54696  0.71892  Biso   1.000  Zn
  P15      1.0000 0.21285  0.49715  0.43735  Biso   1.000  P
  H15      1.0000 0.20700  0.45490  0.51900  Biso   1.000  H
  P16      1.0000 0.07468  0.68444  0.76368  Biso   1.000  P
  H16      1.0000 0.96400  0.70890  0.70700  Biso   1.000  H
  O43      1.0000 0.17420  0.54516  0.54300  Biso   1.000  O
  O44      1.0000 0.35820  0.50339  0.38150  Biso   1.000  O
  O45      1.0000 0.11360  0.49118  0.30940  Biso   1.000  O
  O46      1.0000 0.03480  0.62308  0.79730  Biso   1.000  O
  O47      1.0000 0.18620  0.68794  0.64710  Biso   1.000  O
  O48      1.0000 0.10310  0.71573  0.90690  Biso   1.000  O
  Zn9      1.0000 0.25000  0.75000  0.01889  Biso   1.000  Zn
  Zn10     1.0000 0.75000  0.25000  0.48111  Biso   1.000  Zn
  Zn11     1.0000 0.75000  0.25000  0.98111  Biso   1.000  Zn
  Zn12     1.0000 0.25000  0.75000  0.51889  Biso   1.000  Zn
