data_ASADAA_clean
_audit_creation_date              2014-07-02
_audit_creation_method            'Materials Studio'
_symmetry_space_group_name_H-M    'P1'
_symmetry_Int_Tables_number       1
_symmetry_cell_setting            triclinic
loop_
_symmetry_equiv_pos_as_xyz
  x,y,z
_cell_length_a                    11.9410
_cell_length_b                    15.2986
_cell_length_c                    17.3160
_cell_angle_alpha                 84.7218
_cell_angle_beta                  76.3661
_cell_angle_gamma                 67.0291
loop_
_atom_site_label
_atom_site_type_symbol
_atom_site_fract_x
_atom_site_fract_y
_atom_site_fract_z
_atom_site_U_iso_or_equiv
_atom_site_adp_type
_atom_site_occupancy
Cd1    Cd    0.52726   0.56266   0.33444   0.01267  Uiso   1.00
Cd2    Cd    0.20915   0.36928   0.18588   0.01267  Uiso   1.00
Cd3    Cd    0.91008   0.56266   0.16556   0.01267  Uiso   1.00
Cd4    Cd    0.42157   0.36928   0.31412   0.01267  Uiso   1.00
Cd5    Cd    0.47274   0.43734   0.66556   0.01267  Uiso   1.00
Cd6    Cd    0.79085   0.63072   0.81412   0.01267  Uiso   1.00
Cd7    Cd    0.08992   0.43734   0.83444   0.01267  Uiso   1.00
Cd8    Cd    0.57843   0.63072   0.68588   0.01267  Uiso   1.00
H1     H     0.89210   0.65140   0.46430   0.01267  Uiso   1.00
H2     H     0.08920   0.61960   0.38560   0.01267  Uiso   1.00
H3     H     0.50900   0.70880   0.19280   0.01267  Uiso   1.00
H4     H     0.43840   0.86480   0.16200   0.01267  Uiso   1.00
H5     H     0.44580   0.00620   0.15040   0.01267  Uiso   1.00
H6     H     0.38890   0.16600   0.12500   0.01267  Uiso   1.00
H7     H     0.13510   0.22460   0.32040   0.01267  Uiso   1.00
H8     H     0.19030   0.06840   0.35290   0.01267  Uiso   1.00
H9     H     0.32270   0.92600   0.39320   0.01267  Uiso   1.00
H10    H     0.40150   0.76360   0.41770   0.01267  Uiso   1.00
H11    H     0.15300   0.34800   0.02770   0.01267  Uiso   1.00
H12    H     0.45650   0.65140   0.03570   0.01267  Uiso   1.00
H13    H     0.29120   0.61960   0.11440   0.01267  Uiso   1.00
H14    H     0.78220   0.70880   0.30720   0.01267  Uiso   1.00
H15    H     0.69680   0.86480   0.33800   0.01267  Uiso   1.00
H16    H     0.54800   0.00620   0.34960   0.01267  Uiso   1.00
H17    H     0.44510   0.16600   0.37500   0.01267  Uiso   1.00
H18    H     0.64030   0.22460   0.17960   0.01267  Uiso   1.00
H19    H     0.74130   0.06840   0.14710   0.01267  Uiso   1.00
H20    H     0.75130   0.92600   0.10680   0.01267  Uiso   1.00
H21    H     0.83490   0.76360   0.08230   0.01267  Uiso   1.00
H22    H     0.49900   0.34800   0.47230   0.01267  Uiso   1.00
H23    H     0.10790   0.34860   0.53570   0.01267  Uiso   1.00
H24    H     0.91080   0.38040   0.61440   0.01267  Uiso   1.00
H25    H     0.49100   0.29120   0.80720   0.01267  Uiso   1.00
H26    H     0.56160   0.13520   0.83800   0.01267  Uiso   1.00
H27    H     0.55420   0.99380   0.84960   0.01267  Uiso   1.00
H28    H     0.61110   0.83400   0.87500   0.01267  Uiso   1.00
H29    H     0.86490   0.77540   0.67960   0.01267  Uiso   1.00
H30    H     0.80970   0.93160   0.64710   0.01267  Uiso   1.00
H31    H     0.67730   0.07400   0.60680   0.01267  Uiso   1.00
H32    H     0.59850   0.23640   0.58230   0.01267  Uiso   1.00
H33    H     0.84700   0.65200   0.97230   0.01267  Uiso   1.00
H34    H     0.54350   0.34860   0.96430   0.01267  Uiso   1.00
H35    H     0.70880   0.38040   0.88560   0.01267  Uiso   1.00
H36    H     0.21780   0.29120   0.69280   0.01267  Uiso   1.00
H37    H     0.30320   0.13520   0.66200   0.01267  Uiso   1.00
H38    H     0.45200   0.99380   0.65040   0.01267  Uiso   1.00
H39    H     0.55490   0.83400   0.62500   0.01267  Uiso   1.00
H40    H     0.35970   0.77540   0.82040   0.01267  Uiso   1.00
H41    H     0.25870   0.93160   0.85290   0.01267  Uiso   1.00
H42    H     0.24870   0.07400   0.89320   0.01267  Uiso   1.00
H43    H     0.16510   0.23640   0.91770   0.01267  Uiso   1.00
H44    H     0.50100   0.65200   0.52770   0.01267  Uiso   1.00
C1     C     0.30720   0.56100   0.42460   0.01267  Uiso   1.00
C2     C     0.18220   0.56960   0.47380   0.01267  Uiso   1.00
C3     C     0.16760   0.54660   0.55380   0.01267  Uiso   1.00
C4     C     0.28100   0.49940   0.58880   0.01267  Uiso   1.00
C5     C     0.04890   0.56560   0.60220   0.01267  Uiso   1.00
C6     C     0.04030   0.54020   0.68880   0.01267  Uiso   1.00
C7     C     0.94490   0.60720   0.56770   0.01267  Uiso   1.00
C8     C     0.81490   0.62480   0.61500   0.01267  Uiso   1.00
C9     C     0.96130   0.62580   0.48720   0.01267  Uiso   1.00
C10    C     0.07930   0.60700   0.43980   0.01267  Uiso   1.00
C11    C     0.47120   0.75300   0.23380   0.01267  Uiso   1.00
C12    C     0.42820   0.84680   0.21510   0.01267  Uiso   1.00
C13    C     0.37070   0.91480   0.27270   0.01267  Uiso   1.00
C14    C     0.32610   0.01760   0.25470   0.01267  Uiso   1.00
C15    C     0.38290   0.04960   0.18680   0.01267  Uiso   1.00
C16    C     0.34760   0.14640   0.17150   0.01267  Uiso   1.00
C17    C     0.20030   0.18020   0.28600   0.01267  Uiso   1.00
C18    C     0.23190   0.08620   0.30560   0.01267  Uiso   1.00
C19    C     0.36030   0.88320   0.35120   0.01267  Uiso   1.00
C20    C     0.40810   0.78480   0.36530   0.01267  Uiso   1.00
C21    C     0.13180   0.56100   0.07540   0.01267  Uiso   1.00
C22    C     0.24820   0.56960   0.02620   0.01267  Uiso   1.00
C23    C     0.28580   0.54660   0.94620   0.01267  Uiso   1.00
C24    C     0.21960   0.49940   0.91120   0.01267  Uiso   1.00
C25    C     0.38550   0.56560   0.89780   0.01267  Uiso   1.00
C26    C     0.41950   0.54020   0.81120   0.01267  Uiso   1.00
C27    C     0.44790   0.60720   0.93230   0.01267  Uiso   1.00
C28    C     0.56030   0.62480   0.88500   0.01267  Uiso   1.00
C29    C     0.41290   0.62580   0.01280   0.01267  Uiso   1.00
C30    C     0.31370   0.60700   0.06020   0.01267  Uiso   1.00
C31    C     0.77580   0.75300   0.26620   0.01267  Uiso   1.00
C32    C     0.72500   0.84680   0.28490   0.01267  Uiso   1.00
C33    C     0.71450   0.91480   0.22730   0.01267  Uiso   1.00
C34    C     0.65630   0.01760   0.24530   0.01267  Uiso   1.00
C35    C     0.56750   0.04960   0.31320   0.01267  Uiso   1.00
C36    C     0.50600   0.14640   0.32850   0.01267  Uiso   1.00
C37    C     0.61950   0.18020   0.21400   0.01267  Uiso   1.00
C38    C     0.68190   0.08620   0.19440   0.01267  Uiso   1.00
C39    C     0.75650   0.88320   0.14880   0.01267  Uiso   1.00
C40    C     0.80710   0.78480   0.13470   0.01267  Uiso   1.00
C41    C     0.69280   0.43900   0.57540   0.01267  Uiso   1.00
C42    C     0.81780   0.43040   0.52620   0.01267  Uiso   1.00
C43    C     0.83240   0.45340   0.44620   0.01267  Uiso   1.00
C44    C     0.71900   0.50060   0.41120   0.01267  Uiso   1.00
C45    C     0.95110   0.43440   0.39780   0.01267  Uiso   1.00
C46    C     0.95970   0.45980   0.31120   0.01267  Uiso   1.00
C47    C     0.05510   0.39280   0.43230   0.01267  Uiso   1.00
C48    C     0.18510   0.37520   0.38500   0.01267  Uiso   1.00
C49    C     0.03870   0.37420   0.51280   0.01267  Uiso   1.00
C50    C     0.92070   0.39300   0.56020   0.01267  Uiso   1.00
C51    C     0.52880   0.24700   0.76620   0.01267  Uiso   1.00
C52    C     0.57180   0.15320   0.78490   0.01267  Uiso   1.00
C53    C     0.62930   0.08520   0.72730   0.01267  Uiso   1.00
C54    C     0.67390   0.98240   0.74530   0.01267  Uiso   1.00
C55    C     0.61710   0.95040   0.81320   0.01267  Uiso   1.00
C56    C     0.65240   0.85360   0.82850   0.01267  Uiso   1.00
C57    C     0.79970   0.81980   0.71400   0.01267  Uiso   1.00
C58    C     0.76810   0.91380   0.69440   0.01267  Uiso   1.00
C59    C     0.63970   0.11680   0.64880   0.01267  Uiso   1.00
C60    C     0.59190   0.21520   0.63470   0.01267  Uiso   1.00
C61    C     0.86820   0.43900   0.92460   0.01267  Uiso   1.00
C62    C     0.75180   0.43040   0.97380   0.01267  Uiso   1.00
C63    C     0.71420   0.45340   0.05380   0.01267  Uiso   1.00
C64    C     0.78040   0.50060   0.08880   0.01267  Uiso   1.00
C65    C     0.61450   0.43440   0.10220   0.01267  Uiso   1.00
C66    C     0.58050   0.45980   0.18880   0.01267  Uiso   1.00
C67    C     0.55210   0.39280   0.06770   0.01267  Uiso   1.00
C68    C     0.43970   0.37520   0.11500   0.01267  Uiso   1.00
C69    C     0.58710   0.37420   0.98720   0.01267  Uiso   1.00
C70    C     0.68630   0.39300   0.93980   0.01267  Uiso   1.00
C71    C     0.22420   0.24700   0.73380   0.01267  Uiso   1.00
C72    C     0.27500   0.15320   0.71510   0.01267  Uiso   1.00
C73    C     0.28550   0.08520   0.77270   0.01267  Uiso   1.00
C74    C     0.34370   0.98240   0.75470   0.01267  Uiso   1.00
C75    C     0.43250   0.95040   0.68680   0.01267  Uiso   1.00
C76    C     0.49400   0.85360   0.67150   0.01267  Uiso   1.00
C77    C     0.38050   0.81980   0.78600   0.01267  Uiso   1.00
C78    C     0.31810   0.91380   0.80560   0.01267  Uiso   1.00
C79    C     0.24350   0.11680   0.85120   0.01267  Uiso   1.00
C80    C     0.19290   0.21520   0.86530   0.01267  Uiso   1.00
N1     N     0.46140   0.72160   0.30870   0.01267  Uiso   1.00
N2     N     0.25720   0.21220   0.22050   0.01267  Uiso   1.00
N3     N     0.81700   0.72160   0.19130   0.01267  Uiso   1.00
N4     N     0.53060   0.21220   0.27950   0.01267  Uiso   1.00
N5     N     0.53860   0.27840   0.69130   0.01267  Uiso   1.00
N6     N     0.74280   0.78780   0.77950   0.01267  Uiso   1.00
N7     N     0.18300   0.27840   0.80870   0.01267  Uiso   1.00
N8     N     0.46940   0.78780   0.72050   0.01267  Uiso   1.00
O1     O     0.36970   0.59300   0.45280   0.01267  Uiso   1.00
O2     O     0.34405   0.52830   0.35460   0.01267  Uiso   1.00
O3     O     0.35798   0.41964   0.56420   0.01267  Uiso   1.00
O4     O     0.29120   0.54040   0.64450   0.01267  Uiso   1.00
O5     O     0.09010   0.45400   0.70480   0.01267  Uiso   1.00
O6     O     0.98918   0.60464   0.74050   0.01267  Uiso   1.00
O7     O     0.79779   0.58902   0.68320   0.01267  Uiso   1.00
O8     O     0.72480   0.67060   0.58430   0.01267  Uiso   1.00
O9     O     0.13230   0.34540   0.08030   0.01267  Uiso   1.00
O10    O     0.03730   0.59300   0.04720   0.01267  Uiso   1.00
O11    O     0.12765   0.52830   0.14540   0.01267  Uiso   1.00
O12    O     0.22238   0.41964   0.93580   0.01267  Uiso   1.00
O13    O     0.16840   0.54040   0.85550   0.01267  Uiso   1.00
O14    O     0.45590   0.45400   0.79520   0.01267  Uiso   1.00
O15    O     0.40618   0.60464   0.75950   0.01267  Uiso   1.00
O16    O     0.61319   0.58902   0.81680   0.01267  Uiso   1.00
O17    O     0.60460   0.67060   0.91570   0.01267  Uiso   1.00
O18    O     0.52230   0.34540   0.41970   0.01267  Uiso   1.00
O19    O     0.63030   0.40700   0.54720   0.01267  Uiso   1.00
O20    O     0.65595   0.47170   0.64540   0.01267  Uiso   1.00
O21    O     0.64202   0.58036   0.43580   0.01267  Uiso   1.00
O22    O     0.70880   0.45960   0.35550   0.01267  Uiso   1.00
O23    O     0.90990   0.54600   0.29520   0.01267  Uiso   1.00
O24    O     0.01082   0.39536   0.25950   0.01267  Uiso   1.00
O25    O     0.20221   0.41098   0.31680   0.01267  Uiso   1.00
O26    O     0.27520   0.32940   0.41570   0.01267  Uiso   1.00
O27    O     0.86770   0.65460   0.91970   0.01267  Uiso   1.00
O28    O     0.96270   0.40700   0.95280   0.01267  Uiso   1.00
O29    O     0.87235   0.47170   0.85460   0.01267  Uiso   1.00
O30    O     0.77762   0.58036   0.06420   0.01267  Uiso   1.00
O31    O     0.83160   0.45960   0.14450   0.01267  Uiso   1.00
O32    O     0.54410   0.54600   0.20480   0.01267  Uiso   1.00
O33    O     0.59382   0.39536   0.24050   0.01267  Uiso   1.00
O34    O     0.38681   0.41098   0.18320   0.01267  Uiso   1.00
O35    O     0.39540   0.32940   0.08430   0.01267  Uiso   1.00
O36    O     0.47770   0.65460   0.58030   0.01267  Uiso   1.00
