data_image0
_cell_length_a       8.4603
_cell_length_b       16.8439
_cell_length_c       22.1605
_cell_angle_alpha    78.795
_cell_angle_beta     89.894
_cell_angle_gamma    82.174

_symmetry_space_group_name_H-M    "P 1"
_symmetry_int_tables_number       1

loop_
  _symmetry_equiv_pos_as_xyz
  'x, y, z'

loop_
  _atom_site_label
  _atom_site_occupancy
  _atom_site_fract_x
  _atom_site_fract_y
  _atom_site_fract_z
  _atom_site_thermal_displace_type
  _atom_site_B_iso_or_equiv
  _atom_site_type_symbol
  U1       1.0000 0.96327  0.09226  0.25492  Biso   1.000  U
  U2       1.0000 0.46248  0.09602  0.24260  Biso   1.000  U
  U3       1.0000 0.26052  0.90929  0.23220  Biso   1.000  U
  U4       1.0000 0.76415  0.90134  0.26562  Biso   1.000  U
  O1       1.0000 0.10230  0.55890  0.08370  Biso   1.000  O
  O2       1.0000 0.26600  0.46340  0.05160  Biso   1.000  O
  O3       1.0000 0.10290  0.20780  0.25720  Biso   1.000  O
  O4       1.0000 0.29190  0.22070  0.18950  Biso   1.000  O
  O5       1.0000 0.14650  0.80800  0.18650  Biso   1.000  O
  O6       1.0000 0.95160  0.78830  0.25110  Biso   1.000  O
  O7       1.0000 0.68450  0.38650  0.15280  Biso   1.000  O
  O8       1.0000 0.05640  0.51140  0.23520  Biso   1.000  O
  O9       1.0000 0.61970  0.66260  0.13160  Biso   1.000  O
  O10      1.0000 0.63410  0.44140  0.41690  Biso   1.000  O
  O11      1.0000 0.74730  0.53600  0.44820  Biso   1.000  O
  O12      1.0000 0.59800  0.21120  0.24510  Biso   1.000  O
  O13      1.0000 0.80400  0.19020  0.30710  Biso   1.000  O
  O14      1.0000 0.64750  0.77820  0.31080  Biso   1.000  O
  O15      1.0000 0.45110  0.79140  0.24380  Biso   1.000  O
  O16      1.0000 0.20650  0.33790  0.36690  Biso   1.000  O
  O17      1.0000 0.56090  0.49470  0.26270  Biso   1.000  O
  O18      1.0000 0.12430  0.61360  0.34750  Biso   1.000  O
  O19      1.0000 0.72400  0.04050  0.26590  Biso   1.000  O
  H1       1.0000 0.71920  0.03640  0.30430  Biso   1.000  H
  O20      1.0000 0.21700  0.05260  0.23590  Biso   1.000  O
  H2       1.0000 0.20700  0.06850  0.19760  Biso   1.000  H
  O21      1.0000 0.98500  0.96130  0.22020  Biso   1.000  O
  H3       1.0000 0.96560  0.97290  0.18210  Biso   1.000  H
  O22      1.0000 0.48770  0.94870  0.27730  Biso   1.000  O
  H4       1.0000 0.47290  0.94080  0.31540  Biso   1.000  H
  N1       1.0000 0.64610  0.52550  0.14070  Biso   1.000  N
  C1       1.0000 0.73370  0.44930  0.16260  Biso   1.000  C
  N2       1.0000 0.87610  0.44330  0.19540  Biso   1.000  N
  C2       1.0000 0.93090  0.51340  0.20640  Biso   1.000  C
  N3       1.0000 0.84330  0.58960  0.18450  Biso   1.000  N
  C3       1.0000 0.70090  0.59570  0.15170  Biso   1.000  C
  N4       1.0000 0.15950  0.47600  0.35860  Biso   1.000  N
  C4       1.0000 0.25040  0.40540  0.34730  Biso   1.000  C
  N5       1.0000 0.38960  0.41070  0.31420  Biso   1.000  N
  C5       1.0000 0.43790  0.48650  0.29240  Biso   1.000  C
  N6       1.0000 0.34690  0.55700  0.30370  Biso   1.000  N
  C6       1.0000 0.20770  0.55180  0.33680  Biso   1.000  C
  C7       1.0000 0.23740  0.51720  0.08360  Biso   1.000  C
  C8       1.0000 0.36620  0.53250  0.12440  Biso   1.000  C
  H5       1.0000 0.37920  0.48920  0.16200  Biso   1.000  H
  H6       1.0000 0.33590  0.58560  0.13700  Biso   1.000  H
  C9       1.0000 0.52130  0.53310  0.09100  Biso   1.000  C
  H7       1.0000 0.54050  0.48660  0.06940  Biso   1.000  H
  H8       1.0000 0.52100  0.58470  0.06070  Biso   1.000  H
  C10      1.0000 0.16630  0.24900  0.21240  Biso   1.000  C
  C11      1.0000 0.08400  0.33210  0.18200  Biso   1.000  C
  H9       1.0000 0.16180  0.37130  0.17380  Biso   1.000  H
  H10      1.0000 0.03350  0.32910  0.14230  Biso   1.000  H
  C12      1.0000 0.95800  0.36020  0.22440  Biso   1.000  C
  H11      1.0000 0.87890  0.32130  0.23210  Biso   1.000  H
  H12      1.0000 0.00780  0.36220  0.26430  Biso   1.000  H
  C13      1.0000 0.03400  0.77120  0.20720  Biso   1.000  C
  C14      1.0000 0.99800  0.70250  0.17770  Biso   1.000  C
  H13      1.0000 0.09630  0.66330  0.17720  Biso   1.000  H
  H14      1.0000 0.96000  0.72410  0.13470  Biso   1.000  H
  C15      1.0000 0.87200  0.65990  0.21350  Biso   1.000  C
  H15      1.0000 0.90840  0.63980  0.25690  Biso   1.000  H
  H16      1.0000 0.77230  0.69840  0.21270  Biso   1.000  H
  C16      1.0000 0.74570  0.48340  0.41550  Biso   1.000  C
  C17      1.0000 0.88330  0.46970  0.37480  Biso   1.000  C
  H17      1.0000 0.87200  0.51330  0.33730  Biso   1.000  H
  H18      1.0000 0.88360  0.41660  0.36190  Biso   1.000  H
  C18      1.0000 0.03830  0.47000  0.40800  Biso   1.000  C
  H19      1.0000 0.03200  0.51730  0.42870  Biso   1.000  H
  H20      1.0000 0.06530  0.41910  0.43910  Biso   1.000  H
  C19      1.0000 0.67100  0.22830  0.28890  Biso   1.000  C
  C20      1.0000 0.60100  0.29500  0.32110  Biso   1.000  C
  H21      1.0000 0.68000  0.33230  0.32420  Biso   1.000  H
  H22      1.0000 0.57010  0.27130  0.36320  Biso   1.000  H
  C21      1.0000 0.45600  0.34130  0.28440  Biso   1.000  C
  H23      1.0000 0.48590  0.36250  0.24170  Biso   1.000  H
  H24      1.0000 0.37470  0.30460  0.28310  Biso   1.000  H
  C22      1.0000 0.53600  0.75010  0.28850  Biso   1.000  C
  C23      1.0000 0.50100  0.66600  0.31810  Biso   1.000  C
  H25      1.0000 0.60100  0.62700  0.32410  Biso   1.000  H
  H26      1.0000 0.45350  0.66730  0.35880  Biso   1.000  H
  C24      1.0000 0.38700  0.63970  0.27670  Biso   1.000  C
  H27      1.0000 0.28780  0.67950  0.27050  Biso   1.000  H
  H28      1.0000 0.43500  0.63890  0.23600  Biso   1.000  H
  U5       1.0000 0.03673  0.90774  0.74508  Biso   1.000  U
  U6       1.0000 0.53752  0.90398  0.75740  Biso   1.000  U
  U7       1.0000 0.73948  0.09071  0.76780  Biso   1.000  U
  U8       1.0000 0.23585  0.09866  0.73438  Biso   1.000  U
  O23      1.0000 0.89770  0.44110  0.91630  Biso   1.000  O
  O24      1.0000 0.73400  0.53660  0.94840  Biso   1.000  O
  O25      1.0000 0.89710  0.79220  0.74280  Biso   1.000  O
  O26      1.0000 0.70810  0.77930  0.81050  Biso   1.000  O
  O27      1.0000 0.85350  0.19200  0.81350  Biso   1.000  O
  O28      1.0000 0.04840  0.21170  0.74890  Biso   1.000  O
  O29      1.0000 0.31550  0.61350  0.84720  Biso   1.000  O
  O30      1.0000 0.94360  0.48860  0.76480  Biso   1.000  O
  O31      1.0000 0.38030  0.33740  0.86840  Biso   1.000  O
  O32      1.0000 0.36590  0.55860  0.58310  Biso   1.000  O
  O33      1.0000 0.25270  0.46400  0.55180  Biso   1.000  O
  O34      1.0000 0.40200  0.78880  0.75490  Biso   1.000  O
  O35      1.0000 0.19600  0.80980  0.69290  Biso   1.000  O
  O36      1.0000 0.35250  0.22180  0.68920  Biso   1.000  O
  O37      1.0000 0.54890  0.20860  0.75620  Biso   1.000  O
  O38      1.0000 0.79350  0.66210  0.63310  Biso   1.000  O
  O39      1.0000 0.43910  0.50530  0.73730  Biso   1.000  O
  O40      1.0000 0.87570  0.38640  0.65250  Biso   1.000  O
  O41      1.0000 0.27600  0.95950  0.73410  Biso   1.000  O
  H29      1.0000 0.28080  0.96360  0.69570  Biso   1.000  H
  O42      1.0000 0.78300  0.94740  0.76410  Biso   1.000  O
  H30      1.0000 0.79300  0.93150  0.80240  Biso   1.000  H
  O43      1.0000 0.01500  0.03870  0.77980  Biso   1.000  O
  H31      1.0000 0.03440  0.02710  0.81790  Biso   1.000  H
  O44      1.0000 0.51230  0.05130  0.72270  Biso   1.000  O
  H32      1.0000 0.52710  0.05920  0.68460  Biso   1.000  H
  N7       1.0000 0.35390  0.47450  0.85930  Biso   1.000  N
  C25      1.0000 0.26630  0.55070  0.83740  Biso   1.000  C
  N8       1.0000 0.12390  0.55670  0.80460  Biso   1.000  N
  C26      1.0000 0.06910  0.48660  0.79360  Biso   1.000  C
  N9       1.0000 0.15670  0.41040  0.81550  Biso   1.000  N
  C27      1.0000 0.29910  0.40430  0.84830  Biso   1.000  C
  N10      1.0000 0.84050  0.52400  0.64140  Biso   1.000  N
  C28      1.0000 0.74960  0.59460  0.65270  Biso   1.000  C
  N11      1.0000 0.61040  0.58930  0.68580  Biso   1.000  N
  C29      1.0000 0.56210  0.51350  0.70760  Biso   1.000  C
  N12      1.0000 0.65310  0.44300  0.69630  Biso   1.000  N
  C30      1.0000 0.79230  0.44820  0.66320  Biso   1.000  C
  C31      1.0000 0.76260  0.48280  0.91640  Biso   1.000  C
  C32      1.0000 0.63380  0.46750  0.87560  Biso   1.000  C
  H33      1.0000 0.62080  0.51080  0.83800  Biso   1.000  H
  H34      1.0000 0.66410  0.41440  0.86300  Biso   1.000  H
  C33      1.0000 0.47870  0.46690  0.90900  Biso   1.000  C
  H35      1.0000 0.45950  0.51340  0.93060  Biso   1.000  H
  H36      1.0000 0.47900  0.41530  0.93930  Biso   1.000  H
  C34      1.0000 0.83370  0.75100  0.78760  Biso   1.000  C
  C35      1.0000 0.91600  0.66790  0.81800  Biso   1.000  C
  H37      1.0000 0.83820  0.62870  0.82620  Biso   1.000  H
  H38      1.0000 0.96650  0.67090  0.85770  Biso   1.000  H
  C36      1.0000 0.04200  0.63980  0.77560  Biso   1.000  C
  H39      1.0000 0.12110  0.67870  0.76790  Biso   1.000  H
  H40      1.0000 0.99220  0.63780  0.73570  Biso   1.000  H
  C37      1.0000 0.96600  0.22880  0.79280  Biso   1.000  C
  C38      1.0000 0.00200  0.29750  0.82230  Biso   1.000  C
  H41      1.0000 0.90370  0.33670  0.82280  Biso   1.000  H
  H42      1.0000 0.04000  0.27590  0.86530  Biso   1.000  H
  C39      1.0000 0.12800  0.34010  0.78650  Biso   1.000  C
  H43      1.0000 0.09160  0.36020  0.74310  Biso   1.000  H
  H44      1.0000 0.22770  0.30160  0.78730  Biso   1.000  H
  C40      1.0000 0.25430  0.51660  0.58450  Biso   1.000  C
  C41      1.0000 0.11670  0.53030  0.62520  Biso   1.000  C
  H45      1.0000 0.12800  0.48670  0.66270  Biso   1.000  H
  H46      1.0000 0.11640  0.58340  0.63810  Biso   1.000  H
  C42      1.0000 0.96170  0.53000  0.59200  Biso   1.000  C
  H47      1.0000 0.96800  0.48270  0.57130  Biso   1.000  H
  H48      1.0000 0.93470  0.58090  0.56090  Biso   1.000  H
  C43      1.0000 0.32900  0.77170  0.71110  Biso   1.000  C
  C44      1.0000 0.39900  0.70500  0.67890  Biso   1.000  C
  H49      1.0000 0.32000  0.66770  0.67580  Biso   1.000  H
  H50      1.0000 0.42990  0.72870  0.63680  Biso   1.000  H
  C45      1.0000 0.54400  0.65870  0.71560  Biso   1.000  C
  H51      1.0000 0.51410  0.63750  0.75830  Biso   1.000  H
  H52      1.0000 0.62530  0.69540  0.71690  Biso   1.000  H
  C46      1.0000 0.46400  0.24990  0.71150  Biso   1.000  C
  C47      1.0000 0.49900  0.33400  0.68190  Biso   1.000  C
  H53      1.0000 0.39900  0.37300  0.67590  Biso   1.000  H
  H54      1.0000 0.54650  0.33270  0.64120  Biso   1.000  H
  C48      1.0000 0.61300  0.36030  0.72330  Biso   1.000  C
  H55      1.0000 0.71220  0.32050  0.72950  Biso   1.000  H
  H56      1.0000 0.56500  0.36110  0.76400  Biso   1.000  H
  U9       1.0000 0.00000  0.50000  0.00000  Biso   1.000  U
  U10      1.0000 0.50000  0.50000  0.50000  Biso   1.000  U
