data_image0
_cell_length_a       22.1211
_cell_length_b       17.5536
_cell_length_c       7.048
_cell_angle_alpha    90
_cell_angle_beta     97.06
_cell_angle_gamma    90

_symmetry_space_group_name_H-M    "P 1"
_symmetry_int_tables_number       1

loop_
  _symmetry_equiv_pos_as_xyz
  'x, y, z'

loop_
  _atom_site_label
  _atom_site_occupancy
  _atom_site_fract_x
  _atom_site_fract_y
  _atom_site_fract_z
  _atom_site_thermal_displace_type
  _atom_site_B_iso_or_equiv
  _atom_site_type_symbol
  H1       1.0000 0.13600  0.96190  0.38570  Biso   1.000  H
  O1       1.0000 0.16783  0.91270  0.80810  Biso   1.000  O
  O2       1.0000 0.25393  0.91715  0.67250  Biso   1.000  O
  O3       1.0000 0.24003  0.91656  0.25860  Biso   1.000  O
  O4       1.0000 0.14284  0.88114  0.24310  Biso   1.000  O
  H2       1.0000 0.12260  0.84000  0.22820  Biso   1.000  H
  C1       1.0000 0.24870  0.82800  0.92070  Biso   1.000  C
  H3       1.0000 0.28870  0.84640  0.98610  Biso   1.000  H
  C2       1.0000 0.20876  0.80600  0.07420  Biso   1.000  C
  H4       1.0000 0.16890  0.78680  0.00980  Biso   1.000  H
  C3       1.0000 0.26070  0.75770  0.79900  Biso   1.000  C
  H5       1.0000 0.28740  0.77240  0.70210  Biso   1.000  H
  H6       1.0000 0.22170  0.73900  0.73110  Biso   1.000  H
  C4       1.0000 0.22078  0.89150  0.78960  Biso   1.000  C
  C5       1.0000 0.19660  0.87350  0.20110  Biso   1.000  C
  N1       1.0000 0.04692  0.07676  0.59040  Biso   1.000  N
  C6       1.0000 0.04740  0.15390  0.58980  Biso   1.000  C
  H7       1.0000 0.08160  0.18010  0.65350  Biso   1.000  H
  C7       1.0000 0.36930  0.06450  0.48060  Biso   1.000  C
  H8       1.0000 0.34750  0.11120  0.47670  Biso   1.000  H
  C8       1.0000 0.43280  0.06700  0.49140  Biso   1.000  C
  H9       1.0000 0.45320  0.11480  0.49530  Biso   1.000  H
  O5       1.0000 0.08820  0.75670  0.68600  Biso   1.000  O
  H10      1.0000 0.63600  0.46190  0.38570  Biso   1.000  H
  O6       1.0000 0.66783  0.41270  0.80810  Biso   1.000  O
  O7       1.0000 0.75393  0.41715  0.67250  Biso   1.000  O
  O8       1.0000 0.74003  0.41656  0.25860  Biso   1.000  O
  O9       1.0000 0.64284  0.38114  0.24310  Biso   1.000  O
  H11      1.0000 0.62260  0.34000  0.22820  Biso   1.000  H
  C9       1.0000 0.74870  0.32800  0.92070  Biso   1.000  C
  H12      1.0000 0.78870  0.34640  0.98610  Biso   1.000  H
  C10      1.0000 0.70876  0.30600  0.07420  Biso   1.000  C
  H13      1.0000 0.66890  0.28680  0.00980  Biso   1.000  H
  C11      1.0000 0.76070  0.25770  0.79900  Biso   1.000  C
  H14      1.0000 0.78740  0.27240  0.70210  Biso   1.000  H
  H15      1.0000 0.72170  0.23900  0.73110  Biso   1.000  H
  C12      1.0000 0.72078  0.39150  0.78960  Biso   1.000  C
  C13      1.0000 0.69660  0.37350  0.20110  Biso   1.000  C
  N2       1.0000 0.54692  0.57676  0.59040  Biso   1.000  N
  C14      1.0000 0.54740  0.65390  0.58980  Biso   1.000  C
  H16      1.0000 0.58160  0.68010  0.65350  Biso   1.000  H
  C15      1.0000 0.86930  0.56450  0.48060  Biso   1.000  C
  H17      1.0000 0.84750  0.61120  0.47670  Biso   1.000  H
  C16      1.0000 0.93280  0.56700  0.49140  Biso   1.000  C
  H18      1.0000 0.95320  0.61480  0.49530  Biso   1.000  H
  O10      1.0000 0.58820  0.25670  0.68600  Biso   1.000  O
  H19      1.0000 0.86400  0.96190  0.61430  Biso   1.000  H
  O11      1.0000 0.83217  0.91270  0.19190  Biso   1.000  O
  O12      1.0000 0.74607  0.91715  0.32750  Biso   1.000  O
  O13      1.0000 0.75997  0.91656  0.74140  Biso   1.000  O
  O14      1.0000 0.85716  0.88114  0.75690  Biso   1.000  O
  H20      1.0000 0.87740  0.84000  0.77180  Biso   1.000  H
  C17      1.0000 0.75130  0.82800  0.07930  Biso   1.000  C
  H21      1.0000 0.71130  0.84640  0.01390  Biso   1.000  H
  C18      1.0000 0.79124  0.80600  0.92580  Biso   1.000  C
  H22      1.0000 0.83110  0.78680  0.99020  Biso   1.000  H
  C19      1.0000 0.73930  0.75770  0.20100  Biso   1.000  C
  H23      1.0000 0.71260  0.77240  0.29790  Biso   1.000  H
  H24      1.0000 0.77830  0.73900  0.26890  Biso   1.000  H
  C20      1.0000 0.77922  0.89150  0.21040  Biso   1.000  C
  C21      1.0000 0.80340  0.87350  0.79890  Biso   1.000  C
  N3       1.0000 0.95308  0.07676  0.40960  Biso   1.000  N
  C22      1.0000 0.95260  0.15390  0.41020  Biso   1.000  C
  H25      1.0000 0.91840  0.18010  0.34650  Biso   1.000  H
  C23      1.0000 0.63070  0.06450  0.51940  Biso   1.000  C
  H26      1.0000 0.65250  0.11120  0.52330  Biso   1.000  H
  C24      1.0000 0.56720  0.06700  0.50860  Biso   1.000  C
  H27      1.0000 0.54680  0.11480  0.50470  Biso   1.000  H
  O15      1.0000 0.91180  0.75670  0.31400  Biso   1.000  O
  H28      1.0000 0.36400  0.46190  0.61430  Biso   1.000  H
  O16      1.0000 0.33217  0.41270  0.19190  Biso   1.000  O
  O17      1.0000 0.24607  0.41715  0.32750  Biso   1.000  O
  O18      1.0000 0.25997  0.41656  0.74140  Biso   1.000  O
  O19      1.0000 0.35716  0.38114  0.75690  Biso   1.000  O
  H29      1.0000 0.37740  0.34000  0.77180  Biso   1.000  H
  C25      1.0000 0.25130  0.32800  0.07930  Biso   1.000  C
  H30      1.0000 0.21130  0.34640  0.01390  Biso   1.000  H
  C26      1.0000 0.29124  0.30600  0.92580  Biso   1.000  C
  H31      1.0000 0.33110  0.28680  0.99020  Biso   1.000  H
  C27      1.0000 0.23930  0.25770  0.20100  Biso   1.000  C
  H32      1.0000 0.21260  0.27240  0.29790  Biso   1.000  H
  H33      1.0000 0.27830  0.23900  0.26890  Biso   1.000  H
  C28      1.0000 0.27922  0.39150  0.21040  Biso   1.000  C
  C29      1.0000 0.30340  0.37350  0.79890  Biso   1.000  C
  N4       1.0000 0.45308  0.57676  0.40960  Biso   1.000  N
  C30      1.0000 0.45260  0.65390  0.41020  Biso   1.000  C
  H34      1.0000 0.41840  0.68010  0.34650  Biso   1.000  H
  C31      1.0000 0.13070  0.56450  0.51940  Biso   1.000  C
  H35      1.0000 0.15250  0.61120  0.52330  Biso   1.000  H
  C32      1.0000 0.06720  0.56700  0.50860  Biso   1.000  C
  H36      1.0000 0.04680  0.61480  0.50470  Biso   1.000  H
  O20      1.0000 0.41180  0.25670  0.31400  Biso   1.000  O
  H37      1.0000 0.86400  0.03810  0.61430  Biso   1.000  H
  O21      1.0000 0.83217  0.08730  0.19190  Biso   1.000  O
  O22      1.0000 0.74607  0.08285  0.32750  Biso   1.000  O
  O23      1.0000 0.75997  0.08344  0.74140  Biso   1.000  O
  O24      1.0000 0.85716  0.11886  0.75690  Biso   1.000  O
  H38      1.0000 0.87740  0.16000  0.77180  Biso   1.000  H
  C33      1.0000 0.75130  0.17200  0.07930  Biso   1.000  C
  H39      1.0000 0.71130  0.15360  0.01390  Biso   1.000  H
  C34      1.0000 0.79124  0.19400  0.92580  Biso   1.000  C
  H40      1.0000 0.83110  0.21320  0.99020  Biso   1.000  H
  C35      1.0000 0.73930  0.24230  0.20100  Biso   1.000  C
  H41      1.0000 0.71260  0.22760  0.29790  Biso   1.000  H
  H42      1.0000 0.77830  0.26100  0.26890  Biso   1.000  H
  C36      1.0000 0.77922  0.10850  0.21040  Biso   1.000  C
  C37      1.0000 0.80340  0.12650  0.79890  Biso   1.000  C
  N5       1.0000 0.95308  0.92324  0.40960  Biso   1.000  N
  C38      1.0000 0.95260  0.84610  0.41020  Biso   1.000  C
  H43      1.0000 0.91840  0.81990  0.34650  Biso   1.000  H
  C39      1.0000 0.63070  0.93550  0.51940  Biso   1.000  C
  H44      1.0000 0.65250  0.88880  0.52330  Biso   1.000  H
  C40      1.0000 0.56720  0.93300  0.50860  Biso   1.000  C
  H45      1.0000 0.54680  0.88520  0.50470  Biso   1.000  H
  O25      1.0000 0.91180  0.24330  0.31400  Biso   1.000  O
  H46      1.0000 0.36400  0.53810  0.61430  Biso   1.000  H
  O26      1.0000 0.33217  0.58730  0.19190  Biso   1.000  O
  O27      1.0000 0.24607  0.58285  0.32750  Biso   1.000  O
  O28      1.0000 0.25997  0.58344  0.74140  Biso   1.000  O
  O29      1.0000 0.35716  0.61886  0.75690  Biso   1.000  O
  H47      1.0000 0.37740  0.66000  0.77180  Biso   1.000  H
  C41      1.0000 0.25130  0.67200  0.07930  Biso   1.000  C
  H48      1.0000 0.21130  0.65360  0.01390  Biso   1.000  H
  C42      1.0000 0.29124  0.69400  0.92580  Biso   1.000  C
  H49      1.0000 0.33110  0.71320  0.99020  Biso   1.000  H
  C43      1.0000 0.23930  0.74230  0.20100  Biso   1.000  C
  H50      1.0000 0.21260  0.72760  0.29790  Biso   1.000  H
  H51      1.0000 0.27830  0.76100  0.26890  Biso   1.000  H
  C44      1.0000 0.27922  0.60850  0.21040  Biso   1.000  C
  C45      1.0000 0.30340  0.62650  0.79890  Biso   1.000  C
  N6       1.0000 0.45308  0.42324  0.40960  Biso   1.000  N
  C46      1.0000 0.45260  0.34610  0.41020  Biso   1.000  C
  H52      1.0000 0.41840  0.31990  0.34650  Biso   1.000  H
  C47      1.0000 0.13070  0.43550  0.51940  Biso   1.000  C
  H53      1.0000 0.15250  0.38880  0.52330  Biso   1.000  H
  C48      1.0000 0.06720  0.43300  0.50860  Biso   1.000  C
  H54      1.0000 0.04680  0.38520  0.50470  Biso   1.000  H
  O30      1.0000 0.41180  0.74330  0.31400  Biso   1.000  O
  H55      1.0000 0.13600  0.03810  0.38570  Biso   1.000  H
  O31      1.0000 0.16783  0.08730  0.80810  Biso   1.000  O
  O32      1.0000 0.25393  0.08285  0.67250  Biso   1.000  O
  O33      1.0000 0.24003  0.08344  0.25860  Biso   1.000  O
  O34      1.0000 0.14284  0.11886  0.24310  Biso   1.000  O
  H56      1.0000 0.12260  0.16000  0.22820  Biso   1.000  H
  C49      1.0000 0.24870  0.17200  0.92070  Biso   1.000  C
  H57      1.0000 0.28870  0.15360  0.98610  Biso   1.000  H
  C50      1.0000 0.20876  0.19400  0.07420  Biso   1.000  C
  H58      1.0000 0.16890  0.21320  0.00980  Biso   1.000  H
  C51      1.0000 0.26070  0.24230  0.79900  Biso   1.000  C
  H59      1.0000 0.28740  0.22760  0.70210  Biso   1.000  H
  H60      1.0000 0.22170  0.26100  0.73110  Biso   1.000  H
  C52      1.0000 0.22078  0.10850  0.78960  Biso   1.000  C
  C53      1.0000 0.19660  0.12650  0.20110  Biso   1.000  C
  N7       1.0000 0.04692  0.92324  0.59040  Biso   1.000  N
  C54      1.0000 0.04740  0.84610  0.58980  Biso   1.000  C
  H61      1.0000 0.08160  0.81990  0.65350  Biso   1.000  H
  C55      1.0000 0.36930  0.93550  0.48060  Biso   1.000  C
  H62      1.0000 0.34750  0.88880  0.47670  Biso   1.000  H
  C56      1.0000 0.43280  0.93300  0.49140  Biso   1.000  C
  H63      1.0000 0.45320  0.88520  0.49530  Biso   1.000  H
  O35      1.0000 0.08820  0.24330  0.68600  Biso   1.000  O
  H64      1.0000 0.63600  0.53810  0.38570  Biso   1.000  H
  O36      1.0000 0.66783  0.58730  0.80810  Biso   1.000  O
  O37      1.0000 0.75393  0.58285  0.67250  Biso   1.000  O
  O38      1.0000 0.74003  0.58344  0.25860  Biso   1.000  O
  O39      1.0000 0.64284  0.61886  0.24310  Biso   1.000  O
  H65      1.0000 0.62260  0.66000  0.22820  Biso   1.000  H
  C57      1.0000 0.74870  0.67200  0.92070  Biso   1.000  C
  H66      1.0000 0.78870  0.65360  0.98610  Biso   1.000  H
  C58      1.0000 0.70876  0.69400  0.07420  Biso   1.000  C
  H67      1.0000 0.66890  0.71320  0.00980  Biso   1.000  H
  C59      1.0000 0.76070  0.74230  0.79900  Biso   1.000  C
  H68      1.0000 0.78740  0.72760  0.70210  Biso   1.000  H
  H69      1.0000 0.72170  0.76100  0.73110  Biso   1.000  H
  C60      1.0000 0.72078  0.60850  0.78960  Biso   1.000  C
  C61      1.0000 0.69660  0.62650  0.20110  Biso   1.000  C
  N8       1.0000 0.54692  0.42324  0.59040  Biso   1.000  N
  C62      1.0000 0.54740  0.34610  0.58980  Biso   1.000  C
  H70      1.0000 0.58160  0.31990  0.65350  Biso   1.000  H
  C63      1.0000 0.86930  0.43550  0.48060  Biso   1.000  C
  H71      1.0000 0.84750  0.38880  0.47670  Biso   1.000  H
  C64      1.0000 0.93280  0.43300  0.49140  Biso   1.000  C
  H72      1.0000 0.95320  0.38520  0.49530  Biso   1.000  H
  O40      1.0000 0.58820  0.74330  0.68600  Biso   1.000  O
  Ni1      1.0000 0.24423  0.00000  0.46905  Biso   1.000  Ni
  Ni2      1.0000 0.11447  0.00000  0.70499  Biso   1.000  Ni
  O41      1.0000 0.14990  0.00000  0.45170  Biso   1.000  O
  N9       1.0000 0.33820  0.00000  0.47560  Biso   1.000  N
  C65      1.0000 0.46630  0.00000  0.49660  Biso   1.000  C
  Ni3      1.0000 0.74423  0.50000  0.46905  Biso   1.000  Ni
  Ni4      1.0000 0.61447  0.50000  0.70499  Biso   1.000  Ni
  O42      1.0000 0.64990  0.50000  0.45170  Biso   1.000  O
  N10      1.0000 0.83820  0.50000  0.47560  Biso   1.000  N
  C66      1.0000 0.96630  0.50000  0.49660  Biso   1.000  C
  Ni5      1.0000 0.75577  0.00000  0.53095  Biso   1.000  Ni
  Ni6      1.0000 0.88553  0.00000  0.29501  Biso   1.000  Ni
  O43      1.0000 0.85010  0.00000  0.54830  Biso   1.000  O
  N11      1.0000 0.66180  0.00000  0.52440  Biso   1.000  N
  C67      1.0000 0.53370  0.00000  0.50340  Biso   1.000  C
  Ni7      1.0000 0.25577  0.50000  0.53095  Biso   1.000  Ni
  Ni8      1.0000 0.38553  0.50000  0.29501  Biso   1.000  Ni
  O44      1.0000 0.35010  0.50000  0.54830  Biso   1.000  O
  N12      1.0000 0.16180  0.50000  0.52440  Biso   1.000  N
  C68      1.0000 0.03370  0.50000  0.50340  Biso   1.000  C
  C69      1.0000 0.00000  0.04330  0.50000  Biso   1.000  C
  C70      1.0000 0.00000  0.19440  0.50000  Biso   1.000  C
  H73      1.0000 0.00000  0.24850  0.50000  Biso   1.000  H
  C71      1.0000 0.50000  0.54330  0.50000  Biso   1.000  C
  C72      1.0000 0.50000  0.69440  0.50000  Biso   1.000  C
  H74      1.0000 0.50000  0.74850  0.50000  Biso   1.000  H
  C73      1.0000 0.00000  0.95670  0.50000  Biso   1.000  C
  C74      1.0000 0.00000  0.80560  0.50000  Biso   1.000  C
  H75      1.0000 0.00000  0.75150  0.50000  Biso   1.000  H
  C75      1.0000 0.50000  0.45670  0.50000  Biso   1.000  C
  C76      1.0000 0.50000  0.30560  0.50000  Biso   1.000  C
  H76      1.0000 0.50000  0.25150  0.50000  Biso   1.000  H
