data_image0
_cell_length_a       17.0105
_cell_length_b       21.9594
_cell_length_c       24.8081
_cell_angle_alpha    90
_cell_angle_beta     90
_cell_angle_gamma    90

_symmetry_space_group_name_H-M    "P 1"
_symmetry_int_tables_number       1

loop_
  _symmetry_equiv_pos_as_xyz
  'x, y, z'

loop_
  _atom_site_label
  _atom_site_occupancy
  _atom_site_fract_x
  _atom_site_fract_y
  _atom_site_fract_z
  _atom_site_thermal_displace_type
  _atom_site_B_iso_or_equiv
  _atom_site_type_symbol
  Th1      1.0000 0.43088  0.59800  0.55477  Biso   1.000  Th
  Th2      1.0000 0.45300  0.54819  0.39889  Biso   1.000  Th
  Th3      1.0000 0.64543  0.56240  0.49495  Biso   1.000  Th
  O1       1.0000 0.44690  0.59620  0.65270  Biso   1.000  O
  O2       1.0000 0.50790  0.51130  0.67960  Biso   1.000  O
  O3       1.0000 0.36210  0.82730  0.99600  Biso   1.000  O
  O4       1.0000 0.37750  0.85560  0.90790  Biso   1.000  O
  O5       1.0000 0.65800  0.87890  0.91310  Biso   1.000  O
  O6       1.0000 0.55360  0.88300  0.85810  Biso   1.000  O
  O7       1.0000 0.35130  0.65660  0.83280  Biso   1.000  O
  O8       1.0000 0.51840  0.76910  0.93610  Biso   1.000  O
  O9       1.0000 0.60000  0.69260  0.77600  Biso   1.000  O
  O10      1.0000 0.29500  0.58330  0.58350  Biso   1.000  O
  O11      1.0000 0.24880  0.49660  0.54970  Biso   1.000  O
  O12      1.0000 0.32350  0.51470  0.37020  Biso   1.000  O
  O13      1.0000 0.25940  0.45970  0.43090  Biso   1.000  O
  O14      1.0000 0.01570  0.81060  0.43680  Biso   1.000  O
  O15      1.0000 0.13630  0.83370  0.46630  Biso   1.000  O
  O16      1.0000 0.09580  0.44840  0.48750  Biso   1.000  O
  O17      1.0000 0.07710  0.60440  0.36770  Biso   1.000  O
  O18      1.0000 0.05040  0.63880  0.54790  Biso   1.000  O
  O19      1.0000 0.51420  0.60650  0.47300  Biso   1.000  O
  O20      1.0000 0.38230  0.53890  0.48120  Biso   1.000  O
  O21      1.0000 0.58090  0.50680  0.42160  Biso   1.000  O
  O22      1.0000 0.55840  0.55540  0.57080  Biso   1.000  O
  N1       1.0000 0.47390  0.67820  0.80150  Biso   1.000  N
  N2       1.0000 0.43440  0.71060  0.88650  Biso   1.000  N
  N3       1.0000 0.56230  0.72810  0.85740  Biso   1.000  N
  N4       1.0000 0.08750  0.54530  0.51960  Biso   1.000  N
  N5       1.0000 0.09690  0.52600  0.42690  Biso   1.000  N
  N6       1.0000 0.06140  0.62330  0.45740  Biso   1.000  N
  C1       1.0000 0.47830  0.56200  0.68770  Biso   1.000  C
  C2       1.0000 0.47850  0.58610  0.74450  Biso   1.000  C
  H1       1.0000 0.44120  0.56200  0.76660  Biso   1.000  H
  H2       1.0000 0.53160  0.58090  0.76010  Biso   1.000  H
  C3       1.0000 0.45580  0.65210  0.74710  Biso   1.000  C
  H3       1.0000 0.48500  0.67510  0.71910  Biso   1.000  H
  H4       1.0000 0.39890  0.65640  0.73960  Biso   1.000  H
  C4       1.0000 0.41530  0.68050  0.83980  Biso   1.000  C
  C5       1.0000 0.37530  0.70940  0.92990  Biso   1.000  C
  H5       1.0000 0.40260  0.71200  0.96510  Biso   1.000  H
  H6       1.0000 0.34710  0.67000  0.92870  Biso   1.000  H
  C6       1.0000 0.31570  0.76080  0.92620  Biso   1.000  C
  H7       1.0000 0.29720  0.76510  0.88860  Biso   1.000  H
  H8       1.0000 0.26970  0.75160  0.94930  Biso   1.000  H
  C7       1.0000 0.35400  0.81930  0.94460  Biso   1.000  C
  C8       1.0000 0.50500  0.73840  0.89580  Biso   1.000  C
  C9       1.0000 0.64360  0.75100  0.86790  Biso   1.000  C
  H9       1.0000 0.68230  0.72070  0.85480  Biso   1.000  H
  H10      1.0000 0.65140  0.75610  0.90720  Biso   1.000  H
  C10      1.0000 0.65740  0.81200  0.83950  Biso   1.000  C
  H11      1.0000 0.71450  0.81960  0.83610  Biso   1.000  H
  H12      1.0000 0.63440  0.81070  0.80290  Biso   1.000  H
  C11      1.0000 0.61970  0.86260  0.87170  Biso   1.000  C
  C12      1.0000 0.54850  0.69860  0.80950  Biso   1.000  C
  C13      1.0000 0.24150  0.54360  0.57650  Biso   1.000  C
  C14      1.0000 0.16340  0.55570  0.60380  Biso   1.000  C
  H13      1.0000 0.16610  0.54120  0.64150  Biso   1.000  H
  H14      1.0000 0.15410  0.60020  0.60470  Biso   1.000  H
  C15      1.0000 0.09490  0.52530  0.57610  Biso   1.000  C
  H15      1.0000 0.10220  0.48060  0.57710  Biso   1.000  H
  H16      1.0000 0.04580  0.53500  0.59570  Biso   1.000  H
  C16      1.0000 0.09430  0.50300  0.47810  Biso   1.000  C
  C17      1.0000 0.11200  0.48440  0.38110  Biso   1.000  C
  H17      1.0000 0.06950  0.48910  0.35420  Biso   1.000  H
  H18      1.0000 0.11100  0.44180  0.39430  Biso   1.000  H
  C18      1.0000 0.19040  0.49660  0.35430  Biso   1.000  C
  H19      1.0000 0.19520  0.46880  0.32300  Biso   1.000  H
  H20      1.0000 0.18940  0.53870  0.34000  Biso   1.000  H
  C19      1.0000 0.26280  0.48990  0.38790  Biso   1.000  C
  C20      1.0000 0.07930  0.58610  0.41340  Biso   1.000  C
  C21      1.0000 0.03700  0.68750  0.44680  Biso   1.000  C
  H21      1.0000 0.99630  0.69980  0.47320  Biso   1.000  H
  H22      1.0000 0.01390  0.69050  0.41030  Biso   1.000  H
  C22      1.0000 0.10660  0.72960  0.45110  Biso   1.000  C
  H23      1.0000 0.14250  0.72180  0.42050  Biso   1.000  H
  H24      1.0000 0.13550  0.72040  0.48480  Biso   1.000  H
  C23      1.0000 0.08330  0.79700  0.45110  Biso   1.000  C
  C24      1.0000 0.06530  0.60520  0.51060  Biso   1.000  C
  Th4      1.0000 0.06912  0.40200  0.05477  Biso   1.000  Th
  Th5      1.0000 0.04700  0.45181  0.89889  Biso   1.000  Th
  Th6      1.0000 0.85457  0.43760  0.99495  Biso   1.000  Th
  O23      1.0000 0.05310  0.40380  0.15270  Biso   1.000  O
  O24      1.0000 0.99210  0.48870  0.17960  Biso   1.000  O
  O25      1.0000 0.13790  0.17270  0.49600  Biso   1.000  O
  O26      1.0000 0.12250  0.14440  0.40790  Biso   1.000  O
  O27      1.0000 0.84200  0.12110  0.41310  Biso   1.000  O
  O28      1.0000 0.94640  0.11700  0.35810  Biso   1.000  O
  O29      1.0000 0.14870  0.34340  0.33280  Biso   1.000  O
  O30      1.0000 0.98160  0.23090  0.43610  Biso   1.000  O
  O31      1.0000 0.90000  0.30740  0.27600  Biso   1.000  O
  O32      1.0000 0.20500  0.41670  0.08350  Biso   1.000  O
  O33      1.0000 0.25120  0.50340  0.04970  Biso   1.000  O
  O34      1.0000 0.17650  0.48530  0.87020  Biso   1.000  O
  O35      1.0000 0.24060  0.54030  0.93090  Biso   1.000  O
  O36      1.0000 0.48430  0.18940  0.93680  Biso   1.000  O
  O37      1.0000 0.36370  0.16630  0.96630  Biso   1.000  O
  O38      1.0000 0.40420  0.55160  0.98750  Biso   1.000  O
  O39      1.0000 0.42290  0.39560  0.86770  Biso   1.000  O
  O40      1.0000 0.44960  0.36120  0.04790  Biso   1.000  O
  O41      1.0000 0.98580  0.39350  0.97300  Biso   1.000  O
  O42      1.0000 0.11770  0.46110  0.98120  Biso   1.000  O
  O43      1.0000 0.91910  0.49320  0.92160  Biso   1.000  O
  O44      1.0000 0.94160  0.44460  0.07080  Biso   1.000  O
  N7       1.0000 0.02610  0.32180  0.30150  Biso   1.000  N
  N8       1.0000 0.06560  0.28940  0.38650  Biso   1.000  N
  N9       1.0000 0.93770  0.27190  0.35740  Biso   1.000  N
  N10      1.0000 0.41250  0.45470  0.01960  Biso   1.000  N
  N11      1.0000 0.40310  0.47400  0.92690  Biso   1.000  N
  N12      1.0000 0.43860  0.37670  0.95740  Biso   1.000  N
  C25      1.0000 0.02170  0.43800  0.18770  Biso   1.000  C
  C26      1.0000 0.02150  0.41390  0.24450  Biso   1.000  C
  H25      1.0000 0.05880  0.43800  0.26660  Biso   1.000  H
  H26      1.0000 0.96840  0.41910  0.26010  Biso   1.000  H
  C27      1.0000 0.04420  0.34790  0.24710  Biso   1.000  C
  H27      1.0000 0.01500  0.32490  0.21910  Biso   1.000  H
  H28      1.0000 0.10110  0.34360  0.23960  Biso   1.000  H
  C28      1.0000 0.08470  0.31950  0.33980  Biso   1.000  C
  C29      1.0000 0.12470  0.29060  0.42990  Biso   1.000  C
  H29      1.0000 0.09740  0.28800  0.46510  Biso   1.000  H
  H30      1.0000 0.15290  0.33000  0.42870  Biso   1.000  H
  C30      1.0000 0.18430  0.23920  0.42620  Biso   1.000  C
  H31      1.0000 0.20280  0.23490  0.38860  Biso   1.000  H
  H32      1.0000 0.23030  0.24840  0.44930  Biso   1.000  H
  C31      1.0000 0.14600  0.18070  0.44460  Biso   1.000  C
  C32      1.0000 0.99500  0.26160  0.39580  Biso   1.000  C
  C33      1.0000 0.85640  0.24900  0.36790  Biso   1.000  C
  H33      1.0000 0.81770  0.27930  0.35480  Biso   1.000  H
  H34      1.0000 0.84860  0.24390  0.40720  Biso   1.000  H
  C34      1.0000 0.84260  0.18800  0.33950  Biso   1.000  C
  H35      1.0000 0.78550  0.18040  0.33610  Biso   1.000  H
  H36      1.0000 0.86560  0.18930  0.30290  Biso   1.000  H
  C35      1.0000 0.88030  0.13740  0.37170  Biso   1.000  C
  C36      1.0000 0.95150  0.30140  0.30950  Biso   1.000  C
  C37      1.0000 0.25850  0.45640  0.07650  Biso   1.000  C
  C38      1.0000 0.33660  0.44430  0.10380  Biso   1.000  C
  H37      1.0000 0.33390  0.45880  0.14150  Biso   1.000  H
  H38      1.0000 0.34590  0.39980  0.10470  Biso   1.000  H
  C39      1.0000 0.40510  0.47470  0.07610  Biso   1.000  C
  H39      1.0000 0.39780  0.51940  0.07710  Biso   1.000  H
  H40      1.0000 0.45420  0.46500  0.09570  Biso   1.000  H
  C40      1.0000 0.40570  0.49700  0.97810  Biso   1.000  C
  C41      1.0000 0.38800  0.51560  0.88110  Biso   1.000  C
  H41      1.0000 0.43050  0.51090  0.85420  Biso   1.000  H
  H42      1.0000 0.38900  0.55820  0.89430  Biso   1.000  H
  C42      1.0000 0.30960  0.50340  0.85430  Biso   1.000  C
  H43      1.0000 0.30480  0.53120  0.82300  Biso   1.000  H
  H44      1.0000 0.31060  0.46130  0.84000  Biso   1.000  H
  C43      1.0000 0.23720  0.51010  0.88790  Biso   1.000  C
  C44      1.0000 0.42070  0.41390  0.91340  Biso   1.000  C
  C45      1.0000 0.46300  0.31250  0.94680  Biso   1.000  C
  H45      1.0000 0.50370  0.30020  0.97320  Biso   1.000  H
  H46      1.0000 0.48610  0.30950  0.91030  Biso   1.000  H
  C46      1.0000 0.39340  0.27040  0.95110  Biso   1.000  C
  H47      1.0000 0.35750  0.27820  0.92050  Biso   1.000  H
  H48      1.0000 0.36450  0.27960  0.98480  Biso   1.000  H
  C47      1.0000 0.41670  0.20300  0.95110  Biso   1.000  C
  C48      1.0000 0.43470  0.39480  0.01060  Biso   1.000  C
  Th7      1.0000 0.56912  0.09800  0.94523  Biso   1.000  Th
  Th8      1.0000 0.54700  0.04819  0.10111  Biso   1.000  Th
  Th9      1.0000 0.35457  0.06240  0.00505  Biso   1.000  Th
  O45      1.0000 0.55310  0.09620  0.84730  Biso   1.000  O
  O46      1.0000 0.49210  0.01130  0.82040  Biso   1.000  O
  O47      1.0000 0.63790  0.32730  0.50400  Biso   1.000  O
  O48      1.0000 0.62250  0.35560  0.59210  Biso   1.000  O
  O49      1.0000 0.34200  0.37890  0.58690  Biso   1.000  O
  O50      1.0000 0.44640  0.38300  0.64190  Biso   1.000  O
  O51      1.0000 0.64870  0.15660  0.66720  Biso   1.000  O
  O52      1.0000 0.48160  0.26910  0.56390  Biso   1.000  O
  O53      1.0000 0.40000  0.19260  0.72400  Biso   1.000  O
  O54      1.0000 0.70500  0.08330  0.91650  Biso   1.000  O
  O55      1.0000 0.75120  0.99660  0.95030  Biso   1.000  O
  O56      1.0000 0.67650  0.01470  0.12980  Biso   1.000  O
  O57      1.0000 0.74060  0.95970  0.06910  Biso   1.000  O
  O58      1.0000 0.98430  0.31060  0.06320  Biso   1.000  O
  O59      1.0000 0.86370  0.33370  0.03370  Biso   1.000  O
  O60      1.0000 0.90420  0.94840  0.01250  Biso   1.000  O
  O61      1.0000 0.92290  0.10440  0.13230  Biso   1.000  O
  O62      1.0000 0.94960  0.13880  0.95210  Biso   1.000  O
  O63      1.0000 0.48580  0.10650  0.02700  Biso   1.000  O
  O64      1.0000 0.61770  0.03890  0.01880  Biso   1.000  O
  O65      1.0000 0.41910  0.00680  0.07840  Biso   1.000  O
  O66      1.0000 0.44160  0.05540  0.92920  Biso   1.000  O
  N13      1.0000 0.52610  0.17820  0.69850  Biso   1.000  N
  N14      1.0000 0.56560  0.21060  0.61350  Biso   1.000  N
  N15      1.0000 0.43770  0.22810  0.64260  Biso   1.000  N
  N16      1.0000 0.91250  0.04530  0.98040  Biso   1.000  N
  N17      1.0000 0.90310  0.02600  0.07310  Biso   1.000  N
  N18      1.0000 0.93860  0.12330  0.04260  Biso   1.000  N
  C49      1.0000 0.52170  0.06200  0.81230  Biso   1.000  C
  C50      1.0000 0.52150  0.08610  0.75550  Biso   1.000  C
  H49      1.0000 0.55880  0.06200  0.73340  Biso   1.000  H
  H50      1.0000 0.46840  0.08090  0.73990  Biso   1.000  H
  C51      1.0000 0.54420  0.15210  0.75290  Biso   1.000  C
  H51      1.0000 0.51500  0.17510  0.78090  Biso   1.000  H
  H52      1.0000 0.60110  0.15640  0.76040  Biso   1.000  H
  C52      1.0000 0.58470  0.18050  0.66020  Biso   1.000  C
  C53      1.0000 0.62470  0.20940  0.57010  Biso   1.000  C
  H53      1.0000 0.59740  0.21200  0.53490  Biso   1.000  H
  H54      1.0000 0.65290  0.17000  0.57130  Biso   1.000  H
  C54      1.0000 0.68430  0.26080  0.57380  Biso   1.000  C
  H55      1.0000 0.70280  0.26510  0.61140  Biso   1.000  H
  H56      1.0000 0.73030  0.25160  0.55070  Biso   1.000  H
  C55      1.0000 0.64600  0.31930  0.55540  Biso   1.000  C
  C56      1.0000 0.49500  0.23840  0.60420  Biso   1.000  C
  C57      1.0000 0.35640  0.25100  0.63210  Biso   1.000  C
  H57      1.0000 0.31770  0.22070  0.64520  Biso   1.000  H
  H58      1.0000 0.34860  0.25610  0.59280  Biso   1.000  H
  C58      1.0000 0.34260  0.31200  0.66050  Biso   1.000  C
  H59      1.0000 0.28550  0.31960  0.66390  Biso   1.000  H
  H60      1.0000 0.36560  0.31070  0.69710  Biso   1.000  H
  C59      1.0000 0.38030  0.36260  0.62830  Biso   1.000  C
  C60      1.0000 0.45150  0.19860  0.69050  Biso   1.000  C
  C61      1.0000 0.75850  0.04360  0.92350  Biso   1.000  C
  C62      1.0000 0.83660  0.05570  0.89620  Biso   1.000  C
  H61      1.0000 0.83390  0.04120  0.85850  Biso   1.000  H
  H62      1.0000 0.84590  0.10020  0.89530  Biso   1.000  H
  C63      1.0000 0.90510  0.02530  0.92390  Biso   1.000  C
  H63      1.0000 0.89780  0.98060  0.92290  Biso   1.000  H
  H64      1.0000 0.95420  0.03500  0.90430  Biso   1.000  H
  C64      1.0000 0.90570  0.00300  0.02190  Biso   1.000  C
  C65      1.0000 0.88800  0.98440  0.11890  Biso   1.000  C
  H65      1.0000 0.93050  0.98910  0.14580  Biso   1.000  H
  H66      1.0000 0.88900  0.94180  0.10570  Biso   1.000  H
  C66      1.0000 0.80960  0.99660  0.14570  Biso   1.000  C
  H67      1.0000 0.80480  0.96880  0.17700  Biso   1.000  H
  H68      1.0000 0.81060  0.03870  0.16000  Biso   1.000  H
  C67      1.0000 0.73720  0.98990  0.11210  Biso   1.000  C
  C68      1.0000 0.92070  0.08610  0.08660  Biso   1.000  C
  C69      1.0000 0.96300  0.18750  0.05320  Biso   1.000  C
  H69      1.0000 0.00370  0.19980  0.02680  Biso   1.000  H
  H70      1.0000 0.98610  0.19050  0.08970  Biso   1.000  H
  C70      1.0000 0.89340  0.22960  0.04890  Biso   1.000  C
  H71      1.0000 0.85750  0.22180  0.07950  Biso   1.000  H
  H72      1.0000 0.86450  0.22040  0.01520  Biso   1.000  H
  C71      1.0000 0.91670  0.29700  0.04890  Biso   1.000  C
  C72      1.0000 0.93470  0.10520  0.98940  Biso   1.000  C
  Th10     1.0000 0.93088  0.90200  0.44523  Biso   1.000  Th
  Th11     1.0000 0.95300  0.95181  0.60111  Biso   1.000  Th
  Th12     1.0000 0.14543  0.93760  0.50505  Biso   1.000  Th
  O67      1.0000 0.94690  0.90380  0.34730  Biso   1.000  O
  O68      1.0000 0.00790  0.98870  0.32040  Biso   1.000  O
  O69      1.0000 0.86210  0.67270  0.00400  Biso   1.000  O
  O70      1.0000 0.87750  0.64440  0.09210  Biso   1.000  O
  O71      1.0000 0.15800  0.62110  0.08690  Biso   1.000  O
  O72      1.0000 0.05360  0.61700  0.14190  Biso   1.000  O
  O73      1.0000 0.85130  0.84340  0.16720  Biso   1.000  O
  O74      1.0000 0.01840  0.73090  0.06390  Biso   1.000  O
  O75      1.0000 0.10000  0.80740  0.22400  Biso   1.000  O
  O76      1.0000 0.79500  0.91670  0.41650  Biso   1.000  O
  O77      1.0000 0.74880  0.00340  0.45030  Biso   1.000  O
  O78      1.0000 0.82350  0.98530  0.62980  Biso   1.000  O
  O79      1.0000 0.75940  0.04030  0.56910  Biso   1.000  O
  O80      1.0000 0.51570  0.68940  0.56320  Biso   1.000  O
  O81      1.0000 0.63630  0.66630  0.53370  Biso   1.000  O
  O82      1.0000 0.59580  0.05160  0.51250  Biso   1.000  O
  O83      1.0000 0.57710  0.89560  0.63230  Biso   1.000  O
  O84      1.0000 0.55040  0.86120  0.45210  Biso   1.000  O
  O85      1.0000 0.01420  0.89350  0.52700  Biso   1.000  O
  O86      1.0000 0.88230  0.96110  0.51880  Biso   1.000  O
  O87      1.0000 0.08090  0.99320  0.57840  Biso   1.000  O
  O88      1.0000 0.05840  0.94460  0.42920  Biso   1.000  O
  N19      1.0000 0.97390  0.82180  0.19850  Biso   1.000  N
  N20      1.0000 0.93440  0.78940  0.11350  Biso   1.000  N
  N21      1.0000 0.06230  0.77190  0.14260  Biso   1.000  N
  N22      1.0000 0.58750  0.95470  0.48040  Biso   1.000  N
  N23      1.0000 0.59690  0.97400  0.57310  Biso   1.000  N
  N24      1.0000 0.56140  0.87670  0.54260  Biso   1.000  N
  C73      1.0000 0.97830  0.93800  0.31230  Biso   1.000  C
  C74      1.0000 0.97850  0.91390  0.25550  Biso   1.000  C
  H73      1.0000 0.94120  0.93800  0.23340  Biso   1.000  H
  H74      1.0000 0.03160  0.91910  0.23990  Biso   1.000  H
  C75      1.0000 0.95580  0.84790  0.25290  Biso   1.000  C
  H75      1.0000 0.98500  0.82490  0.28090  Biso   1.000  H
  H76      1.0000 0.89890  0.84360  0.26040  Biso   1.000  H
  C76      1.0000 0.91530  0.81950  0.16020  Biso   1.000  C
  C77      1.0000 0.87530  0.79060  0.07010  Biso   1.000  C
  H77      1.0000 0.90260  0.78800  0.03490  Biso   1.000  H
  H78      1.0000 0.84710  0.83000  0.07130  Biso   1.000  H
  C78      1.0000 0.81570  0.73920  0.07380  Biso   1.000  C
  H79      1.0000 0.79720  0.73490  0.11140  Biso   1.000  H
  H80      1.0000 0.76970  0.74840  0.05070  Biso   1.000  H
  C79      1.0000 0.85400  0.68070  0.05540  Biso   1.000  C
  C80      1.0000 0.00500  0.76160  0.10420  Biso   1.000  C
  C81      1.0000 0.14360  0.74900  0.13210  Biso   1.000  C
  H81      1.0000 0.18230  0.77930  0.14520  Biso   1.000  H
  H82      1.0000 0.15140  0.74390  0.09280  Biso   1.000  H
  C82      1.0000 0.15740  0.68800  0.16050  Biso   1.000  C
  H83      1.0000 0.21450  0.68040  0.16390  Biso   1.000  H
  H84      1.0000 0.13440  0.68930  0.19710  Biso   1.000  H
  C83      1.0000 0.11970  0.63740  0.12830  Biso   1.000  C
  C84      1.0000 0.04850  0.80140  0.19050  Biso   1.000  C
  C85      1.0000 0.74150  0.95640  0.42350  Biso   1.000  C
  C86      1.0000 0.66340  0.94430  0.39620  Biso   1.000  C
  H85      1.0000 0.66610  0.95880  0.35850  Biso   1.000  H
  H86      1.0000 0.65410  0.89980  0.39530  Biso   1.000  H
  C87      1.0000 0.59490  0.97470  0.42390  Biso   1.000  C
  H87      1.0000 0.60220  0.01940  0.42290  Biso   1.000  H
  H88      1.0000 0.54580  0.96500  0.40430  Biso   1.000  H
  C88      1.0000 0.59430  0.99700  0.52190  Biso   1.000  C
  C89      1.0000 0.61200  0.01560  0.61890  Biso   1.000  C
  H89      1.0000 0.56950  0.01090  0.64580  Biso   1.000  H
  H90      1.0000 0.61100  0.05820  0.60570  Biso   1.000  H
  C90      1.0000 0.69040  0.00340  0.64570  Biso   1.000  C
  H91      1.0000 0.69520  0.03120  0.67700  Biso   1.000  H
  H92      1.0000 0.68940  0.96130  0.66000  Biso   1.000  H
  C91      1.0000 0.76280  0.01010  0.61210  Biso   1.000  C
  C92      1.0000 0.57930  0.91390  0.58660  Biso   1.000  C
  C93      1.0000 0.53700  0.81250  0.55320  Biso   1.000  C
  H93      1.0000 0.49630  0.80020  0.52680  Biso   1.000  H
  H94      1.0000 0.51390  0.80950  0.58970  Biso   1.000  H
  C94      1.0000 0.60660  0.77040  0.54890  Biso   1.000  C
  H95      1.0000 0.64250  0.77820  0.57950  Biso   1.000  H
  H96      1.0000 0.63550  0.77960  0.51520  Biso   1.000  H
  C95      1.0000 0.58330  0.70300  0.54890  Biso   1.000  C
  C96      1.0000 0.56530  0.89480  0.48940  Biso   1.000  C
  Th13     1.0000 0.56912  0.40200  0.44523  Biso   1.000  Th
  Th14     1.0000 0.54700  0.45181  0.60111  Biso   1.000  Th
  Th15     1.0000 0.35457  0.43760  0.50505  Biso   1.000  Th
  O89      1.0000 0.55310  0.40380  0.34730  Biso   1.000  O
  O90      1.0000 0.49210  0.48870  0.32040  Biso   1.000  O
  O91      1.0000 0.63790  0.17270  0.00400  Biso   1.000  O
  O92      1.0000 0.62250  0.14440  0.09210  Biso   1.000  O
  O93      1.0000 0.34200  0.12110  0.08690  Biso   1.000  O
  O94      1.0000 0.44640  0.11700  0.14190  Biso   1.000  O
  O95      1.0000 0.64870  0.34340  0.16720  Biso   1.000  O
  O96      1.0000 0.48160  0.23090  0.06390  Biso   1.000  O
  O97      1.0000 0.40000  0.30740  0.22400  Biso   1.000  O
  O98      1.0000 0.70500  0.41670  0.41650  Biso   1.000  O
  O99      1.0000 0.75120  0.50340  0.45030  Biso   1.000  O
  O100     1.0000 0.67650  0.48530  0.62980  Biso   1.000  O
  O101     1.0000 0.74060  0.54030  0.56910  Biso   1.000  O
  O102     1.0000 0.98430  0.18940  0.56320  Biso   1.000  O
  O103     1.0000 0.86370  0.16630  0.53370  Biso   1.000  O
  O104     1.0000 0.90420  0.55160  0.51250  Biso   1.000  O
  O105     1.0000 0.92290  0.39560  0.63230  Biso   1.000  O
  O106     1.0000 0.94960  0.36120  0.45210  Biso   1.000  O
  O107     1.0000 0.48580  0.39350  0.52700  Biso   1.000  O
  O108     1.0000 0.61770  0.46110  0.51880  Biso   1.000  O
  O109     1.0000 0.41910  0.49320  0.57840  Biso   1.000  O
  O110     1.0000 0.44160  0.44460  0.42920  Biso   1.000  O
  N25      1.0000 0.52610  0.32180  0.19850  Biso   1.000  N
  N26      1.0000 0.56560  0.28940  0.11350  Biso   1.000  N
  N27      1.0000 0.43770  0.27190  0.14260  Biso   1.000  N
  N28      1.0000 0.91250  0.45470  0.48040  Biso   1.000  N
  N29      1.0000 0.90310  0.47400  0.57310  Biso   1.000  N
  N30      1.0000 0.93860  0.37670  0.54260  Biso   1.000  N
  C97      1.0000 0.52170  0.43800  0.31230  Biso   1.000  C
  C98      1.0000 0.52150  0.41390  0.25550  Biso   1.000  C
  H97      1.0000 0.55880  0.43800  0.23340  Biso   1.000  H
  H98      1.0000 0.46840  0.41910  0.23990  Biso   1.000  H
  C99      1.0000 0.54420  0.34790  0.25290  Biso   1.000  C
  H99      1.0000 0.51500  0.32490  0.28090  Biso   1.000  H
  H100     1.0000 0.60110  0.34360  0.26040  Biso   1.000  H
  C100     1.0000 0.58470  0.31950  0.16020  Biso   1.000  C
  C101     1.0000 0.62470  0.29060  0.07010  Biso   1.000  C
  H101     1.0000 0.59740  0.28800  0.03490  Biso   1.000  H
  H102     1.0000 0.65290  0.33000  0.07130  Biso   1.000  H
  C102     1.0000 0.68430  0.23920  0.07380  Biso   1.000  C
  H103     1.0000 0.70280  0.23490  0.11140  Biso   1.000  H
  H104     1.0000 0.73030  0.24840  0.05070  Biso   1.000  H
  C103     1.0000 0.64600  0.18070  0.05540  Biso   1.000  C
  C104     1.0000 0.49500  0.26160  0.10420  Biso   1.000  C
  C105     1.0000 0.35640  0.24900  0.13210  Biso   1.000  C
  H105     1.0000 0.31770  0.27930  0.14520  Biso   1.000  H
  H106     1.0000 0.34860  0.24390  0.09280  Biso   1.000  H
  C106     1.0000 0.34260  0.18800  0.16050  Biso   1.000  C
  H107     1.0000 0.28550  0.18040  0.16390  Biso   1.000  H
  H108     1.0000 0.36560  0.18930  0.19710  Biso   1.000  H
  C107     1.0000 0.38030  0.13740  0.12830  Biso   1.000  C
  C108     1.0000 0.45150  0.30140  0.19050  Biso   1.000  C
  C109     1.0000 0.75850  0.45640  0.42350  Biso   1.000  C
  C110     1.0000 0.83660  0.44430  0.39620  Biso   1.000  C
  H109     1.0000 0.83390  0.45880  0.35850  Biso   1.000  H
  H110     1.0000 0.84590  0.39980  0.39530  Biso   1.000  H
  C111     1.0000 0.90510  0.47470  0.42390  Biso   1.000  C
  H111     1.0000 0.89780  0.51940  0.42290  Biso   1.000  H
  H112     1.0000 0.95420  0.46500  0.40430  Biso   1.000  H
  C112     1.0000 0.90570  0.49700  0.52190  Biso   1.000  C
  C113     1.0000 0.88800  0.51560  0.61890  Biso   1.000  C
  H113     1.0000 0.93050  0.51090  0.64580  Biso   1.000  H
  H114     1.0000 0.88900  0.55820  0.60570  Biso   1.000  H
  C114     1.0000 0.80960  0.50340  0.64570  Biso   1.000  C
  H115     1.0000 0.80480  0.53120  0.67700  Biso   1.000  H
  H116     1.0000 0.81060  0.46130  0.66000  Biso   1.000  H
  C115     1.0000 0.73720  0.51010  0.61210  Biso   1.000  C
  C116     1.0000 0.92070  0.41390  0.58660  Biso   1.000  C
  C117     1.0000 0.96300  0.31250  0.55320  Biso   1.000  C
  H117     1.0000 0.00370  0.30020  0.52680  Biso   1.000  H
  H118     1.0000 0.98610  0.30950  0.58970  Biso   1.000  H
  C118     1.0000 0.89340  0.27040  0.54890  Biso   1.000  C
  H119     1.0000 0.85750  0.27820  0.57950  Biso   1.000  H
  H120     1.0000 0.86450  0.27960  0.51520  Biso   1.000  H
  C119     1.0000 0.91670  0.20300  0.54890  Biso   1.000  C
  C120     1.0000 0.93470  0.39480  0.48940  Biso   1.000  C
  Th16     1.0000 0.93088  0.59800  0.94523  Biso   1.000  Th
  Th17     1.0000 0.95300  0.54819  0.10111  Biso   1.000  Th
  Th18     1.0000 0.14543  0.56240  0.00505  Biso   1.000  Th
  O111     1.0000 0.94690  0.59620  0.84730  Biso   1.000  O
  O112     1.0000 0.00790  0.51130  0.82040  Biso   1.000  O
  O113     1.0000 0.86210  0.82730  0.50400  Biso   1.000  O
  O114     1.0000 0.87750  0.85560  0.59210  Biso   1.000  O
  O115     1.0000 0.15800  0.87890  0.58690  Biso   1.000  O
  O116     1.0000 0.05360  0.88300  0.64190  Biso   1.000  O
  O117     1.0000 0.85130  0.65660  0.66720  Biso   1.000  O
  O118     1.0000 0.01840  0.76910  0.56390  Biso   1.000  O
  O119     1.0000 0.10000  0.69260  0.72400  Biso   1.000  O
  O120     1.0000 0.79500  0.58330  0.91650  Biso   1.000  O
  O121     1.0000 0.74880  0.49660  0.95030  Biso   1.000  O
  O122     1.0000 0.82350  0.51470  0.12980  Biso   1.000  O
  O123     1.0000 0.75940  0.45970  0.06910  Biso   1.000  O
  O124     1.0000 0.51570  0.81060  0.06320  Biso   1.000  O
  O125     1.0000 0.63630  0.83370  0.03370  Biso   1.000  O
  O126     1.0000 0.59580  0.44840  0.01250  Biso   1.000  O
  O127     1.0000 0.57710  0.60440  0.13230  Biso   1.000  O
  O128     1.0000 0.55040  0.63880  0.95210  Biso   1.000  O
  O129     1.0000 0.01420  0.60650  0.02700  Biso   1.000  O
  O130     1.0000 0.88230  0.53890  0.01880  Biso   1.000  O
  O131     1.0000 0.08090  0.50680  0.07840  Biso   1.000  O
  O132     1.0000 0.05840  0.55540  0.92920  Biso   1.000  O
  N31      1.0000 0.97390  0.67820  0.69850  Biso   1.000  N
  N32      1.0000 0.93440  0.71060  0.61350  Biso   1.000  N
  N33      1.0000 0.06230  0.72810  0.64260  Biso   1.000  N
  N34      1.0000 0.58750  0.54530  0.98040  Biso   1.000  N
  N35      1.0000 0.59690  0.52600  0.07310  Biso   1.000  N
  N36      1.0000 0.56140  0.62330  0.04260  Biso   1.000  N
  C121     1.0000 0.97830  0.56200  0.81230  Biso   1.000  C
  C122     1.0000 0.97850  0.58610  0.75550  Biso   1.000  C
  H121     1.0000 0.94120  0.56200  0.73340  Biso   1.000  H
  H122     1.0000 0.03160  0.58090  0.73990  Biso   1.000  H
  C123     1.0000 0.95580  0.65210  0.75290  Biso   1.000  C
  H123     1.0000 0.98500  0.67510  0.78090  Biso   1.000  H
  H124     1.0000 0.89890  0.65640  0.76040  Biso   1.000  H
  C124     1.0000 0.91530  0.68050  0.66020  Biso   1.000  C
  C125     1.0000 0.87530  0.70940  0.57010  Biso   1.000  C
  H125     1.0000 0.90260  0.71200  0.53490  Biso   1.000  H
  H126     1.0000 0.84710  0.67000  0.57130  Biso   1.000  H
  C126     1.0000 0.81570  0.76080  0.57380  Biso   1.000  C
  H127     1.0000 0.79720  0.76510  0.61140  Biso   1.000  H
  H128     1.0000 0.76970  0.75160  0.55070  Biso   1.000  H
  C127     1.0000 0.85400  0.81930  0.55540  Biso   1.000  C
  C128     1.0000 0.00500  0.73840  0.60420  Biso   1.000  C
  C129     1.0000 0.14360  0.75100  0.63210  Biso   1.000  C
  H129     1.0000 0.18230  0.72070  0.64520  Biso   1.000  H
  H130     1.0000 0.15140  0.75610  0.59280  Biso   1.000  H
  C130     1.0000 0.15740  0.81200  0.66050  Biso   1.000  C
  H131     1.0000 0.21450  0.81960  0.66390  Biso   1.000  H
  H132     1.0000 0.13440  0.81070  0.69710  Biso   1.000  H
  C131     1.0000 0.11970  0.86260  0.62830  Biso   1.000  C
  C132     1.0000 0.04850  0.69860  0.69050  Biso   1.000  C
  C133     1.0000 0.74150  0.54360  0.92350  Biso   1.000  C
  C134     1.0000 0.66340  0.55570  0.89620  Biso   1.000  C
  H133     1.0000 0.66610  0.54120  0.85850  Biso   1.000  H
  H134     1.0000 0.65410  0.60020  0.89530  Biso   1.000  H
  C135     1.0000 0.59490  0.52530  0.92390  Biso   1.000  C
  H135     1.0000 0.60220  0.48060  0.92290  Biso   1.000  H
  H136     1.0000 0.54580  0.53500  0.90430  Biso   1.000  H
  C136     1.0000 0.59430  0.50300  0.02190  Biso   1.000  C
  C137     1.0000 0.61200  0.48440  0.11890  Biso   1.000  C
  H137     1.0000 0.56950  0.48910  0.14580  Biso   1.000  H
  H138     1.0000 0.61100  0.44180  0.10570  Biso   1.000  H
  C138     1.0000 0.69040  0.49660  0.14570  Biso   1.000  C
  H139     1.0000 0.69520  0.46880  0.17700  Biso   1.000  H
  H140     1.0000 0.68940  0.53870  0.16000  Biso   1.000  H
  C139     1.0000 0.76280  0.48990  0.11210  Biso   1.000  C
  C140     1.0000 0.57930  0.58610  0.08660  Biso   1.000  C
  C141     1.0000 0.53700  0.68750  0.05320  Biso   1.000  C
  H141     1.0000 0.49630  0.69980  0.02680  Biso   1.000  H
  H142     1.0000 0.51390  0.69050  0.08970  Biso   1.000  H
  C142     1.0000 0.60660  0.72960  0.04890  Biso   1.000  C
  H143     1.0000 0.64250  0.72180  0.07950  Biso   1.000  H
  H144     1.0000 0.63550  0.72040  0.01520  Biso   1.000  H
  C143     1.0000 0.58330  0.79700  0.04890  Biso   1.000  C
  C144     1.0000 0.56530  0.60520  0.98940  Biso   1.000  C
  Th19     1.0000 0.43088  0.90200  0.05477  Biso   1.000  Th
  Th20     1.0000 0.45300  0.95181  0.89889  Biso   1.000  Th
  Th21     1.0000 0.64543  0.93760  0.99495  Biso   1.000  Th
  O133     1.0000 0.44690  0.90380  0.15270  Biso   1.000  O
  O134     1.0000 0.50790  0.98870  0.17960  Biso   1.000  O
  O135     1.0000 0.36210  0.67270  0.49600  Biso   1.000  O
  O136     1.0000 0.37750  0.64440  0.40790  Biso   1.000  O
  O137     1.0000 0.65800  0.62110  0.41310  Biso   1.000  O
  O138     1.0000 0.55360  0.61700  0.35810  Biso   1.000  O
  O139     1.0000 0.35130  0.84340  0.33280  Biso   1.000  O
  O140     1.0000 0.51840  0.73090  0.43610  Biso   1.000  O
  O141     1.0000 0.60000  0.80740  0.27600  Biso   1.000  O
  O142     1.0000 0.29500  0.91670  0.08350  Biso   1.000  O
  O143     1.0000 0.24880  0.00340  0.04970  Biso   1.000  O
  O144     1.0000 0.32350  0.98530  0.87020  Biso   1.000  O
  O145     1.0000 0.25940  0.04030  0.93090  Biso   1.000  O
  O146     1.0000 0.01570  0.68940  0.93680  Biso   1.000  O
  O147     1.0000 0.13630  0.66630  0.96630  Biso   1.000  O
  O148     1.0000 0.09580  0.05160  0.98750  Biso   1.000  O
  O149     1.0000 0.07710  0.89560  0.86770  Biso   1.000  O
  O150     1.0000 0.05040  0.86120  0.04790  Biso   1.000  O
  O151     1.0000 0.51420  0.89350  0.97300  Biso   1.000  O
  O152     1.0000 0.38230  0.96110  0.98120  Biso   1.000  O
  O153     1.0000 0.58090  0.99320  0.92160  Biso   1.000  O
  O154     1.0000 0.55840  0.94460  0.07080  Biso   1.000  O
  N37      1.0000 0.47390  0.82180  0.30150  Biso   1.000  N
  N38      1.0000 0.43440  0.78940  0.38650  Biso   1.000  N
  N39      1.0000 0.56230  0.77190  0.35740  Biso   1.000  N
  N40      1.0000 0.08750  0.95470  0.01960  Biso   1.000  N
  N41      1.0000 0.09690  0.97400  0.92690  Biso   1.000  N
  N42      1.0000 0.06140  0.87670  0.95740  Biso   1.000  N
  C145     1.0000 0.47830  0.93800  0.18770  Biso   1.000  C
  C146     1.0000 0.47850  0.91390  0.24450  Biso   1.000  C
  H145     1.0000 0.44120  0.93800  0.26660  Biso   1.000  H
  H146     1.0000 0.53160  0.91910  0.26010  Biso   1.000  H
  C147     1.0000 0.45580  0.84790  0.24710  Biso   1.000  C
  H147     1.0000 0.48500  0.82490  0.21910  Biso   1.000  H
  H148     1.0000 0.39890  0.84360  0.23960  Biso   1.000  H
  C148     1.0000 0.41530  0.81950  0.33980  Biso   1.000  C
  C149     1.0000 0.37530  0.79060  0.42990  Biso   1.000  C
  H149     1.0000 0.40260  0.78800  0.46510  Biso   1.000  H
  H150     1.0000 0.34710  0.83000  0.42870  Biso   1.000  H
  C150     1.0000 0.31570  0.73920  0.42620  Biso   1.000  C
  H151     1.0000 0.29720  0.73490  0.38860  Biso   1.000  H
  H152     1.0000 0.26970  0.74840  0.44930  Biso   1.000  H
  C151     1.0000 0.35400  0.68070  0.44460  Biso   1.000  C
  C152     1.0000 0.50500  0.76160  0.39580  Biso   1.000  C
  C153     1.0000 0.64360  0.74900  0.36790  Biso   1.000  C
  H153     1.0000 0.68230  0.77930  0.35480  Biso   1.000  H
  H154     1.0000 0.65140  0.74390  0.40720  Biso   1.000  H
  C154     1.0000 0.65740  0.68800  0.33950  Biso   1.000  C
  H155     1.0000 0.71450  0.68040  0.33610  Biso   1.000  H
  H156     1.0000 0.63440  0.68930  0.30290  Biso   1.000  H
  C155     1.0000 0.61970  0.63740  0.37170  Biso   1.000  C
  C156     1.0000 0.54850  0.80140  0.30950  Biso   1.000  C
  C157     1.0000 0.24150  0.95640  0.07650  Biso   1.000  C
  C158     1.0000 0.16340  0.94430  0.10380  Biso   1.000  C
  H157     1.0000 0.16610  0.95880  0.14150  Biso   1.000  H
  H158     1.0000 0.15410  0.89980  0.10470  Biso   1.000  H
  C159     1.0000 0.09490  0.97470  0.07610  Biso   1.000  C
  H159     1.0000 0.10220  0.01940  0.07710  Biso   1.000  H
  H160     1.0000 0.04580  0.96500  0.09570  Biso   1.000  H
  C160     1.0000 0.09430  0.99700  0.97810  Biso   1.000  C
  C161     1.0000 0.11200  0.01560  0.88110  Biso   1.000  C
  H161     1.0000 0.06950  0.01090  0.85420  Biso   1.000  H
  H162     1.0000 0.11100  0.05820  0.89430  Biso   1.000  H
  C162     1.0000 0.19040  0.00340  0.85430  Biso   1.000  C
  H163     1.0000 0.19520  0.03120  0.82300  Biso   1.000  H
  H164     1.0000 0.18940  0.96130  0.84000  Biso   1.000  H
  C163     1.0000 0.26280  0.01010  0.88790  Biso   1.000  C
  C164     1.0000 0.07930  0.91390  0.91340  Biso   1.000  C
  C165     1.0000 0.03700  0.81250  0.94680  Biso   1.000  C
  H165     1.0000 0.99630  0.80020  0.97320  Biso   1.000  H
  H166     1.0000 0.01390  0.80950  0.91030  Biso   1.000  H
  C166     1.0000 0.10660  0.77040  0.95110  Biso   1.000  C
  H167     1.0000 0.14250  0.77820  0.92050  Biso   1.000  H
  H168     1.0000 0.13550  0.77960  0.98480  Biso   1.000  H
  C167     1.0000 0.08330  0.70300  0.95110  Biso   1.000  C
  C168     1.0000 0.06530  0.89480  0.01060  Biso   1.000  C
  Th22     1.0000 0.06912  0.09800  0.55477  Biso   1.000  Th
  Th23     1.0000 0.04700  0.04819  0.39889  Biso   1.000  Th
  Th24     1.0000 0.85457  0.06240  0.49495  Biso   1.000  Th
  O155     1.0000 0.05310  0.09620  0.65270  Biso   1.000  O
  O156     1.0000 0.99210  0.01130  0.67960  Biso   1.000  O
  O157     1.0000 0.13790  0.32730  0.99600  Biso   1.000  O
  O158     1.0000 0.12250  0.35560  0.90790  Biso   1.000  O
  O159     1.0000 0.84200  0.37890  0.91310  Biso   1.000  O
  O160     1.0000 0.94640  0.38300  0.85810  Biso   1.000  O
  O161     1.0000 0.14870  0.15660  0.83280  Biso   1.000  O
  O162     1.0000 0.98160  0.26910  0.93610  Biso   1.000  O
  O163     1.0000 0.90000  0.19260  0.77600  Biso   1.000  O
  O164     1.0000 0.20500  0.08330  0.58350  Biso   1.000  O
  O165     1.0000 0.25120  0.99660  0.54970  Biso   1.000  O
  O166     1.0000 0.17650  0.01470  0.37020  Biso   1.000  O
  O167     1.0000 0.24060  0.95970  0.43090  Biso   1.000  O
  O168     1.0000 0.48430  0.31060  0.43680  Biso   1.000  O
  O169     1.0000 0.36370  0.33370  0.46630  Biso   1.000  O
  O170     1.0000 0.40420  0.94840  0.48750  Biso   1.000  O
  O171     1.0000 0.42290  0.10440  0.36770  Biso   1.000  O
  O172     1.0000 0.44960  0.13880  0.54790  Biso   1.000  O
  O173     1.0000 0.98580  0.10650  0.47300  Biso   1.000  O
  O174     1.0000 0.11770  0.03890  0.48120  Biso   1.000  O
  O175     1.0000 0.91910  0.00680  0.42160  Biso   1.000  O
  O176     1.0000 0.94160  0.05540  0.57080  Biso   1.000  O
  N43      1.0000 0.02610  0.17820  0.80150  Biso   1.000  N
  N44      1.0000 0.06560  0.21060  0.88650  Biso   1.000  N
  N45      1.0000 0.93770  0.22810  0.85740  Biso   1.000  N
  N46      1.0000 0.41250  0.04530  0.51960  Biso   1.000  N
  N47      1.0000 0.40310  0.02600  0.42690  Biso   1.000  N
  N48      1.0000 0.43860  0.12330  0.45740  Biso   1.000  N
  C169     1.0000 0.02170  0.06200  0.68770  Biso   1.000  C
  C170     1.0000 0.02150  0.08610  0.74450  Biso   1.000  C
  H169     1.0000 0.05880  0.06200  0.76660  Biso   1.000  H
  H170     1.0000 0.96840  0.08090  0.76010  Biso   1.000  H
  C171     1.0000 0.04420  0.15210  0.74710  Biso   1.000  C
  H171     1.0000 0.01500  0.17510  0.71910  Biso   1.000  H
  H172     1.0000 0.10110  0.15640  0.73960  Biso   1.000  H
  C172     1.0000 0.08470  0.18050  0.83980  Biso   1.000  C
  C173     1.0000 0.12470  0.20940  0.92990  Biso   1.000  C
  H173     1.0000 0.09740  0.21200  0.96510  Biso   1.000  H
  H174     1.0000 0.15290  0.17000  0.92870  Biso   1.000  H
  C174     1.0000 0.18430  0.26080  0.92620  Biso   1.000  C
  H175     1.0000 0.20280  0.26510  0.88860  Biso   1.000  H
  H176     1.0000 0.23030  0.25160  0.94930  Biso   1.000  H
  C175     1.0000 0.14600  0.31930  0.94460  Biso   1.000  C
  C176     1.0000 0.99500  0.23840  0.89580  Biso   1.000  C
  C177     1.0000 0.85640  0.25100  0.86790  Biso   1.000  C
  H177     1.0000 0.81770  0.22070  0.85480  Biso   1.000  H
  H178     1.0000 0.84860  0.25610  0.90720  Biso   1.000  H
  C178     1.0000 0.84260  0.31200  0.83950  Biso   1.000  C
  H179     1.0000 0.78550  0.31960  0.83610  Biso   1.000  H
  H180     1.0000 0.86560  0.31070  0.80290  Biso   1.000  H
  C179     1.0000 0.88030  0.36260  0.87170  Biso   1.000  C
  C180     1.0000 0.95150  0.19860  0.80950  Biso   1.000  C
  C181     1.0000 0.25850  0.04360  0.57650  Biso   1.000  C
  C182     1.0000 0.33660  0.05570  0.60380  Biso   1.000  C
  H181     1.0000 0.33390  0.04120  0.64150  Biso   1.000  H
  H182     1.0000 0.34590  0.10020  0.60470  Biso   1.000  H
  C183     1.0000 0.40510  0.02530  0.57610  Biso   1.000  C
  H183     1.0000 0.39780  0.98060  0.57710  Biso   1.000  H
  H184     1.0000 0.45420  0.03500  0.59570  Biso   1.000  H
  C184     1.0000 0.40570  0.00300  0.47810  Biso   1.000  C
  C185     1.0000 0.38800  0.98440  0.38110  Biso   1.000  C
  H185     1.0000 0.43050  0.98910  0.35420  Biso   1.000  H
  H186     1.0000 0.38900  0.94180  0.39430  Biso   1.000  H
  C186     1.0000 0.30960  0.99660  0.35430  Biso   1.000  C
  H187     1.0000 0.30480  0.96880  0.32300  Biso   1.000  H
  H188     1.0000 0.31060  0.03870  0.34000  Biso   1.000  H
  C187     1.0000 0.23720  0.98990  0.38790  Biso   1.000  C
  C188     1.0000 0.42070  0.08610  0.41340  Biso   1.000  C
  C189     1.0000 0.46300  0.18750  0.44680  Biso   1.000  C
  H189     1.0000 0.50370  0.19980  0.47320  Biso   1.000  H
  H190     1.0000 0.48610  0.19050  0.41030  Biso   1.000  H
  C190     1.0000 0.39340  0.22960  0.45110  Biso   1.000  C
  H191     1.0000 0.35750  0.22180  0.42050  Biso   1.000  H
  H192     1.0000 0.36450  0.22040  0.48480  Biso   1.000  H
  C191     1.0000 0.41670  0.29700  0.45110  Biso   1.000  C
  C192     1.0000 0.43470  0.10520  0.51060  Biso   1.000  C
