data_image0
_cell_length_a       8.5536
_cell_length_b       19.3919
_cell_length_c       44.3014
_cell_angle_alpha    90
_cell_angle_beta     91.111
_cell_angle_gamma    90

_symmetry_space_group_name_H-M    "P 1"
_symmetry_int_tables_number       1

loop_
  _symmetry_equiv_pos_as_xyz
  'x, y, z'

loop_
  _atom_site_label
  _atom_site_occupancy
  _atom_site_fract_x
  _atom_site_fract_y
  _atom_site_fract_z
  _atom_site_thermal_displace_type
  _atom_site_B_iso_or_equiv
  _atom_site_type_symbol
  U1       1.0000 0.08011  0.80385  0.84339  Biso   1.000  U
  O1       1.0000 0.01260  0.73330  0.79763  Biso   1.000  O
  C1       1.0000 0.68870  0.55750  0.73630  Biso   1.000  C
  C2       1.0000 0.54830  0.62430  0.70270  Biso   1.000  C
  N1       1.0000 0.65240  0.61890  0.72620  Biso   1.000  N
  O2       1.0000 0.16380  0.85710  0.89200  Biso   1.000  O
  C3       1.0000 0.15790  0.47180  0.84330  Biso   1.000  C
  H1       1.0000 0.23650  0.46560  0.85790  Biso   1.000  H
  C4       1.0000 0.18870  0.79660  0.90520  Biso   1.000  C
  C5       1.0000 0.11720  0.53980  0.83590  Biso   1.000  C
  H2       1.0000 0.15290  0.57800  0.84660  Biso   1.000  H
  C6       1.0000 0.51800  0.80050  0.96380  Biso   1.000  C
  C7       1.0000 0.20400  0.76990  0.95880  Biso   1.000  C
  H3       1.0000 0.09860  0.75800  0.95740  Biso   1.000  H
  C8       1.0000 0.43700  0.80860  0.93570  Biso   1.000  C
  C9       1.0000 0.27670  0.79370  0.93430  Biso   1.000  C
  C10      1.0000 0.52750  0.49880  0.70020  Biso   1.000  C
  C11      1.0000 0.97150  0.61200  0.79920  Biso   1.000  C
  C12      1.0000 0.62830  0.49490  0.72420  Biso   1.000  C
  H4       1.0000 0.65680  0.45250  0.73250  Biso   1.000  H
  C13      1.0000 0.86830  0.61440  0.77490  Biso   1.000  C
  H5       1.0000 0.83960  0.65690  0.76680  Biso   1.000  H
  C14      1.0000 0.94920  0.48810  0.79620  Biso   1.000  C
  C15      1.0000 0.98780  0.41720  0.80620  Biso   1.000  C
  H6       1.0000 0.94730  0.37770  0.79710  Biso   1.000  H
  C16      1.0000 0.36830  0.57610  0.66440  Biso   1.000  C
  H7       1.0000 0.31840  0.53910  0.65500  Biso   1.000  H
  C17      1.0000 0.09440  0.41630  0.83150  Biso   1.000  C
  H8       1.0000 0.12010  0.37380  0.84000  Biso   1.000  H
  C18      1.0000 0.48120  0.56330  0.68810  Biso   1.000  C
  C19      1.0000 0.50640  0.68610  0.69240  Biso   1.000  C
  H9       1.0000 0.55140  0.72320  0.70270  Biso   1.000  H
  C20      1.0000 0.02330  0.67930  0.81310  Biso   1.000  C
  C21      1.0000 0.47370  0.43290  0.68690  Biso   1.000  C
  C22      1.0000 0.33320  0.64090  0.65550  Biso   1.000  C
  H10      1.0000 0.25800  0.64580  0.64020  Biso   1.000  H
  O3       1.0000 0.14410  0.74370  0.89160  Biso   1.000  O
  C23      1.0000 0.40320  0.70470  0.66790  Biso   1.000  C
  H11      1.0000 0.38370  0.74930  0.66090  Biso   1.000  H
  N2       1.0000 0.84130  0.49160  0.77220  Biso   1.000  N
  C24      1.0000 0.76800  0.83670  0.94210  Biso   1.000  C
  H12      1.0000 0.87510  0.84460  0.94380  Biso   1.000  H
  C25      1.0000 0.68400  0.84710  0.91430  Biso   1.000  C
  H13      1.0000 0.73750  0.86390  0.89770  Biso   1.000  H
  C26      1.0000 0.28800  0.76280  0.98700  Biso   1.000  C
  C27      1.0000 0.01860  0.54400  0.81090  Biso   1.000  C
  N3       1.0000 0.44010  0.77700  0.98900  Biso   1.000  N
  C28      1.0000 0.68000  0.81390  0.96660  Biso   1.000  C
  H14      1.0000 0.72970  0.80740  0.98530  Biso   1.000  H
  C29      1.0000 0.52500  0.83310  0.91100  Biso   1.000  C
  H15      1.0000 0.47510  0.84000  0.89240  Biso   1.000  H
  C30      1.0000 0.80530  0.55310  0.76210  Biso   1.000  C
  O4       1.0000 0.27750  0.83770  0.75030  Biso   1.000  O
  O5       1.0000 0.06720  0.67670  0.84027  Biso   1.000  O
  O6       1.0000 0.48240  0.37560  0.70159  Biso   1.000  O
  O7       1.0000 0.42940  0.42590  0.65890  Biso   1.000  O
  O8       1.0000 0.27970  0.76590  0.75090  Biso   1.000  O
  U2       1.0000 0.58011  0.30385  0.84339  Biso   1.000  U
  O9       1.0000 0.51260  0.23330  0.79763  Biso   1.000  O
  C31      1.0000 0.18870  0.05750  0.73630  Biso   1.000  C
  C32      1.0000 0.04830  0.12430  0.70270  Biso   1.000  C
  N4       1.0000 0.15240  0.11890  0.72620  Biso   1.000  N
  O10      1.0000 0.66380  0.35710  0.89200  Biso   1.000  O
  C33      1.0000 0.65790  0.97180  0.84330  Biso   1.000  C
  H16      1.0000 0.73650  0.96560  0.85790  Biso   1.000  H
  C34      1.0000 0.68870  0.29660  0.90520  Biso   1.000  C
  C35      1.0000 0.61720  0.03980  0.83590  Biso   1.000  C
  H17      1.0000 0.65290  0.07800  0.84660  Biso   1.000  H
  C36      1.0000 0.01800  0.30050  0.96380  Biso   1.000  C
  C37      1.0000 0.70400  0.26990  0.95880  Biso   1.000  C
  H18      1.0000 0.59860  0.25800  0.95740  Biso   1.000  H
  C38      1.0000 0.93700  0.30860  0.93570  Biso   1.000  C
  C39      1.0000 0.77670  0.29370  0.93430  Biso   1.000  C
  C40      1.0000 0.02750  0.99880  0.70020  Biso   1.000  C
  C41      1.0000 0.47150  0.11200  0.79920  Biso   1.000  C
  C42      1.0000 0.12830  0.99490  0.72420  Biso   1.000  C
  H19      1.0000 0.15680  0.95250  0.73250  Biso   1.000  H
  C43      1.0000 0.36830  0.11440  0.77490  Biso   1.000  C
  H20      1.0000 0.33960  0.15690  0.76680  Biso   1.000  H
  C44      1.0000 0.44920  0.98810  0.79620  Biso   1.000  C
  C45      1.0000 0.48780  0.91720  0.80620  Biso   1.000  C
  H21      1.0000 0.44730  0.87770  0.79710  Biso   1.000  H
  C46      1.0000 0.86830  0.07610  0.66440  Biso   1.000  C
  H22      1.0000 0.81840  0.03910  0.65500  Biso   1.000  H
  C47      1.0000 0.59440  0.91630  0.83150  Biso   1.000  C
  H23      1.0000 0.62010  0.87380  0.84000  Biso   1.000  H
  C48      1.0000 0.98120  0.06330  0.68810  Biso   1.000  C
  C49      1.0000 0.00640  0.18610  0.69240  Biso   1.000  C
  H24      1.0000 0.05140  0.22320  0.70270  Biso   1.000  H
  C50      1.0000 0.52330  0.17930  0.81310  Biso   1.000  C
  C51      1.0000 0.97370  0.93290  0.68690  Biso   1.000  C
  C52      1.0000 0.83320  0.14090  0.65550  Biso   1.000  C
  H25      1.0000 0.75800  0.14580  0.64020  Biso   1.000  H
  O11      1.0000 0.64410  0.24370  0.89160  Biso   1.000  O
  C53      1.0000 0.90320  0.20470  0.66790  Biso   1.000  C
  H26      1.0000 0.88370  0.24930  0.66090  Biso   1.000  H
  N5       1.0000 0.34130  0.99160  0.77220  Biso   1.000  N
  C54      1.0000 0.26800  0.33670  0.94210  Biso   1.000  C
  H27      1.0000 0.37510  0.34460  0.94380  Biso   1.000  H
  C55      1.0000 0.18400  0.34710  0.91430  Biso   1.000  C
  H28      1.0000 0.23750  0.36390  0.89770  Biso   1.000  H
  C56      1.0000 0.78800  0.26280  0.98700  Biso   1.000  C
  C57      1.0000 0.51860  0.04400  0.81090  Biso   1.000  C
  N6       1.0000 0.94010  0.27700  0.98900  Biso   1.000  N
  C58      1.0000 0.18000  0.31390  0.96660  Biso   1.000  C
  H29      1.0000 0.22970  0.30740  0.98530  Biso   1.000  H
  C59      1.0000 0.02500  0.33310  0.91100  Biso   1.000  C
  H30      1.0000 0.97510  0.34000  0.89240  Biso   1.000  H
  C60      1.0000 0.30530  0.05310  0.76210  Biso   1.000  C
  O12      1.0000 0.77750  0.33770  0.75030  Biso   1.000  O
  O13      1.0000 0.56720  0.17670  0.84027  Biso   1.000  O
  O14      1.0000 0.98240  0.87560  0.70159  Biso   1.000  O
  O15      1.0000 0.92940  0.92590  0.65890  Biso   1.000  O
  O16      1.0000 0.77970  0.26590  0.75090  Biso   1.000  O
  U3       1.0000 0.91989  0.80385  0.65661  Biso   1.000  U
  O17      1.0000 0.98740  0.73330  0.70237  Biso   1.000  O
  C61      1.0000 0.31130  0.55750  0.76370  Biso   1.000  C
  C62      1.0000 0.45170  0.62430  0.79730  Biso   1.000  C
  N7       1.0000 0.34760  0.61890  0.77380  Biso   1.000  N
  O18      1.0000 0.83620  0.85710  0.60800  Biso   1.000  O
  C63      1.0000 0.84210  0.47180  0.65670  Biso   1.000  C
  H31      1.0000 0.76350  0.46560  0.64210  Biso   1.000  H
  C64      1.0000 0.81130  0.79660  0.59480  Biso   1.000  C
  C65      1.0000 0.88280  0.53980  0.66410  Biso   1.000  C
  H32      1.0000 0.84710  0.57800  0.65340  Biso   1.000  H
  C66      1.0000 0.48200  0.80050  0.53620  Biso   1.000  C
  C67      1.0000 0.79600  0.76990  0.54120  Biso   1.000  C
  H33      1.0000 0.90140  0.75800  0.54260  Biso   1.000  H
  C68      1.0000 0.56300  0.80860  0.56430  Biso   1.000  C
  C69      1.0000 0.72330  0.79370  0.56570  Biso   1.000  C
  C70      1.0000 0.47250  0.49880  0.79980  Biso   1.000  C
  C71      1.0000 0.02850  0.61200  0.70080  Biso   1.000  C
  C72      1.0000 0.37170  0.49490  0.77580  Biso   1.000  C
  H34      1.0000 0.34320  0.45250  0.76750  Biso   1.000  H
  C73      1.0000 0.13170  0.61440  0.72510  Biso   1.000  C
  H35      1.0000 0.16040  0.65690  0.73320  Biso   1.000  H
  C74      1.0000 0.05080  0.48810  0.70380  Biso   1.000  C
  C75      1.0000 0.01220  0.41720  0.69380  Biso   1.000  C
  H36      1.0000 0.05270  0.37770  0.70290  Biso   1.000  H
  C76      1.0000 0.63170  0.57610  0.83560  Biso   1.000  C
  H37      1.0000 0.68160  0.53910  0.84500  Biso   1.000  H
  C77      1.0000 0.90560  0.41630  0.66850  Biso   1.000  C
  H38      1.0000 0.87990  0.37380  0.66000  Biso   1.000  H
  C78      1.0000 0.51880  0.56330  0.81190  Biso   1.000  C
  C79      1.0000 0.49360  0.68610  0.80760  Biso   1.000  C
  H39      1.0000 0.44860  0.72320  0.79730  Biso   1.000  H
  C80      1.0000 0.97670  0.67930  0.68690  Biso   1.000  C
  C81      1.0000 0.52630  0.43290  0.81310  Biso   1.000  C
  C82      1.0000 0.66680  0.64090  0.84450  Biso   1.000  C
  H40      1.0000 0.74200  0.64580  0.85980  Biso   1.000  H
  O19      1.0000 0.85590  0.74370  0.60840  Biso   1.000  O
  C83      1.0000 0.59680  0.70470  0.83210  Biso   1.000  C
  H41      1.0000 0.61630  0.74930  0.83910  Biso   1.000  H
  N8       1.0000 0.15870  0.49160  0.72780  Biso   1.000  N
  C84      1.0000 0.23200  0.83670  0.55790  Biso   1.000  C
  H42      1.0000 0.12490  0.84460  0.55620  Biso   1.000  H
  C85      1.0000 0.31600  0.84710  0.58570  Biso   1.000  C
  H43      1.0000 0.26250  0.86390  0.60230  Biso   1.000  H
  C86      1.0000 0.71200  0.76280  0.51300  Biso   1.000  C
  C87      1.0000 0.98140  0.54400  0.68910  Biso   1.000  C
  N9       1.0000 0.55990  0.77700  0.51100  Biso   1.000  N
  C88      1.0000 0.32000  0.81390  0.53340  Biso   1.000  C
  H44      1.0000 0.27030  0.80740  0.51470  Biso   1.000  H
  C89      1.0000 0.47500  0.83310  0.58900  Biso   1.000  C
  H45      1.0000 0.52490  0.84000  0.60760  Biso   1.000  H
  C90      1.0000 0.19470  0.55310  0.73790  Biso   1.000  C
  O20      1.0000 0.72250  0.83770  0.74970  Biso   1.000  O
  O21      1.0000 0.93280  0.67670  0.65973  Biso   1.000  O
  O22      1.0000 0.51760  0.37560  0.79841  Biso   1.000  O
  O23      1.0000 0.57060  0.42590  0.84110  Biso   1.000  O
  O24      1.0000 0.72030  0.76590  0.74910  Biso   1.000  O
  U4       1.0000 0.41989  0.30385  0.65661  Biso   1.000  U
  O25      1.0000 0.48740  0.23330  0.70237  Biso   1.000  O
  C91      1.0000 0.81130  0.05750  0.76370  Biso   1.000  C
  C92      1.0000 0.95170  0.12430  0.79730  Biso   1.000  C
  N10      1.0000 0.84760  0.11890  0.77380  Biso   1.000  N
  O26      1.0000 0.33620  0.35710  0.60800  Biso   1.000  O
  C93      1.0000 0.34210  0.97180  0.65670  Biso   1.000  C
  H46      1.0000 0.26350  0.96560  0.64210  Biso   1.000  H
  C94      1.0000 0.31130  0.29660  0.59480  Biso   1.000  C
  C95      1.0000 0.38280  0.03980  0.66410  Biso   1.000  C
  H47      1.0000 0.34710  0.07800  0.65340  Biso   1.000  H
  C96      1.0000 0.98200  0.30050  0.53620  Biso   1.000  C
  C97      1.0000 0.29600  0.26990  0.54120  Biso   1.000  C
  H48      1.0000 0.40140  0.25800  0.54260  Biso   1.000  H
  C98      1.0000 0.06300  0.30860  0.56430  Biso   1.000  C
  C99      1.0000 0.22330  0.29370  0.56570  Biso   1.000  C
  C100     1.0000 0.97250  0.99880  0.79980  Biso   1.000  C
  C101     1.0000 0.52850  0.11200  0.70080  Biso   1.000  C
  C102     1.0000 0.87170  0.99490  0.77580  Biso   1.000  C
  H49      1.0000 0.84320  0.95250  0.76750  Biso   1.000  H
  C103     1.0000 0.63170  0.11440  0.72510  Biso   1.000  C
  H50      1.0000 0.66040  0.15690  0.73320  Biso   1.000  H
  C104     1.0000 0.55080  0.98810  0.70380  Biso   1.000  C
  C105     1.0000 0.51220  0.91720  0.69380  Biso   1.000  C
  H51      1.0000 0.55270  0.87770  0.70290  Biso   1.000  H
  C106     1.0000 0.13170  0.07610  0.83560  Biso   1.000  C
  H52      1.0000 0.18160  0.03910  0.84500  Biso   1.000  H
  C107     1.0000 0.40560  0.91630  0.66850  Biso   1.000  C
  H53      1.0000 0.37990  0.87380  0.66000  Biso   1.000  H
  C108     1.0000 0.01880  0.06330  0.81190  Biso   1.000  C
  C109     1.0000 0.99360  0.18610  0.80760  Biso   1.000  C
  H54      1.0000 0.94860  0.22320  0.79730  Biso   1.000  H
  C110     1.0000 0.47670  0.17930  0.68690  Biso   1.000  C
  C111     1.0000 0.02630  0.93290  0.81310  Biso   1.000  C
  C112     1.0000 0.16680  0.14090  0.84450  Biso   1.000  C
  H55      1.0000 0.24200  0.14580  0.85980  Biso   1.000  H
  O27      1.0000 0.35590  0.24370  0.60840  Biso   1.000  O
  C113     1.0000 0.09680  0.20470  0.83210  Biso   1.000  C
  H56      1.0000 0.11630  0.24930  0.83910  Biso   1.000  H
  N11      1.0000 0.65870  0.99160  0.72780  Biso   1.000  N
  C114     1.0000 0.73200  0.33670  0.55790  Biso   1.000  C
  H57      1.0000 0.62490  0.34460  0.55620  Biso   1.000  H
  C115     1.0000 0.81600  0.34710  0.58570  Biso   1.000  C
  H58      1.0000 0.76250  0.36390  0.60230  Biso   1.000  H
  C116     1.0000 0.21200  0.26280  0.51300  Biso   1.000  C
  C117     1.0000 0.48140  0.04400  0.68910  Biso   1.000  C
  N12      1.0000 0.05990  0.27700  0.51100  Biso   1.000  N
  C118     1.0000 0.82000  0.31390  0.53340  Biso   1.000  C
  H59      1.0000 0.77030  0.30740  0.51470  Biso   1.000  H
  C119     1.0000 0.97500  0.33310  0.58900  Biso   1.000  C
  H60      1.0000 0.02490  0.34000  0.60760  Biso   1.000  H
  C120     1.0000 0.69470  0.05310  0.73790  Biso   1.000  C
  O28      1.0000 0.22250  0.33770  0.74970  Biso   1.000  O
  O29      1.0000 0.43280  0.17670  0.65973  Biso   1.000  O
  O30      1.0000 0.01760  0.87560  0.79841  Biso   1.000  O
  O31      1.0000 0.07060  0.92590  0.84110  Biso   1.000  O
  O32      1.0000 0.22030  0.26590  0.74910  Biso   1.000  O
  U5       1.0000 0.91989  0.19615  0.15661  Biso   1.000  U
  O33      1.0000 0.98740  0.26670  0.20237  Biso   1.000  O
  C121     1.0000 0.31130  0.44250  0.26370  Biso   1.000  C
  C122     1.0000 0.45170  0.37570  0.29730  Biso   1.000  C
  N13      1.0000 0.34760  0.38110  0.27380  Biso   1.000  N
  O34      1.0000 0.83620  0.14290  0.10800  Biso   1.000  O
  C123     1.0000 0.84210  0.52820  0.15670  Biso   1.000  C
  H61      1.0000 0.76350  0.53440  0.14210  Biso   1.000  H
  C124     1.0000 0.81130  0.20340  0.09480  Biso   1.000  C
  C125     1.0000 0.88280  0.46020  0.16410  Biso   1.000  C
  H62      1.0000 0.84710  0.42200  0.15340  Biso   1.000  H
  C126     1.0000 0.48200  0.19950  0.03620  Biso   1.000  C
  C127     1.0000 0.79600  0.23010  0.04120  Biso   1.000  C
  H63      1.0000 0.90140  0.24200  0.04260  Biso   1.000  H
  C128     1.0000 0.56300  0.19140  0.06430  Biso   1.000  C
  C129     1.0000 0.72330  0.20630  0.06570  Biso   1.000  C
  C130     1.0000 0.47250  0.50120  0.29980  Biso   1.000  C
  C131     1.0000 0.02850  0.38800  0.20080  Biso   1.000  C
  C132     1.0000 0.37170  0.50510  0.27580  Biso   1.000  C
  H64      1.0000 0.34320  0.54750  0.26750  Biso   1.000  H
  C133     1.0000 0.13170  0.38560  0.22510  Biso   1.000  C
  H65      1.0000 0.16040  0.34310  0.23320  Biso   1.000  H
  C134     1.0000 0.05080  0.51190  0.20380  Biso   1.000  C
  C135     1.0000 0.01220  0.58280  0.19380  Biso   1.000  C
  H66      1.0000 0.05270  0.62230  0.20290  Biso   1.000  H
  C136     1.0000 0.63170  0.42390  0.33560  Biso   1.000  C
  H67      1.0000 0.68160  0.46090  0.34500  Biso   1.000  H
  C137     1.0000 0.90560  0.58370  0.16850  Biso   1.000  C
  H68      1.0000 0.87990  0.62620  0.16000  Biso   1.000  H
  C138     1.0000 0.51880  0.43670  0.31190  Biso   1.000  C
  C139     1.0000 0.49360  0.31390  0.30760  Biso   1.000  C
  H69      1.0000 0.44860  0.27680  0.29730  Biso   1.000  H
  C140     1.0000 0.97670  0.32070  0.18690  Biso   1.000  C
  C141     1.0000 0.52630  0.56710  0.31310  Biso   1.000  C
  C142     1.0000 0.66680  0.35910  0.34450  Biso   1.000  C
  H70      1.0000 0.74200  0.35420  0.35980  Biso   1.000  H
  O35      1.0000 0.85590  0.25630  0.10840  Biso   1.000  O
  C143     1.0000 0.59680  0.29530  0.33210  Biso   1.000  C
  H71      1.0000 0.61630  0.25070  0.33910  Biso   1.000  H
  N14      1.0000 0.15870  0.50840  0.22780  Biso   1.000  N
  C144     1.0000 0.23200  0.16330  0.05790  Biso   1.000  C
  H72      1.0000 0.12490  0.15540  0.05620  Biso   1.000  H
  C145     1.0000 0.31600  0.15290  0.08570  Biso   1.000  C
  H73      1.0000 0.26250  0.13610  0.10230  Biso   1.000  H
  C146     1.0000 0.71200  0.23720  0.01300  Biso   1.000  C
  C147     1.0000 0.98140  0.45600  0.18910  Biso   1.000  C
  N15      1.0000 0.55990  0.22300  0.01100  Biso   1.000  N
  C148     1.0000 0.32000  0.18610  0.03340  Biso   1.000  C
  H74      1.0000 0.27030  0.19260  0.01470  Biso   1.000  H
  C149     1.0000 0.47500  0.16690  0.08900  Biso   1.000  C
  H75      1.0000 0.52490  0.16000  0.10760  Biso   1.000  H
  C150     1.0000 0.19470  0.44690  0.23790  Biso   1.000  C
  O36      1.0000 0.72250  0.16230  0.24970  Biso   1.000  O
  O37      1.0000 0.93280  0.32330  0.15973  Biso   1.000  O
  O38      1.0000 0.51760  0.62440  0.29841  Biso   1.000  O
  O39      1.0000 0.57060  0.57410  0.34110  Biso   1.000  O
  O40      1.0000 0.72030  0.23410  0.24910  Biso   1.000  O
  U6       1.0000 0.41989  0.69615  0.15661  Biso   1.000  U
  O41      1.0000 0.48740  0.76670  0.20237  Biso   1.000  O
  C151     1.0000 0.81130  0.94250  0.26370  Biso   1.000  C
  C152     1.0000 0.95170  0.87570  0.29730  Biso   1.000  C
  N16      1.0000 0.84760  0.88110  0.27380  Biso   1.000  N
  O42      1.0000 0.33620  0.64290  0.10800  Biso   1.000  O
  C153     1.0000 0.34210  0.02820  0.15670  Biso   1.000  C
  H76      1.0000 0.26350  0.03440  0.14210  Biso   1.000  H
  C154     1.0000 0.31130  0.70340  0.09480  Biso   1.000  C
  C155     1.0000 0.38280  0.96020  0.16410  Biso   1.000  C
  H77      1.0000 0.34710  0.92200  0.15340  Biso   1.000  H
  C156     1.0000 0.98200  0.69950  0.03620  Biso   1.000  C
  C157     1.0000 0.29600  0.73010  0.04120  Biso   1.000  C
  H78      1.0000 0.40140  0.74200  0.04260  Biso   1.000  H
  C158     1.0000 0.06300  0.69140  0.06430  Biso   1.000  C
  C159     1.0000 0.22330  0.70630  0.06570  Biso   1.000  C
  C160     1.0000 0.97250  0.00120  0.29980  Biso   1.000  C
  C161     1.0000 0.52850  0.88800  0.20080  Biso   1.000  C
  C162     1.0000 0.87170  0.00510  0.27580  Biso   1.000  C
  H79      1.0000 0.84320  0.04750  0.26750  Biso   1.000  H
  C163     1.0000 0.63170  0.88560  0.22510  Biso   1.000  C
  H80      1.0000 0.66040  0.84310  0.23320  Biso   1.000  H
  C164     1.0000 0.55080  0.01190  0.20380  Biso   1.000  C
  C165     1.0000 0.51220  0.08280  0.19380  Biso   1.000  C
  H81      1.0000 0.55270  0.12230  0.20290  Biso   1.000  H
  C166     1.0000 0.13170  0.92390  0.33560  Biso   1.000  C
  H82      1.0000 0.18160  0.96090  0.34500  Biso   1.000  H
  C167     1.0000 0.40560  0.08370  0.16850  Biso   1.000  C
  H83      1.0000 0.37990  0.12620  0.16000  Biso   1.000  H
  C168     1.0000 0.01880  0.93670  0.31190  Biso   1.000  C
  C169     1.0000 0.99360  0.81390  0.30760  Biso   1.000  C
  H84      1.0000 0.94860  0.77680  0.29730  Biso   1.000  H
  C170     1.0000 0.47670  0.82070  0.18690  Biso   1.000  C
  C171     1.0000 0.02630  0.06710  0.31310  Biso   1.000  C
  C172     1.0000 0.16680  0.85910  0.34450  Biso   1.000  C
  H85      1.0000 0.24200  0.85420  0.35980  Biso   1.000  H
  O43      1.0000 0.35590  0.75630  0.10840  Biso   1.000  O
  C173     1.0000 0.09680  0.79530  0.33210  Biso   1.000  C
  H86      1.0000 0.11630  0.75070  0.33910  Biso   1.000  H
  N17      1.0000 0.65870  0.00840  0.22780  Biso   1.000  N
  C174     1.0000 0.73200  0.66330  0.05790  Biso   1.000  C
  H87      1.0000 0.62490  0.65540  0.05620  Biso   1.000  H
  C175     1.0000 0.81600  0.65290  0.08570  Biso   1.000  C
  H88      1.0000 0.76250  0.63610  0.10230  Biso   1.000  H
  C176     1.0000 0.21200  0.73720  0.01300  Biso   1.000  C
  C177     1.0000 0.48140  0.95600  0.18910  Biso   1.000  C
  N18      1.0000 0.05990  0.72300  0.01100  Biso   1.000  N
  C178     1.0000 0.82000  0.68610  0.03340  Biso   1.000  C
  H89      1.0000 0.77030  0.69260  0.01470  Biso   1.000  H
  C179     1.0000 0.97500  0.66690  0.08900  Biso   1.000  C
  H90      1.0000 0.02490  0.66000  0.10760  Biso   1.000  H
  C180     1.0000 0.69470  0.94690  0.23790  Biso   1.000  C
  O44      1.0000 0.22250  0.66230  0.24970  Biso   1.000  O
  O45      1.0000 0.43280  0.82330  0.15973  Biso   1.000  O
  O46      1.0000 0.01760  0.12440  0.29841  Biso   1.000  O
  O47      1.0000 0.07060  0.07410  0.34110  Biso   1.000  O
  O48      1.0000 0.22030  0.73410  0.24910  Biso   1.000  O
  U7       1.0000 0.08011  0.19615  0.34339  Biso   1.000  U
  O49      1.0000 0.01260  0.26670  0.29763  Biso   1.000  O
  C181     1.0000 0.68870  0.44250  0.23630  Biso   1.000  C
  C182     1.0000 0.54830  0.37570  0.20270  Biso   1.000  C
  N19      1.0000 0.65240  0.38110  0.22620  Biso   1.000  N
  O50      1.0000 0.16380  0.14290  0.39200  Biso   1.000  O
  C183     1.0000 0.15790  0.52820  0.34330  Biso   1.000  C
  H91      1.0000 0.23650  0.53440  0.35790  Biso   1.000  H
  C184     1.0000 0.18870  0.20340  0.40520  Biso   1.000  C
  C185     1.0000 0.11720  0.46020  0.33590  Biso   1.000  C
  H92      1.0000 0.15290  0.42200  0.34660  Biso   1.000  H
  C186     1.0000 0.51800  0.19950  0.46380  Biso   1.000  C
  C187     1.0000 0.20400  0.23010  0.45880  Biso   1.000  C
  H93      1.0000 0.09860  0.24200  0.45740  Biso   1.000  H
  C188     1.0000 0.43700  0.19140  0.43570  Biso   1.000  C
  C189     1.0000 0.27670  0.20630  0.43430  Biso   1.000  C
  C190     1.0000 0.52750  0.50120  0.20020  Biso   1.000  C
  C191     1.0000 0.97150  0.38800  0.29920  Biso   1.000  C
  C192     1.0000 0.62830  0.50510  0.22420  Biso   1.000  C
  H94      1.0000 0.65680  0.54750  0.23250  Biso   1.000  H
  C193     1.0000 0.86830  0.38560  0.27490  Biso   1.000  C
  H95      1.0000 0.83960  0.34310  0.26680  Biso   1.000  H
  C194     1.0000 0.94920  0.51190  0.29620  Biso   1.000  C
  C195     1.0000 0.98780  0.58280  0.30620  Biso   1.000  C
  H96      1.0000 0.94730  0.62230  0.29710  Biso   1.000  H
  C196     1.0000 0.36830  0.42390  0.16440  Biso   1.000  C
  H97      1.0000 0.31840  0.46090  0.15500  Biso   1.000  H
  C197     1.0000 0.09440  0.58370  0.33150  Biso   1.000  C
  H98      1.0000 0.12010  0.62620  0.34000  Biso   1.000  H
  C198     1.0000 0.48120  0.43670  0.18810  Biso   1.000  C
  C199     1.0000 0.50640  0.31390  0.19240  Biso   1.000  C
  H99      1.0000 0.55140  0.27680  0.20270  Biso   1.000  H
  C200     1.0000 0.02330  0.32070  0.31310  Biso   1.000  C
  C201     1.0000 0.47370  0.56710  0.18690  Biso   1.000  C
  C202     1.0000 0.33320  0.35910  0.15550  Biso   1.000  C
  H100     1.0000 0.25800  0.35420  0.14020  Biso   1.000  H
  O51      1.0000 0.14410  0.25630  0.39160  Biso   1.000  O
  C203     1.0000 0.40320  0.29530  0.16790  Biso   1.000  C
  H101     1.0000 0.38370  0.25070  0.16090  Biso   1.000  H
  N20      1.0000 0.84130  0.50840  0.27220  Biso   1.000  N
  C204     1.0000 0.76800  0.16330  0.44210  Biso   1.000  C
  H102     1.0000 0.87510  0.15540  0.44380  Biso   1.000  H
  C205     1.0000 0.68400  0.15290  0.41430  Biso   1.000  C
  H103     1.0000 0.73750  0.13610  0.39770  Biso   1.000  H
  C206     1.0000 0.28800  0.23720  0.48700  Biso   1.000  C
  C207     1.0000 0.01860  0.45600  0.31090  Biso   1.000  C
  N21      1.0000 0.44010  0.22300  0.48900  Biso   1.000  N
  C208     1.0000 0.68000  0.18610  0.46660  Biso   1.000  C
  H104     1.0000 0.72970  0.19260  0.48530  Biso   1.000  H
  C209     1.0000 0.52500  0.16690  0.41100  Biso   1.000  C
  H105     1.0000 0.47510  0.16000  0.39240  Biso   1.000  H
  C210     1.0000 0.80530  0.44690  0.26210  Biso   1.000  C
  O52      1.0000 0.27750  0.16230  0.25030  Biso   1.000  O
  O53      1.0000 0.06720  0.32330  0.34027  Biso   1.000  O
  O54      1.0000 0.48240  0.62440  0.20159  Biso   1.000  O
  O55      1.0000 0.42940  0.57410  0.15890  Biso   1.000  O
  O56      1.0000 0.27970  0.23410  0.25090  Biso   1.000  O
  U8       1.0000 0.58011  0.69615  0.34339  Biso   1.000  U
  O57      1.0000 0.51260  0.76670  0.29763  Biso   1.000  O
  C211     1.0000 0.18870  0.94250  0.23630  Biso   1.000  C
  C212     1.0000 0.04830  0.87570  0.20270  Biso   1.000  C
  N22      1.0000 0.15240  0.88110  0.22620  Biso   1.000  N
  O58      1.0000 0.66380  0.64290  0.39200  Biso   1.000  O
  C213     1.0000 0.65790  0.02820  0.34330  Biso   1.000  C
  H106     1.0000 0.73650  0.03440  0.35790  Biso   1.000  H
  C214     1.0000 0.68870  0.70340  0.40520  Biso   1.000  C
  C215     1.0000 0.61720  0.96020  0.33590  Biso   1.000  C
  H107     1.0000 0.65290  0.92200  0.34660  Biso   1.000  H
  C216     1.0000 0.01800  0.69950  0.46380  Biso   1.000  C
  C217     1.0000 0.70400  0.73010  0.45880  Biso   1.000  C
  H108     1.0000 0.59860  0.74200  0.45740  Biso   1.000  H
  C218     1.0000 0.93700  0.69140  0.43570  Biso   1.000  C
  C219     1.0000 0.77670  0.70630  0.43430  Biso   1.000  C
  C220     1.0000 0.02750  0.00120  0.20020  Biso   1.000  C
  C221     1.0000 0.47150  0.88800  0.29920  Biso   1.000  C
  C222     1.0000 0.12830  0.00510  0.22420  Biso   1.000  C
  H109     1.0000 0.15680  0.04750  0.23250  Biso   1.000  H
  C223     1.0000 0.36830  0.88560  0.27490  Biso   1.000  C
  H110     1.0000 0.33960  0.84310  0.26680  Biso   1.000  H
  C224     1.0000 0.44920  0.01190  0.29620  Biso   1.000  C
  C225     1.0000 0.48780  0.08280  0.30620  Biso   1.000  C
  H111     1.0000 0.44730  0.12230  0.29710  Biso   1.000  H
  C226     1.0000 0.86830  0.92390  0.16440  Biso   1.000  C
  H112     1.0000 0.81840  0.96090  0.15500  Biso   1.000  H
  C227     1.0000 0.59440  0.08370  0.33150  Biso   1.000  C
  H113     1.0000 0.62010  0.12620  0.34000  Biso   1.000  H
  C228     1.0000 0.98120  0.93670  0.18810  Biso   1.000  C
  C229     1.0000 0.00640  0.81390  0.19240  Biso   1.000  C
  H114     1.0000 0.05140  0.77680  0.20270  Biso   1.000  H
  C230     1.0000 0.52330  0.82070  0.31310  Biso   1.000  C
  C231     1.0000 0.97370  0.06710  0.18690  Biso   1.000  C
  C232     1.0000 0.83320  0.85910  0.15550  Biso   1.000  C
  H115     1.0000 0.75800  0.85420  0.14020  Biso   1.000  H
  O59      1.0000 0.64410  0.75630  0.39160  Biso   1.000  O
  C233     1.0000 0.90320  0.79530  0.16790  Biso   1.000  C
  H116     1.0000 0.88370  0.75070  0.16090  Biso   1.000  H
  N23      1.0000 0.34130  0.00840  0.27220  Biso   1.000  N
  C234     1.0000 0.26800  0.66330  0.44210  Biso   1.000  C
  H117     1.0000 0.37510  0.65540  0.44380  Biso   1.000  H
  C235     1.0000 0.18400  0.65290  0.41430  Biso   1.000  C
  H118     1.0000 0.23750  0.63610  0.39770  Biso   1.000  H
  C236     1.0000 0.78800  0.73720  0.48700  Biso   1.000  C
  C237     1.0000 0.51860  0.95600  0.31090  Biso   1.000  C
  N24      1.0000 0.94010  0.72300  0.48900  Biso   1.000  N
  C238     1.0000 0.18000  0.68610  0.46660  Biso   1.000  C
  H119     1.0000 0.22970  0.69260  0.48530  Biso   1.000  H
  C239     1.0000 0.02500  0.66690  0.41100  Biso   1.000  C
  H120     1.0000 0.97510  0.66000  0.39240  Biso   1.000  H
  C240     1.0000 0.30530  0.94690  0.26210  Biso   1.000  C
  O60      1.0000 0.77750  0.66230  0.25030  Biso   1.000  O
  O61      1.0000 0.56720  0.82330  0.34027  Biso   1.000  O
  O62      1.0000 0.98240  0.12440  0.20159  Biso   1.000  O
  O63      1.0000 0.92940  0.07410  0.15890  Biso   1.000  O
  O64      1.0000 0.77970  0.73410  0.25090  Biso   1.000  O
  Na1      1.0000 0.00000  0.80430  0.75000  Biso   1.000  Na
  Na2      1.0000 0.50000  0.30430  0.75000  Biso   1.000  Na
  Na3      1.0000 0.00000  0.19570  0.25000  Biso   1.000  Na
  Na4      1.0000 0.50000  0.69570  0.25000  Biso   1.000  Na
