data_image0
_cell_length_a       14.561
_cell_length_b       18.078
_cell_length_c       12.845
_cell_angle_alpha    90
_cell_angle_beta     116.602
_cell_angle_gamma    90

_symmetry_space_group_name_H-M    "P 1"
_symmetry_int_tables_number       1

loop_
  _symmetry_equiv_pos_as_xyz
  'x, y, z'

loop_
  _atom_site_label
  _atom_site_occupancy
  _atom_site_fract_x
  _atom_site_fract_y
  _atom_site_fract_z
  _atom_site_thermal_displace_type
  _atom_site_B_iso_or_equiv
  _atom_site_type_symbol
  Cd1      1.0000 0.19277  0.47865  0.05232  Biso   1.000  Cd
  N1       1.0000 0.10990  0.36604  0.03000  Biso   1.000  N
  N2       1.0000 0.08220  0.35572  0.11590  Biso   1.000  N
  N3       1.0000 0.06020  0.28548  0.11690  Biso   1.000  N
  N4       1.0000 0.07190  0.24861  0.03260  Biso   1.000  N
  C1       1.0000 0.10260  0.29947  0.98050  Biso   1.000  C
  C2       1.0000 0.12520  0.28556  0.88110  Biso   1.000  C
  C3       1.0000 0.13270  0.34360  0.81540  Biso   1.000  C
  H1       1.0000 0.12090  0.39170  0.83220  Biso   1.000  H
  C4       1.0000 0.15770  0.33055  0.72400  Biso   1.000  C
  C5       1.0000 0.17160  0.25858  0.69660  Biso   1.000  C
  H2       1.0000 0.18760  0.24970  0.63530  Biso   1.000  H
  C6       1.0000 0.16150  0.19962  0.76020  Biso   1.000  C
  C7       1.0000 0.13890  0.21324  0.85260  Biso   1.000  C
  H3       1.0000 0.13290  0.17390  0.89580  Biso   1.000  H
  C8       1.0000 0.16810  0.39508  0.65660  Biso   1.000  C
  C9       1.0000 0.17890  0.12139  0.73180  Biso   1.000  C
  O1       1.0000 0.13597  0.45747  0.66740  Biso   1.000  O
  O2       1.0000 0.21194  0.38581  0.59195  Biso   1.000  O
  O3       1.0000 0.20140  0.11211  0.64980  Biso   1.000  O
  O4       1.0000 0.17023  0.06998  0.79400  Biso   1.000  O
  Cd2      1.0000 0.69277  0.97865  0.05232  Biso   1.000  Cd
  N5       1.0000 0.60990  0.86604  0.03000  Biso   1.000  N
  N6       1.0000 0.58220  0.85572  0.11590  Biso   1.000  N
  N7       1.0000 0.56020  0.78548  0.11690  Biso   1.000  N
  N8       1.0000 0.57190  0.74861  0.03260  Biso   1.000  N
  C10      1.0000 0.60260  0.79947  0.98050  Biso   1.000  C
  C11      1.0000 0.62520  0.78556  0.88110  Biso   1.000  C
  C12      1.0000 0.63270  0.84360  0.81540  Biso   1.000  C
  H4       1.0000 0.62090  0.89170  0.83220  Biso   1.000  H
  C13      1.0000 0.65770  0.83055  0.72400  Biso   1.000  C
  C14      1.0000 0.67160  0.75858  0.69660  Biso   1.000  C
  H5       1.0000 0.68760  0.74970  0.63530  Biso   1.000  H
  C15      1.0000 0.66150  0.69962  0.76020  Biso   1.000  C
  C16      1.0000 0.63890  0.71324  0.85260  Biso   1.000  C
  H6       1.0000 0.63290  0.67390  0.89580  Biso   1.000  H
  C17      1.0000 0.66810  0.89508  0.65660  Biso   1.000  C
  C18      1.0000 0.67890  0.62139  0.73180  Biso   1.000  C
  O5       1.0000 0.63597  0.95747  0.66740  Biso   1.000  O
  O6       1.0000 0.71194  0.88581  0.59195  Biso   1.000  O
  O7       1.0000 0.70140  0.61211  0.64980  Biso   1.000  O
  O8       1.0000 0.67023  0.56998  0.79400  Biso   1.000  O
  Cd3      1.0000 0.80723  0.47865  0.44768  Biso   1.000  Cd
  N9       1.0000 0.89010  0.36604  0.47000  Biso   1.000  N
  N10      1.0000 0.91780  0.35572  0.38410  Biso   1.000  N
  N11      1.0000 0.93980  0.28548  0.38310  Biso   1.000  N
  N12      1.0000 0.92810  0.24861  0.46740  Biso   1.000  N
  C19      1.0000 0.89740  0.29947  0.51950  Biso   1.000  C
  C20      1.0000 0.87480  0.28556  0.61890  Biso   1.000  C
  C21      1.0000 0.86730  0.34360  0.68460  Biso   1.000  C
  H7       1.0000 0.87910  0.39170  0.66780  Biso   1.000  H
  C22      1.0000 0.84230  0.33055  0.77600  Biso   1.000  C
  C23      1.0000 0.82840  0.25858  0.80340  Biso   1.000  C
  H8       1.0000 0.81240  0.24970  0.86470  Biso   1.000  H
  C24      1.0000 0.83850  0.19962  0.73980  Biso   1.000  C
  C25      1.0000 0.86110  0.21324  0.64740  Biso   1.000  C
  H9       1.0000 0.86710  0.17390  0.60420  Biso   1.000  H
  C26      1.0000 0.83190  0.39508  0.84340  Biso   1.000  C
  C27      1.0000 0.82110  0.12139  0.76820  Biso   1.000  C
  O9       1.0000 0.86403  0.45747  0.83260  Biso   1.000  O
  O10      1.0000 0.78806  0.38581  0.90805  Biso   1.000  O
  O11      1.0000 0.79860  0.11211  0.85020  Biso   1.000  O
  O12      1.0000 0.82977  0.06998  0.70600  Biso   1.000  O
  Cd4      1.0000 0.30723  0.97865  0.44768  Biso   1.000  Cd
  N13      1.0000 0.39010  0.86604  0.47000  Biso   1.000  N
  N14      1.0000 0.41780  0.85572  0.38410  Biso   1.000  N
  N15      1.0000 0.43980  0.78548  0.38310  Biso   1.000  N
  N16      1.0000 0.42810  0.74861  0.46740  Biso   1.000  N
  C28      1.0000 0.39740  0.79947  0.51950  Biso   1.000  C
  C29      1.0000 0.37480  0.78556  0.61890  Biso   1.000  C
  C30      1.0000 0.36730  0.84360  0.68460  Biso   1.000  C
  H10      1.0000 0.37910  0.89170  0.66780  Biso   1.000  H
  C31      1.0000 0.34230  0.83055  0.77600  Biso   1.000  C
  C32      1.0000 0.32840  0.75858  0.80340  Biso   1.000  C
  H11      1.0000 0.31240  0.74970  0.86470  Biso   1.000  H
  C33      1.0000 0.33850  0.69962  0.73980  Biso   1.000  C
  C34      1.0000 0.36110  0.71324  0.64740  Biso   1.000  C
  H12      1.0000 0.36710  0.67390  0.60420  Biso   1.000  H
  C35      1.0000 0.33190  0.89508  0.84340  Biso   1.000  C
  C36      1.0000 0.32110  0.62139  0.76820  Biso   1.000  C
  O13      1.0000 0.36403  0.95747  0.83260  Biso   1.000  O
  O14      1.0000 0.28806  0.88581  0.90805  Biso   1.000  O
  O15      1.0000 0.29860  0.61211  0.85020  Biso   1.000  O
  O16      1.0000 0.32977  0.56998  0.70600  Biso   1.000  O
  Cd5      1.0000 0.80723  0.52135  0.94768  Biso   1.000  Cd
  N17      1.0000 0.89010  0.63396  0.97000  Biso   1.000  N
  N18      1.0000 0.91780  0.64428  0.88410  Biso   1.000  N
  N19      1.0000 0.93980  0.71452  0.88310  Biso   1.000  N
  N20      1.0000 0.92810  0.75139  0.96740  Biso   1.000  N
  C37      1.0000 0.89740  0.70053  0.01950  Biso   1.000  C
  C38      1.0000 0.87480  0.71444  0.11890  Biso   1.000  C
  C39      1.0000 0.86730  0.65640  0.18460  Biso   1.000  C
  H13      1.0000 0.87910  0.60830  0.16780  Biso   1.000  H
  C40      1.0000 0.84230  0.66945  0.27600  Biso   1.000  C
  C41      1.0000 0.82840  0.74142  0.30340  Biso   1.000  C
  H14      1.0000 0.81240  0.75030  0.36470  Biso   1.000  H
  C42      1.0000 0.83850  0.80038  0.23980  Biso   1.000  C
  C43      1.0000 0.86110  0.78676  0.14740  Biso   1.000  C
  H15      1.0000 0.86710  0.82610  0.10420  Biso   1.000  H
  C44      1.0000 0.83190  0.60492  0.34340  Biso   1.000  C
  C45      1.0000 0.82110  0.87861  0.26820  Biso   1.000  C
  O17      1.0000 0.86403  0.54253  0.33260  Biso   1.000  O
  O18      1.0000 0.78806  0.61419  0.40805  Biso   1.000  O
  O19      1.0000 0.79860  0.88789  0.35020  Biso   1.000  O
  O20      1.0000 0.82977  0.93002  0.20600  Biso   1.000  O
  Cd6      1.0000 0.30723  0.02135  0.94768  Biso   1.000  Cd
  N21      1.0000 0.39010  0.13396  0.97000  Biso   1.000  N
  N22      1.0000 0.41780  0.14428  0.88410  Biso   1.000  N
  N23      1.0000 0.43980  0.21452  0.88310  Biso   1.000  N
  N24      1.0000 0.42810  0.25139  0.96740  Biso   1.000  N
  C46      1.0000 0.39740  0.20053  0.01950  Biso   1.000  C
  C47      1.0000 0.37480  0.21444  0.11890  Biso   1.000  C
  C48      1.0000 0.36730  0.15640  0.18460  Biso   1.000  C
  H16      1.0000 0.37910  0.10830  0.16780  Biso   1.000  H
  C49      1.0000 0.34230  0.16945  0.27600  Biso   1.000  C
  C50      1.0000 0.32840  0.24142  0.30340  Biso   1.000  C
  H17      1.0000 0.31240  0.25030  0.36470  Biso   1.000  H
  C51      1.0000 0.33850  0.30038  0.23980  Biso   1.000  C
  C52      1.0000 0.36110  0.28676  0.14740  Biso   1.000  C
  H18      1.0000 0.36710  0.32610  0.10420  Biso   1.000  H
  C53      1.0000 0.33190  0.10492  0.34340  Biso   1.000  C
  C54      1.0000 0.32110  0.37861  0.26820  Biso   1.000  C
  O21      1.0000 0.36403  0.04253  0.33260  Biso   1.000  O
  O22      1.0000 0.28806  0.11419  0.40805  Biso   1.000  O
  O23      1.0000 0.29860  0.38789  0.35020  Biso   1.000  O
  O24      1.0000 0.32977  0.43002  0.20600  Biso   1.000  O
  Cd7      1.0000 0.19277  0.52135  0.55232  Biso   1.000  Cd
  N25      1.0000 0.10990  0.63396  0.53000  Biso   1.000  N
  N26      1.0000 0.08220  0.64428  0.61590  Biso   1.000  N
  N27      1.0000 0.06020  0.71452  0.61690  Biso   1.000  N
  N28      1.0000 0.07190  0.75139  0.53260  Biso   1.000  N
  C55      1.0000 0.10260  0.70053  0.48050  Biso   1.000  C
  C56      1.0000 0.12520  0.71444  0.38110  Biso   1.000  C
  C57      1.0000 0.13270  0.65640  0.31540  Biso   1.000  C
  H19      1.0000 0.12090  0.60830  0.33220  Biso   1.000  H
  C58      1.0000 0.15770  0.66945  0.22400  Biso   1.000  C
  C59      1.0000 0.17160  0.74142  0.19660  Biso   1.000  C
  H20      1.0000 0.18760  0.75030  0.13530  Biso   1.000  H
  C60      1.0000 0.16150  0.80038  0.26020  Biso   1.000  C
  C61      1.0000 0.13890  0.78676  0.35260  Biso   1.000  C
  H21      1.0000 0.13290  0.82610  0.39580  Biso   1.000  H
  C62      1.0000 0.16810  0.60492  0.15660  Biso   1.000  C
  C63      1.0000 0.17890  0.87861  0.23180  Biso   1.000  C
  O25      1.0000 0.13597  0.54253  0.16740  Biso   1.000  O
  O26      1.0000 0.21194  0.61419  0.09195  Biso   1.000  O
  O27      1.0000 0.20140  0.88789  0.14980  Biso   1.000  O
  O28      1.0000 0.17023  0.93002  0.29400  Biso   1.000  O
  Cd8      1.0000 0.69277  0.02135  0.55232  Biso   1.000  Cd
  N29      1.0000 0.60990  0.13396  0.53000  Biso   1.000  N
  N30      1.0000 0.58220  0.14428  0.61590  Biso   1.000  N
  N31      1.0000 0.56020  0.21452  0.61690  Biso   1.000  N
  N32      1.0000 0.57190  0.25139  0.53260  Biso   1.000  N
  C64      1.0000 0.60260  0.20053  0.48050  Biso   1.000  C
  C65      1.0000 0.62520  0.21444  0.38110  Biso   1.000  C
  C66      1.0000 0.63270  0.15640  0.31540  Biso   1.000  C
  H22      1.0000 0.62090  0.10830  0.33220  Biso   1.000  H
  C67      1.0000 0.65770  0.16945  0.22400  Biso   1.000  C
  C68      1.0000 0.67160  0.24142  0.19660  Biso   1.000  C
  H23      1.0000 0.68760  0.25030  0.13530  Biso   1.000  H
  C69      1.0000 0.66150  0.30038  0.26020  Biso   1.000  C
  C70      1.0000 0.63890  0.28676  0.35260  Biso   1.000  C
  H24      1.0000 0.63290  0.32610  0.39580  Biso   1.000  H
  C71      1.0000 0.66810  0.10492  0.15660  Biso   1.000  C
  C72      1.0000 0.67890  0.37861  0.23180  Biso   1.000  C
  O29      1.0000 0.63597  0.04253  0.16740  Biso   1.000  O
  O30      1.0000 0.71194  0.11419  0.09195  Biso   1.000  O
  O31      1.0000 0.70140  0.38789  0.14980  Biso   1.000  O
  O32      1.0000 0.67023  0.43002  0.29400  Biso   1.000  O
  Cd9      1.0000 0.00000  0.25333  0.25000  Biso   1.000  Cd
  Cd10     1.0000 0.50000  0.75333  0.25000  Biso   1.000  Cd
  Cd11     1.0000 0.00000  0.74667  0.75000  Biso   1.000  Cd
  Cd12     1.0000 0.50000  0.24667  0.75000  Biso   1.000  Cd
