data_image0
_cell_length_a       21.007
_cell_length_b       21.099
_cell_length_c       21.24
_cell_angle_alpha    63.477
_cell_angle_beta     63.691
_cell_angle_gamma    84.66

_symmetry_space_group_name_H-M    "P 1"
_symmetry_int_tables_number       1

loop_
  _symmetry_equiv_pos_as_xyz
  'x, y, z'

loop_
  _atom_site_label
  _atom_site_occupancy
  _atom_site_fract_x
  _atom_site_fract_y
  _atom_site_fract_z
  _atom_site_thermal_displace_type
  _atom_site_B_iso_or_equiv
  _atom_site_type_symbol
  Zn1      1.0000 0.03820  0.43734  0.33950  Biso   1.000  Zn
  O1       1.0000 0.09951  0.47420  0.21720  Biso   1.000  O
  O2       1.0000 0.09721  0.29558  0.44280  Biso   1.000  O
  O3       1.0000 0.93414  0.42810  0.35630  Biso   1.000  O
  O4       1.0000 0.06935  0.35770  0.28790  Biso   1.000  O
  O5       1.0000 0.94781  0.38620  0.46400  Biso   1.000  O
  O6       1.0000 0.10961  0.41580  0.38270  Biso   1.000  O
  N1       1.0000 0.02230  0.77590  0.35880  Biso   1.000  N
  N2       1.0000 0.04930  0.01810  0.35940  Biso   1.000  N
  C1       1.0000 0.01090  0.67080  0.33350  Biso   1.000  C
  C2       1.0000 0.22140  0.36410  0.56150  Biso   1.000  C
  N3       1.0000 0.96390  0.84770  0.29650  Biso   1.000  N
  C3       1.0000 0.99760  0.74290  0.32940  Biso   1.000  C
  N4       1.0000 0.07010  0.75510  0.39180  Biso   1.000  N
  H1       1.0000 0.08780  0.78490  0.39900  Biso   1.000  H
  H2       1.0000 0.08170  0.71260  0.40470  Biso   1.000  H
  N5       1.0000 0.37560  0.36980  0.72250  Biso   1.000  N
  C4       1.0000 0.14970  0.35910  0.47990  Biso   1.000  C
  C5       1.0000 0.01560  0.90050  0.34800  Biso   1.000  C
  C6       1.0000 0.68140  0.38360  0.56250  Biso   1.000  C
  C7       1.0000 0.20320  0.42650  0.51530  Biso   1.000  C
  H3       1.0000 0.21420  0.46980  0.51240  Biso   1.000  H
  N6       1.0000 0.03160  0.53820  0.33490  Biso   1.000  N
  C8       1.0000 0.26210  0.36550  0.60250  Biso   1.000  C
  C9       1.0000 0.10150  0.41220  0.22310  Biso   1.000  C
  C10      1.0000 0.99980  0.84040  0.33600  Biso   1.000  C
  C11      1.0000 0.20280  0.30040  0.56580  Biso   1.000  C
  H4       1.0000 0.21550  0.25850  0.59610  Biso   1.000  H
  N7       1.0000 0.96440  0.78430  0.29200  Biso   1.000  N
  C12      1.0000 0.90830  0.40310  0.42970  Biso   1.000  C
  C13      1.0000 0.02570  0.61630  0.39000  Biso   1.000  C
  H5       1.0000 0.02990  0.62310  0.42830  Biso   1.000  H
  C14      1.0000 0.22330  0.38770  0.01110  Biso   1.000  C
  C15      1.0000 0.03410  0.55060  0.38850  Biso   1.000  C
  H6       1.0000 0.04190  0.51340  0.42830  Biso   1.000  H
  C16      1.0000 0.60100  0.37860  0.60760  Biso   1.000  C
  C17      1.0000 0.33810  0.37040  0.68090  Biso   1.000  C
  C18      1.0000 0.04830  0.95330  0.40780  Biso   1.000  C
  H7       1.0000 0.05900  0.94660  0.44820  Biso   1.000  H
  C19      1.0000 0.56280  0.33390  0.68420  Biso   1.000  C
  H8       1.0000 0.58670  0.30400  0.71170  Biso   1.000  H
  C20      1.0000 0.71250  0.40350  0.48120  Biso   1.000  C
  H9       1.0000 0.68320  0.41300  0.45650  Biso   1.000  H
  C21      1.0000 0.16770  0.42440  0.47260  Biso   1.000  C
  H10      1.0000 0.15680  0.46620  0.44020  Biso   1.000  H
  C22      1.0000 0.11600  0.35720  0.43120  Biso   1.000  C
  C23      1.0000 0.48990  0.42180  0.60640  Biso   1.000  C
  H11      1.0000 0.46550  0.45190  0.57950  Biso   1.000  H
  C24      1.0000 0.26490  0.37920  0.93930  Biso   1.000  C
  C25      1.0000 0.34080  0.37160  0.79620  Biso   1.000  C
  C26      1.0000 0.79770  0.37120  0.55790  Biso   1.000  C
  H12      1.0000 0.82600  0.35860  0.58410  Biso   1.000  H
  C27      1.0000 0.72330  0.36720  0.59990  Biso   1.000  C
  H13      1.0000 0.70250  0.35320  0.65370  Biso   1.000  H
  C28      1.0000 0.01720  0.59030  0.28100  Biso   1.000  C
  H14      1.0000 0.01430  0.58170  0.24300  Biso   1.000  H
  C29      1.0000 0.78590  0.40930  0.43750  Biso   1.000  C
  H15      1.0000 0.80640  0.42270  0.38390  Biso   1.000  H
  C30      1.0000 0.01320  0.96950  0.29510  Biso   1.000  C
  H16      1.0000 0.00000  0.97690  0.25610  Biso   1.000  H
  C31      1.0000 0.35670  0.32770  0.64220  Biso   1.000  C
  H17      1.0000 0.39420  0.30050  0.64210  Biso   1.000  H
  C32      1.0000 0.37100  0.40850  0.81800  Biso   1.000  C
  H18      1.0000 0.41710  0.43270  0.78360  Biso   1.000  H
  C33      1.0000 0.23020  0.45050  0.01290  Biso   1.000  C
  H19      1.0000 0.26390  0.48750  0.96750  Biso   1.000  H
  C34      1.0000 0.14380  0.40400  0.14870  Biso   1.000  C
  C35      1.0000 0.28410  0.41150  0.67840  Biso   1.000  C
  H20      1.0000 0.27270  0.44070  0.70320  Biso   1.000  H
  C36      1.0000 0.45360  0.37610  0.68320  Biso   1.000  C
  C37      1.0000 0.48940  0.33020  0.72420  Biso   1.000  C
  H21      1.0000 0.46440  0.29790  0.77720  Biso   1.000  H
  C38      1.0000 0.17570  0.32990  0.08060  Biso   1.000  C
  H22      1.0000 0.17040  0.28620  0.08140  Biso   1.000  H
  C39      1.0000 0.03270  0.89300  0.40460  Biso   1.000  C
  H23      1.0000 0.03400  0.84790  0.44110  Biso   1.000  H
  C40      1.0000 0.82880  0.39400  0.47750  Biso   1.000  C
  C41      1.0000 0.16650  0.29640  0.52740  Biso   1.000  C
  H24      1.0000 0.15350  0.25250  0.53300  Biso   1.000  H
  C42      1.0000 0.23410  0.33990  0.91920  Biso   1.000  C
  H25      1.0000 0.18800  0.31570  0.95360  Biso   1.000  H
  C43      1.0000 0.31780  0.32630  0.60330  Biso   1.000  C
  H26      1.0000 0.33020  0.29800  0.57740  Biso   1.000  H
  C44      1.0000 0.33580  0.41070  0.88820  Biso   1.000  C
  H27      1.0000 0.35920  0.43360  0.90220  Biso   1.000  H
  C45      1.0000 0.00640  0.65680  0.27800  Biso   1.000  C
  H28      1.0000 0.99610  0.69200  0.23890  Biso   1.000  H
  C46      1.0000 0.13580  0.33890  0.14940  Biso   1.000  C
  H29      1.0000 0.10400  0.30090  0.19550  Biso   1.000  H
  C47      1.0000 0.56320  0.42440  0.56680  Biso   1.000  C
  H30      1.0000 0.58800  0.45610  0.51360  Biso   1.000  H
  C48      1.0000 0.24620  0.41010  0.63950  Biso   1.000  C
  H31      1.0000 0.21000  0.43890  0.63780  Biso   1.000  H
  C49      1.0000 0.27210  0.33660  0.84780  Biso   1.000  C
  H32      1.0000 0.25080  0.31060  0.83490  Biso   1.000  H
  C50      1.0000 0.19060  0.46290  0.07780  Biso   1.000  C
  H33      1.0000 0.19450  0.50770  0.07500  Biso   1.000  H
  C51      1.0000 0.03080  0.02570  0.30300  Biso   1.000  C
  H34      1.0000 0.03010  0.07170  0.26750  Biso   1.000  H
  Zn2      1.0000 0.10117  0.27385  0.35989  Biso   1.000  Zn
  Zn3      1.0000 0.08608  0.10995  0.35064  Biso   1.000  Zn
  O7       1.0000 0.99876  0.23030  0.41430  Biso   1.000  O
  O8       1.0000 0.13731  0.17730  0.37560  Biso   1.000  O
  O9       1.0000 0.10791  0.06100  0.44870  Biso   1.000  O
  O10      1.0000 0.13710  0.15880  0.23260  Biso   1.000  O
  O11      1.0000 0.99368  0.14840  0.37560  Biso   1.000  O
  C52      1.0000 0.13820  0.11780  0.43270  Biso   1.000  C
  C53      1.0000 0.73560  0.15970  0.53110  Biso   1.000  C
  C54      1.0000 0.17740  0.11950  0.47590  Biso   1.000  C
  N8       1.0000 0.42890  0.12140  0.69630  Biso   1.000  N
  C55      1.0000 0.88590  0.17610  0.45360  Biso   1.000  C
  C56      1.0000 0.26610  0.17700  0.48080  Biso   1.000  C
  H35      1.0000 0.29920  0.21650  0.45810  Biso   1.000  H
  C57      1.0000 0.96450  0.18590  0.41150  Biso   1.000  C
  C58      1.0000 0.30130  0.13090  0.99220  Biso   1.000  C
  C59      1.0000 0.77130  0.11050  0.50690  Biso   1.000  C
  H36      1.0000 0.74530  0.07140  0.51590  Biso   1.000  H
  C60      1.0000 0.77710  0.21840  0.51560  Biso   1.000  C
  H37      1.0000 0.75440  0.25290  0.53060  Biso   1.000  H
  C61      1.0000 0.30660  0.15880  0.86240  Biso   1.000  C
  H38      1.0000 0.26590  0.18150  0.87450  Biso   1.000  H
  C62      1.0000 0.30200  0.11940  0.58990  Biso   1.000  C
  C63      1.0000 0.25770  0.12100  0.55030  Biso   1.000  C
  C64      1.0000 0.84560  0.11850  0.46910  Biso   1.000  C
  H39      1.0000 0.86860  0.08420  0.45390  Biso   1.000  H
  C65      1.0000 0.65590  0.15220  0.57160  Biso   1.000  C
  C66      1.0000 0.42720  0.09160  0.82380  Biso   1.000  C
  H40      1.0000 0.46670  0.06710  0.81250  Biso   1.000  H
  C67      1.0000 0.54760  0.17920  0.65420  Biso   1.000  C
  H41      1.0000 0.52540  0.20400  0.68340  Biso   1.000  H
  C68      1.0000 0.54000  0.09790  0.60750  Biso   1.000  C
  H42      1.0000 0.51360  0.06800  0.60360  Biso   1.000  H
  C69      1.0000 0.50630  0.13230  0.65290  Biso   1.000  C
  C70      1.0000 0.33580  0.12880  0.91580  Biso   1.000  C
  C71      1.0000 0.19790  0.14270  0.09380  Biso   1.000  C
  H43      1.0000 0.14970  0.14900  0.11300  Biso   1.000  H
  C72      1.0000 0.20470  0.06110  0.58740  Biso   1.000  C
  H44      1.0000 0.19590  0.02330  0.63630  Biso   1.000  H
  C73      1.0000 0.23390  0.13410  0.13900  Biso   1.000  C
  C74      1.0000 0.61300  0.10850  0.56820  Biso   1.000  C
  H45      1.0000 0.63540  0.08520  0.53730  Biso   1.000  H
  C75      1.0000 0.38700  0.12080  0.66040  Biso   1.000  C
  C76      1.0000 0.22790  0.17680  0.44380  Biso   1.000  C
  H46      1.0000 0.23560  0.21580  0.39610  Biso   1.000  H
  C77      1.0000 0.23100  0.14190  0.02440  Biso   1.000  C
  H47      1.0000 0.20520  0.14900  0.99620  Biso   1.000  H
  C78      1.0000 0.36870  0.15900  0.54800  Biso   1.000  C
  H48      1.0000 0.38650  0.18600  0.49370  Biso   1.000  H
  C79      1.0000 0.39580  0.09760  0.89210  Biso   1.000  C
  H49      1.0000 0.41720  0.07870  0.92560  Biso   1.000  H
  C80      1.0000 0.33780  0.15490  0.79220  Biso   1.000  C
  H50      1.0000 0.31720  0.17410  0.75780  Biso   1.000  H
  C81      1.0000 0.16650  0.06160  0.54740  Biso   1.000  C
  H51      1.0000 0.13320  0.02250  0.56910  Biso   1.000  H
  C82      1.0000 0.39790  0.12330  0.77230  Biso   1.000  C
  O12      1.0000 0.22060  0.10370  0.26540  Biso   1.000  O
  C83      1.0000 0.40970  0.16070  0.58220  Biso   1.000  C
  H52      1.0000 0.45370  0.18950  0.55140  Biso   1.000  H
  C84      1.0000 0.30410  0.12290  0.10720  Biso   1.000  C
  H53      1.0000 0.33020  0.11590  0.13500  Biso   1.000  H
  C85      1.0000 0.19740  0.13300  0.21670  Biso   1.000  C
  C86      1.0000 0.33700  0.12180  0.03600  Biso   1.000  C
  H54      1.0000 0.38490  0.11460  0.01650  Biso   1.000  H
  C87      1.0000 0.85030  0.22540  0.47880  Biso   1.000  C
  H55      1.0000 0.87660  0.26390  0.47050  Biso   1.000  H
  C88      1.0000 0.32100  0.07680  0.70810  Biso   1.000  C
  H56      1.0000 0.30590  0.04710  0.76160  Biso   1.000  H
  C89      1.0000 0.27850  0.08010  0.67010  Biso   1.000  C
  H57      1.0000 0.23280  0.05460  0.70080  Biso   1.000  H
  C90      1.0000 0.61870  0.18860  0.61390  Biso   1.000  C
  H58      1.0000 0.64460  0.22160  0.61450  Biso   1.000  H
  Zn4      1.0000 0.96180  0.56266  0.66050  Biso   1.000  Zn
  O13      1.0000 0.90049  0.52580  0.78280  Biso   1.000  O
  O14      1.0000 0.90279  0.70442  0.55720  Biso   1.000  O
  O15      1.0000 0.06586  0.57190  0.64370  Biso   1.000  O
  O16      1.0000 0.93065  0.64230  0.71210  Biso   1.000  O
  O17      1.0000 0.05219  0.61380  0.53600  Biso   1.000  O
  O18      1.0000 0.89039  0.58420  0.61730  Biso   1.000  O
  N9       1.0000 0.97770  0.22410  0.64120  Biso   1.000  N
  N10      1.0000 0.95070  0.98190  0.64060  Biso   1.000  N
  C91      1.0000 0.98910  0.32920  0.66650  Biso   1.000  C
  C92      1.0000 0.77860  0.63590  0.43850  Biso   1.000  C
  N11      1.0000 0.03610  0.15230  0.70350  Biso   1.000  N
  C93      1.0000 0.00240  0.25710  0.67060  Biso   1.000  C
  N12      1.0000 0.92990  0.24490  0.60820  Biso   1.000  N
  H59      1.0000 0.91220  0.21510  0.60100  Biso   1.000  H
  H60      1.0000 0.91830  0.28740  0.59530  Biso   1.000  H
  N13      1.0000 0.62440  0.63020  0.27750  Biso   1.000  N
  C94      1.0000 0.85030  0.64090  0.52010  Biso   1.000  C
  C95      1.0000 0.98440  0.09950  0.65200  Biso   1.000  C
  C96      1.0000 0.31860  0.61640  0.43750  Biso   1.000  C
  C97      1.0000 0.79680  0.57350  0.48470  Biso   1.000  C
  H61      1.0000 0.78580  0.53020  0.48760  Biso   1.000  H
  N14      1.0000 0.96840  0.46180  0.66510  Biso   1.000  N
  C98      1.0000 0.73790  0.63450  0.39750  Biso   1.000  C
  C99      1.0000 0.89850  0.58780  0.77690  Biso   1.000  C
  C100     1.0000 0.00020  0.15960  0.66400  Biso   1.000  C
  C101     1.0000 0.79720  0.69960  0.43420  Biso   1.000  C
  H62      1.0000 0.78450  0.74150  0.40390  Biso   1.000  H
  N15      1.0000 0.03560  0.21570  0.70800  Biso   1.000  N
  C102     1.0000 0.09170  0.59690  0.57030  Biso   1.000  C
  C103     1.0000 0.97430  0.38370  0.61000  Biso   1.000  C
  H63      1.0000 0.97010  0.37690  0.57170  Biso   1.000  H
  C104     1.0000 0.77670  0.61230  0.98890  Biso   1.000  C
  C105     1.0000 0.96590  0.44940  0.61150  Biso   1.000  C
  H64      1.0000 0.95810  0.48660  0.57170  Biso   1.000  H
  C106     1.0000 0.39900  0.62140  0.39240  Biso   1.000  C
  C107     1.0000 0.66190  0.62960  0.31910  Biso   1.000  C
  C108     1.0000 0.95170  0.04670  0.59220  Biso   1.000  C
  H65      1.0000 0.94100  0.05340  0.55180  Biso   1.000  H
  C109     1.0000 0.43720  0.66610  0.31580  Biso   1.000  C
  H66      1.0000 0.41330  0.69600  0.28830  Biso   1.000  H
  C110     1.0000 0.28750  0.59650  0.51880  Biso   1.000  C
  H67      1.0000 0.31680  0.58700  0.54350  Biso   1.000  H
  C111     1.0000 0.83230  0.57560  0.52740  Biso   1.000  C
  H68      1.0000 0.84320  0.53380  0.55980  Biso   1.000  H
  C112     1.0000 0.88400  0.64280  0.56880  Biso   1.000  C
  C113     1.0000 0.51010  0.57820  0.39360  Biso   1.000  C
  H69      1.0000 0.53450  0.54810  0.42050  Biso   1.000  H
  C114     1.0000 0.73510  0.62080  0.06070  Biso   1.000  C
  C115     1.0000 0.65920  0.62840  0.20380  Biso   1.000  C
  C116     1.0000 0.20230  0.62880  0.44210  Biso   1.000  C
  H70      1.0000 0.17400  0.64140  0.41590  Biso   1.000  H
  C117     1.0000 0.27670  0.63280  0.40010  Biso   1.000  C
  H71      1.0000 0.29750  0.64680  0.34630  Biso   1.000  H
  C118     1.0000 0.98280  0.40970  0.71900  Biso   1.000  C
  H72      1.0000 0.98570  0.41830  0.75700  Biso   1.000  H
  C119     1.0000 0.21410  0.59070  0.56250  Biso   1.000  C
  H73      1.0000 0.19360  0.57730  0.61610  Biso   1.000  H
  C120     1.0000 0.98680  0.03050  0.70490  Biso   1.000  C
  H74      1.0000 0.00000  0.02310  0.74390  Biso   1.000  H
  C121     1.0000 0.64330  0.67230  0.35780  Biso   1.000  C
  H75      1.0000 0.60580  0.69950  0.35790  Biso   1.000  H
  C122     1.0000 0.62900  0.59150  0.18200  Biso   1.000  C
  H76      1.0000 0.58290  0.56730  0.21640  Biso   1.000  H
  C123     1.0000 0.76980  0.54950  0.98710  Biso   1.000  C
  H77      1.0000 0.73610  0.51250  0.03250  Biso   1.000  H
  C124     1.0000 0.85620  0.59600  0.85130  Biso   1.000  C
  C125     1.0000 0.71590  0.58850  0.32160  Biso   1.000  C
  H78      1.0000 0.72730  0.55930  0.29680  Biso   1.000  H
  C126     1.0000 0.54640  0.62390  0.31680  Biso   1.000  C
  C127     1.0000 0.51060  0.66980  0.27580  Biso   1.000  C
  H79      1.0000 0.53560  0.70210  0.22280  Biso   1.000  H
  C128     1.0000 0.82430  0.67010  0.91940  Biso   1.000  C
  H80      1.0000 0.82960  0.71380  0.91860  Biso   1.000  H
  C129     1.0000 0.96730  0.10700  0.59540  Biso   1.000  C
  H81      1.0000 0.96600  0.15210  0.55890  Biso   1.000  H
  C130     1.0000 0.17120  0.60600  0.52250  Biso   1.000  C
  C131     1.0000 0.83350  0.70360  0.47260  Biso   1.000  C
  H82      1.0000 0.84650  0.74750  0.46700  Biso   1.000  H
  C132     1.0000 0.76590  0.66010  0.08080  Biso   1.000  C
  H83      1.0000 0.81200  0.68430  0.04640  Biso   1.000  H
  C133     1.0000 0.68220  0.67370  0.39670  Biso   1.000  C
  H84      1.0000 0.66980  0.70200  0.42260  Biso   1.000  H
  C134     1.0000 0.66420  0.58930  0.11180  Biso   1.000  C
  H85      1.0000 0.64080  0.56640  0.09780  Biso   1.000  H
  C135     1.0000 0.99360  0.34320  0.72200  Biso   1.000  C
  H86      1.0000 0.00390  0.30800  0.76110  Biso   1.000  H
  C136     1.0000 0.86420  0.66110  0.85060  Biso   1.000  C
  H87      1.0000 0.89600  0.69910  0.80450  Biso   1.000  H
  C137     1.0000 0.43680  0.57560  0.43320  Biso   1.000  C
  H88      1.0000 0.41200  0.54390  0.48640  Biso   1.000  H
  C138     1.0000 0.75380  0.58990  0.36050  Biso   1.000  C
  H89      1.0000 0.79000  0.56110  0.36220  Biso   1.000  H
  C139     1.0000 0.72790  0.66340  0.15220  Biso   1.000  C
  H90      1.0000 0.74920  0.68940  0.16510  Biso   1.000  H
  C140     1.0000 0.80940  0.53710  0.92220  Biso   1.000  C
  H91      1.0000 0.80550  0.49230  0.92500  Biso   1.000  H
  C141     1.0000 0.96920  0.97430  0.69700  Biso   1.000  C
  H92      1.0000 0.96990  0.92830  0.73250  Biso   1.000  H
  Zn5      1.0000 0.89883  0.72615  0.64011  Biso   1.000  Zn
  Zn6      1.0000 0.91392  0.89005  0.64936  Biso   1.000  Zn
  O19      1.0000 0.00124  0.76970  0.58570  Biso   1.000  O
  O20      1.0000 0.86269  0.82270  0.62440  Biso   1.000  O
  O21      1.0000 0.89209  0.93900  0.55130  Biso   1.000  O
  O22      1.0000 0.86290  0.84120  0.76740  Biso   1.000  O
  O23      1.0000 0.00632  0.85160  0.62440  Biso   1.000  O
  C142     1.0000 0.86180  0.88220  0.56730  Biso   1.000  C
  C143     1.0000 0.26440  0.84030  0.46890  Biso   1.000  C
  C144     1.0000 0.82260  0.88050  0.52410  Biso   1.000  C
  N16      1.0000 0.57110  0.87860  0.30370  Biso   1.000  N
  C145     1.0000 0.11410  0.82390  0.54640  Biso   1.000  C
  C146     1.0000 0.73390  0.82300  0.51920  Biso   1.000  C
  H93      1.0000 0.70080  0.78350  0.54190  Biso   1.000  H
  C147     1.0000 0.03550  0.81410  0.58850  Biso   1.000  C
  C148     1.0000 0.69870  0.86910  0.00780  Biso   1.000  C
  C149     1.0000 0.22870  0.88950  0.49310  Biso   1.000  C
  H94      1.0000 0.25470  0.92860  0.48410  Biso   1.000  H
  C150     1.0000 0.22290  0.78160  0.48440  Biso   1.000  C
  H95      1.0000 0.24560  0.74710  0.46940  Biso   1.000  H
  C151     1.0000 0.69340  0.84120  0.13760  Biso   1.000  C
  H96      1.0000 0.73410  0.81850  0.12550  Biso   1.000  H
  C152     1.0000 0.69800  0.88060  0.41010  Biso   1.000  C
  C153     1.0000 0.74230  0.87900  0.44970  Biso   1.000  C
  C154     1.0000 0.15440  0.88150  0.53090  Biso   1.000  C
  H97      1.0000 0.13140  0.91580  0.54610  Biso   1.000  H
  C155     1.0000 0.34410  0.84780  0.42840  Biso   1.000  C
  C156     1.0000 0.57280  0.90840  0.17620  Biso   1.000  C
  H98      1.0000 0.53330  0.93290  0.18750  Biso   1.000  H
  C157     1.0000 0.45240  0.82080  0.34580  Biso   1.000  C
  H99      1.0000 0.47460  0.79600  0.31660  Biso   1.000  H
  C158     1.0000 0.46000  0.90210  0.39250  Biso   1.000  C
  H100     1.0000 0.48640  0.93200  0.39640  Biso   1.000  H
  C159     1.0000 0.49370  0.86770  0.34710  Biso   1.000  C
  C160     1.0000 0.66420  0.87120  0.08420  Biso   1.000  C
  C161     1.0000 0.80210  0.85730  0.90620  Biso   1.000  C
  H101     1.0000 0.85030  0.85100  0.88700  Biso   1.000  H
  C162     1.0000 0.79530  0.93890  0.41260  Biso   1.000  C
  H102     1.0000 0.80410  0.97670  0.36370  Biso   1.000  H
  C163     1.0000 0.76610  0.86590  0.86100  Biso   1.000  C
  C164     1.0000 0.38700  0.89150  0.43180  Biso   1.000  C
  H103     1.0000 0.36460  0.91480  0.46270  Biso   1.000  H
  C165     1.0000 0.61300  0.87920  0.33960  Biso   1.000  C
  C166     1.0000 0.77210  0.82320  0.55620  Biso   1.000  C
  H104     1.0000 0.76440  0.78420  0.60390  Biso   1.000  H
  C167     1.0000 0.76900  0.85810  0.97560  Biso   1.000  C
  H105     1.0000 0.79480  0.85100  0.00380  Biso   1.000  H
  C168     1.0000 0.63130  0.84100  0.45200  Biso   1.000  C
  H106     1.0000 0.61350  0.81400  0.50630  Biso   1.000  H
  C169     1.0000 0.60420  0.90240  0.10790  Biso   1.000  C
  H107     1.0000 0.58280  0.92130  0.07440  Biso   1.000  H
  C170     1.0000 0.66220  0.84510  0.20780  Biso   1.000  C
  H108     1.0000 0.68280  0.82590  0.24220  Biso   1.000  H
  C171     1.0000 0.83350  0.93840  0.45260  Biso   1.000  C
  H109     1.0000 0.86680  0.97750  0.43090  Biso   1.000  H
  C172     1.0000 0.60210  0.87670  0.22770  Biso   1.000  C
  O24      1.0000 0.77940  0.89630  0.73460  Biso   1.000  O
  C173     1.0000 0.59030  0.83930  0.41780  Biso   1.000  C
  H110     1.0000 0.54630  0.81050  0.44860  Biso   1.000  H
  C174     1.0000 0.69590  0.87710  0.89280  Biso   1.000  C
  H111     1.0000 0.66980  0.88410  0.86500  Biso   1.000  H
  C175     1.0000 0.80260  0.86700  0.78330  Biso   1.000  C
  C176     1.0000 0.66300  0.87820  0.96400  Biso   1.000  C
  H112     1.0000 0.61510  0.88540  0.98350  Biso   1.000  H
  C177     1.0000 0.14970  0.77460  0.52120  Biso   1.000  C
  H113     1.0000 0.12340  0.73610  0.52950  Biso   1.000  H
  C178     1.0000 0.67900  0.92320  0.29190  Biso   1.000  C
  H114     1.0000 0.69410  0.95290  0.23840  Biso   1.000  H
  C179     1.0000 0.72150  0.91990  0.32990  Biso   1.000  C
  H115     1.0000 0.76720  0.94540  0.29920  Biso   1.000  H
  C180     1.0000 0.38130  0.81140  0.38610  Biso   1.000  C
  H116     1.0000 0.35540  0.77840  0.38550  Biso   1.000  H
