data_image0
_cell_length_a       18.001
_cell_length_b       18.001
_cell_length_c       12.946
_cell_angle_alpha    90
_cell_angle_beta     90
_cell_angle_gamma    90

_symmetry_space_group_name_H-M    "P 1"
_symmetry_int_tables_number       1

loop_
  _symmetry_equiv_pos_as_xyz
  'x, y, z'

loop_
  _atom_site_label
  _atom_site_occupancy
  _atom_site_fract_x
  _atom_site_fract_y
  _atom_site_fract_z
  _atom_site_thermal_displace_type
  _atom_site_B_iso_or_equiv
  _atom_site_type_symbol
  N1       1.0000 0.55740  0.04370  0.30750  Biso   1.000  N
  N2       1.0000 0.51400  0.01120  0.15390  Biso   1.000  N
  N3       1.0000 0.91290  0.06610  0.47420  Biso   1.000  N
  N4       1.0000 0.79850  0.10650  0.45600  Biso   1.000  N
  C1       1.0000 0.60130  0.07780  0.38550  Biso   1.000  C
  C2       1.0000 0.84210  0.04720  0.47090  Biso   1.000  C
  H1       1.0000 0.82470  0.99890  0.47810  Biso   1.000  H
  C3       1.0000 0.60760  0.15120  0.53960  Biso   1.000  C
  C4       1.0000 0.67880  0.07280  0.38250  Biso   1.000  C
  H2       1.0000 0.70260  0.04650  0.33030  Biso   1.000  H
  C5       1.0000 0.71880  0.10800  0.45890  Biso   1.000  C
  C6       1.0000 0.56860  0.04380  0.20460  Biso   1.000  C
  H3       1.0000 0.61010  0.06450  0.17280  Biso   1.000  H
  O1       1.0000 0.49970  0.19880  0.62790  Biso   1.000  O
  C7       1.0000 0.46470  0.98840  0.22990  Biso   1.000  C
  H4       1.0000 0.42050  0.96300  0.21790  Biso   1.000  H
  C8       1.0000 0.56620  0.11760  0.46240  Biso   1.000  C
  H5       1.0000 0.51470  0.12180  0.46250  Biso   1.000  H
  C9       1.0000 0.68510  0.14620  0.53740  Biso   1.000  C
  H6       1.0000 0.71340  0.16860  0.58880  Biso   1.000  H
  C10      1.0000 0.49010  0.00840  0.32370  Biso   1.000  C
  H7       1.0000 0.46700  0.00010  0.38690  Biso   1.000  H
  C11      1.0000 0.91430  0.14150  0.45920  Biso   1.000  C
  H8       1.0000 0.95700  0.17050  0.45690  Biso   1.000  H
  O2       1.0000 0.60980  0.23450  0.68090  Biso   1.000  O
  C12      1.0000 0.84470  0.16720  0.44840  Biso   1.000  C
  H9       1.0000 0.83060  0.21630  0.43780  Biso   1.000  H
  C13      1.0000 0.57180  0.19610  0.62350  Biso   1.000  C
  N5       1.0000 0.94260  0.45630  0.30750  Biso   1.000  N
  N6       1.0000 0.98600  0.48880  0.15390  Biso   1.000  N
  N7       1.0000 0.58710  0.43390  0.47420  Biso   1.000  N
  N8       1.0000 0.70150  0.39350  0.45600  Biso   1.000  N
  C14      1.0000 0.89870  0.42220  0.38550  Biso   1.000  C
  C15      1.0000 0.65790  0.45280  0.47090  Biso   1.000  C
  H10      1.0000 0.67530  0.50110  0.47810  Biso   1.000  H
  C16      1.0000 0.89240  0.34880  0.53960  Biso   1.000  C
  C17      1.0000 0.82120  0.42720  0.38250  Biso   1.000  C
  H11      1.0000 0.79740  0.45350  0.33030  Biso   1.000  H
  C18      1.0000 0.78120  0.39200  0.45890  Biso   1.000  C
  C19      1.0000 0.93140  0.45620  0.20460  Biso   1.000  C
  H12      1.0000 0.88990  0.43550  0.17280  Biso   1.000  H
  O3       1.0000 0.00030  0.30120  0.62790  Biso   1.000  O
  C20      1.0000 0.03530  0.51160  0.22990  Biso   1.000  C
  H13      1.0000 0.07950  0.53700  0.21790  Biso   1.000  H
  C21      1.0000 0.93380  0.38240  0.46240  Biso   1.000  C
  H14      1.0000 0.98530  0.37820  0.46250  Biso   1.000  H
  C22      1.0000 0.81490  0.35380  0.53740  Biso   1.000  C
  H15      1.0000 0.78660  0.33140  0.58880  Biso   1.000  H
  C23      1.0000 0.00990  0.49160  0.32370  Biso   1.000  C
  H16      1.0000 0.03300  0.49990  0.38690  Biso   1.000  H
  C24      1.0000 0.58570  0.35850  0.45920  Biso   1.000  C
  H17      1.0000 0.54300  0.32950  0.45690  Biso   1.000  H
  O4       1.0000 0.89020  0.26550  0.68090  Biso   1.000  O
  C25      1.0000 0.65530  0.33280  0.44840  Biso   1.000  C
  H18      1.0000 0.66940  0.28370  0.43780  Biso   1.000  H
  C26      1.0000 0.92820  0.30390  0.62350  Biso   1.000  C
  N9       1.0000 0.95630  0.05740  0.80750  Biso   1.000  N
  N10      1.0000 0.98880  0.01400  0.65390  Biso   1.000  N
  N11      1.0000 0.93390  0.41290  0.97420  Biso   1.000  N
  N12      1.0000 0.89350  0.29850  0.95600  Biso   1.000  N
  C27      1.0000 0.92220  0.10130  0.88550  Biso   1.000  C
  C28      1.0000 0.95280  0.34210  0.97090  Biso   1.000  C
  H19      1.0000 0.00110  0.32470  0.97810  Biso   1.000  H
  C29      1.0000 0.84880  0.10760  0.03960  Biso   1.000  C
  C30      1.0000 0.92720  0.17880  0.88250  Biso   1.000  C
  H20      1.0000 0.95350  0.20260  0.83030  Biso   1.000  H
  C31      1.0000 0.89200  0.21880  0.95890  Biso   1.000  C
  C32      1.0000 0.95620  0.06860  0.70460  Biso   1.000  C
  H21      1.0000 0.93550  0.11010  0.67280  Biso   1.000  H
  O5       1.0000 0.80120  0.99970  0.12790  Biso   1.000  O
  C33      1.0000 0.01160  0.96470  0.72990  Biso   1.000  C
  H22      1.0000 0.03700  0.92050  0.71790  Biso   1.000  H
  C34      1.0000 0.88240  0.06620  0.96240  Biso   1.000  C
  H23      1.0000 0.87820  0.01470  0.96250  Biso   1.000  H
  C35      1.0000 0.85380  0.18510  0.03740  Biso   1.000  C
  H24      1.0000 0.83140  0.21340  0.08880  Biso   1.000  H
  C36      1.0000 0.99160  0.99010  0.82370  Biso   1.000  C
  H25      1.0000 0.99990  0.96700  0.88690  Biso   1.000  H
  C37      1.0000 0.85850  0.41430  0.95920  Biso   1.000  C
  H26      1.0000 0.82950  0.45700  0.95690  Biso   1.000  H
  O6       1.0000 0.76550  0.10980  0.18090  Biso   1.000  O
  C38      1.0000 0.83280  0.34470  0.94840  Biso   1.000  C
  H27      1.0000 0.78370  0.33060  0.93780  Biso   1.000  H
  C39      1.0000 0.80390  0.07180  0.12350  Biso   1.000  C
  N13      1.0000 0.54370  0.44260  0.80750  Biso   1.000  N
  N14      1.0000 0.51120  0.48600  0.65390  Biso   1.000  N
  N15      1.0000 0.56610  0.08710  0.97420  Biso   1.000  N
  N16      1.0000 0.60650  0.20150  0.95600  Biso   1.000  N
  C40      1.0000 0.57780  0.39870  0.88550  Biso   1.000  C
  C41      1.0000 0.54720  0.15790  0.97090  Biso   1.000  C
  H28      1.0000 0.49890  0.17530  0.97810  Biso   1.000  H
  C42      1.0000 0.65120  0.39240  0.03960  Biso   1.000  C
  C43      1.0000 0.57280  0.32120  0.88250  Biso   1.000  C
  H29      1.0000 0.54650  0.29740  0.83030  Biso   1.000  H
  C44      1.0000 0.60800  0.28120  0.95890  Biso   1.000  C
  C45      1.0000 0.54380  0.43140  0.70460  Biso   1.000  C
  H30      1.0000 0.56450  0.38990  0.67280  Biso   1.000  H
  O7       1.0000 0.69880  0.50030  0.12790  Biso   1.000  O
  C46      1.0000 0.48840  0.53530  0.72990  Biso   1.000  C
  H31      1.0000 0.46300  0.57950  0.71790  Biso   1.000  H
  C47      1.0000 0.61760  0.43380  0.96240  Biso   1.000  C
  H32      1.0000 0.62180  0.48530  0.96250  Biso   1.000  H
  C48      1.0000 0.64620  0.31490  0.03740  Biso   1.000  C
  H33      1.0000 0.66860  0.28660  0.08880  Biso   1.000  H
  C49      1.0000 0.50840  0.50990  0.82370  Biso   1.000  C
  H34      1.0000 0.50010  0.53300  0.88690  Biso   1.000  H
  C50      1.0000 0.64150  0.08570  0.95920  Biso   1.000  C
  H35      1.0000 0.67050  0.04300  0.95690  Biso   1.000  H
  O8       1.0000 0.73450  0.39020  0.18090  Biso   1.000  O
  C51      1.0000 0.66720  0.15530  0.94840  Biso   1.000  C
  H36      1.0000 0.71630  0.16940  0.93780  Biso   1.000  H
  C52      1.0000 0.69610  0.42820  0.12350  Biso   1.000  C
  N17      1.0000 0.44260  0.95630  0.69250  Biso   1.000  N
  N18      1.0000 0.48600  0.98880  0.84610  Biso   1.000  N
  N19      1.0000 0.08710  0.93390  0.52580  Biso   1.000  N
  N20      1.0000 0.20150  0.89350  0.54400  Biso   1.000  N
  C53      1.0000 0.39870  0.92220  0.61450  Biso   1.000  C
  C54      1.0000 0.15790  0.95280  0.52910  Biso   1.000  C
  H37      1.0000 0.17530  0.00110  0.52190  Biso   1.000  H
  C55      1.0000 0.39240  0.84880  0.46040  Biso   1.000  C
  C56      1.0000 0.32120  0.92720  0.61750  Biso   1.000  C
  H38      1.0000 0.29740  0.95350  0.66970  Biso   1.000  H
  C57      1.0000 0.28120  0.89200  0.54110  Biso   1.000  C
  C58      1.0000 0.43140  0.95620  0.79540  Biso   1.000  C
  H39      1.0000 0.38990  0.93550  0.82720  Biso   1.000  H
  O9       1.0000 0.50030  0.80120  0.37210  Biso   1.000  O
  C59      1.0000 0.53530  0.01160  0.77010  Biso   1.000  C
  H40      1.0000 0.57950  0.03700  0.78210  Biso   1.000  H
  C60      1.0000 0.43380  0.88240  0.53760  Biso   1.000  C
  H41      1.0000 0.48530  0.87820  0.53750  Biso   1.000  H
  C61      1.0000 0.31490  0.85380  0.46260  Biso   1.000  C
  H42      1.0000 0.28660  0.83140  0.41120  Biso   1.000  H
  C62      1.0000 0.50990  0.99160  0.67630  Biso   1.000  C
  H43      1.0000 0.53300  0.99990  0.61310  Biso   1.000  H
  C63      1.0000 0.08570  0.85850  0.54080  Biso   1.000  C
  H44      1.0000 0.04300  0.82950  0.54310  Biso   1.000  H
  O10      1.0000 0.39020  0.76550  0.31910  Biso   1.000  O
  C64      1.0000 0.15530  0.83280  0.55160  Biso   1.000  C
  H45      1.0000 0.16940  0.78370  0.56220  Biso   1.000  H
  C65      1.0000 0.42820  0.80390  0.37650  Biso   1.000  C
  N21      1.0000 0.05740  0.54370  0.69250  Biso   1.000  N
  N22      1.0000 0.01400  0.51120  0.84610  Biso   1.000  N
  N23      1.0000 0.41290  0.56610  0.52580  Biso   1.000  N
  N24      1.0000 0.29850  0.60650  0.54400  Biso   1.000  N
  C66      1.0000 0.10130  0.57780  0.61450  Biso   1.000  C
  C67      1.0000 0.34210  0.54720  0.52910  Biso   1.000  C
  H46      1.0000 0.32470  0.49890  0.52190  Biso   1.000  H
  C68      1.0000 0.10760  0.65120  0.46040  Biso   1.000  C
  C69      1.0000 0.17880  0.57280  0.61750  Biso   1.000  C
  H47      1.0000 0.20260  0.54650  0.66970  Biso   1.000  H
  C70      1.0000 0.21880  0.60800  0.54110  Biso   1.000  C
  C71      1.0000 0.06860  0.54380  0.79540  Biso   1.000  C
  H48      1.0000 0.11010  0.56450  0.82720  Biso   1.000  H
  O11      1.0000 0.99970  0.69880  0.37210  Biso   1.000  O
  C72      1.0000 0.96470  0.48840  0.77010  Biso   1.000  C
  H49      1.0000 0.92050  0.46300  0.78210  Biso   1.000  H
  C73      1.0000 0.06620  0.61760  0.53760  Biso   1.000  C
  H50      1.0000 0.01470  0.62180  0.53750  Biso   1.000  H
  C74      1.0000 0.18510  0.64620  0.46260  Biso   1.000  C
  H51      1.0000 0.21340  0.66860  0.41120  Biso   1.000  H
  C75      1.0000 0.99010  0.50840  0.67630  Biso   1.000  C
  H52      1.0000 0.96700  0.50010  0.61310  Biso   1.000  H
  C76      1.0000 0.41430  0.64150  0.54080  Biso   1.000  C
  H53      1.0000 0.45700  0.67050  0.54310  Biso   1.000  H
  O12      1.0000 0.10980  0.73450  0.31910  Biso   1.000  O
  C77      1.0000 0.34470  0.66720  0.55160  Biso   1.000  C
  H54      1.0000 0.33060  0.71630  0.56220  Biso   1.000  H
  C78      1.0000 0.07180  0.69610  0.37650  Biso   1.000  C
  N25      1.0000 0.04370  0.94260  0.19250  Biso   1.000  N
  N26      1.0000 0.01120  0.98600  0.34610  Biso   1.000  N
  N27      1.0000 0.06610  0.58710  0.02580  Biso   1.000  N
  N28      1.0000 0.10650  0.70150  0.04400  Biso   1.000  N
  C79      1.0000 0.07780  0.89870  0.11450  Biso   1.000  C
  C80      1.0000 0.04720  0.65790  0.02910  Biso   1.000  C
  H55      1.0000 0.99890  0.67530  0.02190  Biso   1.000  H
  C81      1.0000 0.15120  0.89240  0.96040  Biso   1.000  C
  C82      1.0000 0.07280  0.82120  0.11750  Biso   1.000  C
  H56      1.0000 0.04650  0.79740  0.16970  Biso   1.000  H
  C83      1.0000 0.10800  0.78120  0.04110  Biso   1.000  C
  C84      1.0000 0.04380  0.93140  0.29540  Biso   1.000  C
  H57      1.0000 0.06450  0.88990  0.32720  Biso   1.000  H
  O13      1.0000 0.19880  0.00030  0.87210  Biso   1.000  O
  C85      1.0000 0.98840  0.03530  0.27010  Biso   1.000  C
  H58      1.0000 0.96300  0.07950  0.28210  Biso   1.000  H
  C86      1.0000 0.11760  0.93380  0.03760  Biso   1.000  C
  H59      1.0000 0.12180  0.98530  0.03750  Biso   1.000  H
  C87      1.0000 0.14620  0.81490  0.96260  Biso   1.000  C
  H60      1.0000 0.16860  0.78660  0.91120  Biso   1.000  H
  C88      1.0000 0.00840  0.00990  0.17630  Biso   1.000  C
  H61      1.0000 0.00010  0.03300  0.11310  Biso   1.000  H
  C89      1.0000 0.14150  0.58570  0.04080  Biso   1.000  C
  H62      1.0000 0.17050  0.54300  0.04310  Biso   1.000  H
  O14      1.0000 0.23450  0.89020  0.81910  Biso   1.000  O
  C90      1.0000 0.16720  0.65530  0.05160  Biso   1.000  C
  H63      1.0000 0.21630  0.66940  0.06220  Biso   1.000  H
  C91      1.0000 0.19610  0.92820  0.87650  Biso   1.000  C
  N29      1.0000 0.45630  0.55740  0.19250  Biso   1.000  N
  N30      1.0000 0.48880  0.51400  0.34610  Biso   1.000  N
  N31      1.0000 0.43390  0.91290  0.02580  Biso   1.000  N
  N32      1.0000 0.39350  0.79850  0.04400  Biso   1.000  N
  C92      1.0000 0.42220  0.60130  0.11450  Biso   1.000  C
  C93      1.0000 0.45280  0.84210  0.02910  Biso   1.000  C
  H64      1.0000 0.50110  0.82470  0.02190  Biso   1.000  H
  C94      1.0000 0.34880  0.60760  0.96040  Biso   1.000  C
  C95      1.0000 0.42720  0.67880  0.11750  Biso   1.000  C
  H65      1.0000 0.45350  0.70260  0.16970  Biso   1.000  H
  C96      1.0000 0.39200  0.71880  0.04110  Biso   1.000  C
  C97      1.0000 0.45620  0.56860  0.29540  Biso   1.000  C
  H66      1.0000 0.43550  0.61010  0.32720  Biso   1.000  H
  O15      1.0000 0.30120  0.49970  0.87210  Biso   1.000  O
  C98      1.0000 0.51160  0.46470  0.27010  Biso   1.000  C
  H67      1.0000 0.53700  0.42050  0.28210  Biso   1.000  H
  C99      1.0000 0.38240  0.56620  0.03760  Biso   1.000  C
  H68      1.0000 0.37820  0.51470  0.03750  Biso   1.000  H
  C100     1.0000 0.35380  0.68510  0.96260  Biso   1.000  C
  H69      1.0000 0.33140  0.71340  0.91120  Biso   1.000  H
  C101     1.0000 0.49160  0.49010  0.17630  Biso   1.000  C
  H70      1.0000 0.49990  0.46700  0.11310  Biso   1.000  H
  C102     1.0000 0.35850  0.91430  0.04080  Biso   1.000  C
  H71      1.0000 0.32950  0.95700  0.04310  Biso   1.000  H
  O16      1.0000 0.26550  0.60980  0.81910  Biso   1.000  O
  C103     1.0000 0.33280  0.84470  0.05160  Biso   1.000  C
  H72      1.0000 0.28370  0.83060  0.06220  Biso   1.000  H
  C104     1.0000 0.30390  0.57180  0.87650  Biso   1.000  C
  Cu1      1.0000 0.00000  0.00000  0.50000  Biso   1.000  Cu
  Cu2      1.0000 0.50000  0.50000  0.50000  Biso   1.000  Cu
  Cu3      1.0000 0.00000  0.50000  0.00000  Biso   1.000  Cu
  Cu4      1.0000 0.50000  0.00000  0.00000  Biso   1.000  Cu
