data_image0
_cell_length_a       18.12
_cell_length_b       18.12
_cell_length_c       12.905
_cell_angle_alpha    90
_cell_angle_beta     90
_cell_angle_gamma    90

_symmetry_space_group_name_H-M    "P 1"
_symmetry_int_tables_number       1

loop_
  _symmetry_equiv_pos_as_xyz
  'x, y, z'

loop_
  _atom_site_label
  _atom_site_occupancy
  _atom_site_fract_x
  _atom_site_fract_y
  _atom_site_fract_z
  _atom_site_thermal_displace_type
  _atom_site_B_iso_or_equiv
  _atom_site_type_symbol
  N1       1.0000 0.51440  0.01000  0.34570  Biso   1.000  N
  C1       1.0000 0.49100  0.00650  0.17480  Biso   1.000  C
  H1       1.0000 0.46830  0.99800  0.11130  Biso   1.000  H
  N2       1.0000 0.55770  0.04240  0.19050  Biso   1.000  N
  C2       1.0000 0.46510  0.98610  0.26920  Biso   1.000  C
  H2       1.0000 0.42160  0.96040  0.28120  Biso   1.000  H
  N3       1.0000 0.79800  0.10700  0.04000  Biso   1.000  N
  C3       1.0000 0.60230  0.07680  0.11230  Biso   1.000  C
  C4       1.0000 0.60820  0.15020  0.95620  Biso   1.000  C
  N4       1.0000 0.91320  0.06680  0.02480  Biso   1.000  N
  C5       1.0000 0.84210  0.04730  0.02970  Biso   1.000  C
  H3       1.0000 0.82510  0.99890  0.02660  Biso   1.000  H
  C6       1.0000 0.68460  0.14560  0.95900  Biso   1.000  C
  H4       1.0000 0.71260  0.16770  0.90720  Biso   1.000  H
  C7       1.0000 0.84390  0.16670  0.04700  Biso   1.000  C
  H5       1.0000 0.82940  0.21550  0.05630  Biso   1.000  H
  C8       1.0000 0.67850  0.07170  0.11460  Biso   1.000  C
  H6       1.0000 0.70230  0.04460  0.16580  Biso   1.000  H
  C9       1.0000 0.71880  0.10840  0.03810  Biso   1.000  C
  C10      1.0000 0.56860  0.04340  0.29530  Biso   1.000  C
  H7       1.0000 0.60920  0.06500  0.32730  Biso   1.000  H
  C11      1.0000 0.56680  0.11590  0.03580  Biso   1.000  C
  H8       1.0000 0.51560  0.11990  0.03640  Biso   1.000  H
  O1       1.0000 0.60210  0.21710  0.80050  Biso   1.000  O
  C12      1.0000 0.56960  0.19230  0.87270  Biso   1.000  C
  O2       1.0000 0.49890  0.20250  0.88650  Biso   1.000  O
  C13      1.0000 0.91370  0.14230  0.03820  Biso   1.000  C
  H9       1.0000 0.95580  0.17170  0.04070  Biso   1.000  H
  N5       1.0000 0.98560  0.49000  0.34570  Biso   1.000  N
  C14      1.0000 0.00900  0.49350  0.17480  Biso   1.000  C
  H10      1.0000 0.03170  0.50200  0.11130  Biso   1.000  H
  N6       1.0000 0.94230  0.45760  0.19050  Biso   1.000  N
  C15      1.0000 0.03490  0.51390  0.26920  Biso   1.000  C
  H11      1.0000 0.07840  0.53960  0.28120  Biso   1.000  H
  N7       1.0000 0.70200  0.39300  0.04000  Biso   1.000  N
  C16      1.0000 0.89770  0.42320  0.11230  Biso   1.000  C
  C17      1.0000 0.89180  0.34980  0.95620  Biso   1.000  C
  N8       1.0000 0.58680  0.43320  0.02480  Biso   1.000  N
  C18      1.0000 0.65790  0.45270  0.02970  Biso   1.000  C
  H12      1.0000 0.67490  0.50110  0.02660  Biso   1.000  H
  C19      1.0000 0.81540  0.35440  0.95900  Biso   1.000  C
  H13      1.0000 0.78740  0.33230  0.90720  Biso   1.000  H
  C20      1.0000 0.65610  0.33330  0.04700  Biso   1.000  C
  H14      1.0000 0.67060  0.28450  0.05630  Biso   1.000  H
  C21      1.0000 0.82150  0.42830  0.11460  Biso   1.000  C
  H15      1.0000 0.79770  0.45540  0.16580  Biso   1.000  H
  C22      1.0000 0.78120  0.39160  0.03810  Biso   1.000  C
  C23      1.0000 0.93140  0.45660  0.29530  Biso   1.000  C
  H16      1.0000 0.89080  0.43500  0.32730  Biso   1.000  H
  C24      1.0000 0.93320  0.38410  0.03580  Biso   1.000  C
  H17      1.0000 0.98440  0.38010  0.03640  Biso   1.000  H
  O3       1.0000 0.89790  0.28290  0.80050  Biso   1.000  O
  C25      1.0000 0.93040  0.30770  0.87270  Biso   1.000  C
  O4       1.0000 0.00110  0.29750  0.88650  Biso   1.000  O
  C26      1.0000 0.58630  0.35770  0.03820  Biso   1.000  C
  H18      1.0000 0.54420  0.32830  0.04070  Biso   1.000  H
  N9       1.0000 0.99000  0.01440  0.84570  Biso   1.000  N
  C27      1.0000 0.99350  0.99100  0.67480  Biso   1.000  C
  H19      1.0000 0.00200  0.96830  0.61130  Biso   1.000  H
  N10      1.0000 0.95760  0.05770  0.69050  Biso   1.000  N
  C28      1.0000 0.01390  0.96510  0.76920  Biso   1.000  C
  H20      1.0000 0.03960  0.92160  0.78120  Biso   1.000  H
  N11      1.0000 0.89300  0.29800  0.54000  Biso   1.000  N
  C29      1.0000 0.92320  0.10230  0.61230  Biso   1.000  C
  C30      1.0000 0.84980  0.10820  0.45620  Biso   1.000  C
  N12      1.0000 0.93320  0.41320  0.52480  Biso   1.000  N
  C31      1.0000 0.95270  0.34210  0.52970  Biso   1.000  C
  H21      1.0000 0.00110  0.32510  0.52660  Biso   1.000  H
  C32      1.0000 0.85440  0.18460  0.45900  Biso   1.000  C
  H22      1.0000 0.83230  0.21260  0.40720  Biso   1.000  H
  C33      1.0000 0.83330  0.34390  0.54700  Biso   1.000  C
  H23      1.0000 0.78450  0.32940  0.55630  Biso   1.000  H
  C34      1.0000 0.92830  0.17850  0.61460  Biso   1.000  C
  H24      1.0000 0.95540  0.20230  0.66580  Biso   1.000  H
  C35      1.0000 0.89160  0.21880  0.53810  Biso   1.000  C
  C36      1.0000 0.95660  0.06860  0.79530  Biso   1.000  C
  H25      1.0000 0.93500  0.10920  0.82730  Biso   1.000  H
  C37      1.0000 0.88410  0.06680  0.53580  Biso   1.000  C
  H26      1.0000 0.88010  0.01560  0.53640  Biso   1.000  H
  O5       1.0000 0.78290  0.10210  0.30050  Biso   1.000  O
  C38      1.0000 0.80770  0.06960  0.37270  Biso   1.000  C
  O6       1.0000 0.79750  0.99890  0.38650  Biso   1.000  O
  C39      1.0000 0.85770  0.41370  0.53820  Biso   1.000  C
  H27      1.0000 0.82830  0.45580  0.54070  Biso   1.000  H
  N13      1.0000 0.51000  0.48560  0.84570  Biso   1.000  N
  C40      1.0000 0.50650  0.50900  0.67480  Biso   1.000  C
  H28      1.0000 0.49800  0.53170  0.61130  Biso   1.000  H
  N14      1.0000 0.54240  0.44230  0.69050  Biso   1.000  N
  C41      1.0000 0.48610  0.53490  0.76920  Biso   1.000  C
  H29      1.0000 0.46040  0.57840  0.78120  Biso   1.000  H
  N15      1.0000 0.60700  0.20200  0.54000  Biso   1.000  N
  C42      1.0000 0.57680  0.39770  0.61230  Biso   1.000  C
  C43      1.0000 0.65020  0.39180  0.45620  Biso   1.000  C
  N16      1.0000 0.56680  0.08680  0.52480  Biso   1.000  N
  C44      1.0000 0.54730  0.15790  0.52970  Biso   1.000  C
  H30      1.0000 0.49890  0.17490  0.52660  Biso   1.000  H
  C45      1.0000 0.64560  0.31540  0.45900  Biso   1.000  C
  H31      1.0000 0.66770  0.28740  0.40720  Biso   1.000  H
  C46      1.0000 0.66670  0.15610  0.54700  Biso   1.000  C
  H32      1.0000 0.71550  0.17060  0.55630  Biso   1.000  H
  C47      1.0000 0.57170  0.32150  0.61460  Biso   1.000  C
  H33      1.0000 0.54460  0.29770  0.66580  Biso   1.000  H
  C48      1.0000 0.60840  0.28120  0.53810  Biso   1.000  C
  C49      1.0000 0.54340  0.43140  0.79530  Biso   1.000  C
  H34      1.0000 0.56500  0.39080  0.82730  Biso   1.000  H
  C50      1.0000 0.61590  0.43320  0.53580  Biso   1.000  C
  H35      1.0000 0.61990  0.48440  0.53640  Biso   1.000  H
  O7       1.0000 0.71710  0.39790  0.30050  Biso   1.000  O
  C51      1.0000 0.69230  0.43040  0.37270  Biso   1.000  C
  O8       1.0000 0.70250  0.50110  0.38650  Biso   1.000  O
  C52      1.0000 0.64230  0.08630  0.53820  Biso   1.000  C
  H36      1.0000 0.67170  0.04420  0.54070  Biso   1.000  H
  N17      1.0000 0.48560  0.99000  0.65430  Biso   1.000  N
  C53      1.0000 0.50900  0.99350  0.82520  Biso   1.000  C
  H37      1.0000 0.53170  0.00200  0.88870  Biso   1.000  H
  N18      1.0000 0.44230  0.95760  0.80950  Biso   1.000  N
  C54      1.0000 0.53490  0.01390  0.73080  Biso   1.000  C
  H38      1.0000 0.57840  0.03960  0.71880  Biso   1.000  H
  N19      1.0000 0.20200  0.89300  0.96000  Biso   1.000  N
  C55      1.0000 0.39770  0.92320  0.88770  Biso   1.000  C
  C56      1.0000 0.39180  0.84980  0.04380  Biso   1.000  C
  N20      1.0000 0.08680  0.93320  0.97520  Biso   1.000  N
  C57      1.0000 0.15790  0.95270  0.97030  Biso   1.000  C
  H39      1.0000 0.17490  0.00110  0.97340  Biso   1.000  H
  C58      1.0000 0.31540  0.85440  0.04100  Biso   1.000  C
  H40      1.0000 0.28740  0.83230  0.09280  Biso   1.000  H
  C59      1.0000 0.15610  0.83330  0.95300  Biso   1.000  C
  H41      1.0000 0.17060  0.78450  0.94370  Biso   1.000  H
  C60      1.0000 0.32150  0.92830  0.88540  Biso   1.000  C
  H42      1.0000 0.29770  0.95540  0.83420  Biso   1.000  H
  C61      1.0000 0.28120  0.89160  0.96190  Biso   1.000  C
  C62      1.0000 0.43140  0.95660  0.70470  Biso   1.000  C
  H43      1.0000 0.39080  0.93500  0.67270  Biso   1.000  H
  C63      1.0000 0.43320  0.88410  0.96420  Biso   1.000  C
  H44      1.0000 0.48440  0.88010  0.96360  Biso   1.000  H
  O9       1.0000 0.39790  0.78290  0.19950  Biso   1.000  O
  C64      1.0000 0.43040  0.80770  0.12730  Biso   1.000  C
  O10      1.0000 0.50110  0.79750  0.11350  Biso   1.000  O
  C65      1.0000 0.08630  0.85770  0.96180  Biso   1.000  C
  H45      1.0000 0.04420  0.82830  0.95930  Biso   1.000  H
  N21      1.0000 0.01440  0.51000  0.65430  Biso   1.000  N
  C66      1.0000 0.99100  0.50650  0.82520  Biso   1.000  C
  H46      1.0000 0.96830  0.49800  0.88870  Biso   1.000  H
  N22      1.0000 0.05770  0.54240  0.80950  Biso   1.000  N
  C67      1.0000 0.96510  0.48610  0.73080  Biso   1.000  C
  H47      1.0000 0.92160  0.46040  0.71880  Biso   1.000  H
  N23      1.0000 0.29800  0.60700  0.96000  Biso   1.000  N
  C68      1.0000 0.10230  0.57680  0.88770  Biso   1.000  C
  C69      1.0000 0.10820  0.65020  0.04380  Biso   1.000  C
  N24      1.0000 0.41320  0.56680  0.97520  Biso   1.000  N
  C70      1.0000 0.34210  0.54730  0.97030  Biso   1.000  C
  H48      1.0000 0.32510  0.49890  0.97340  Biso   1.000  H
  C71      1.0000 0.18460  0.64560  0.04100  Biso   1.000  C
  H49      1.0000 0.21260  0.66770  0.09280  Biso   1.000  H
  C72      1.0000 0.34390  0.66670  0.95300  Biso   1.000  C
  H50      1.0000 0.32940  0.71550  0.94370  Biso   1.000  H
  C73      1.0000 0.17850  0.57170  0.88540  Biso   1.000  C
  H51      1.0000 0.20230  0.54460  0.83420  Biso   1.000  H
  C74      1.0000 0.21880  0.60840  0.96190  Biso   1.000  C
  C75      1.0000 0.06860  0.54340  0.70470  Biso   1.000  C
  H52      1.0000 0.10920  0.56500  0.67270  Biso   1.000  H
  C76      1.0000 0.06680  0.61590  0.96420  Biso   1.000  C
  H53      1.0000 0.01560  0.61990  0.96360  Biso   1.000  H
  O11      1.0000 0.10210  0.71710  0.19950  Biso   1.000  O
  C77      1.0000 0.06960  0.69230  0.12730  Biso   1.000  C
  O12      1.0000 0.99890  0.70250  0.11350  Biso   1.000  O
  C78      1.0000 0.41370  0.64230  0.96180  Biso   1.000  C
  H54      1.0000 0.45580  0.67170  0.95930  Biso   1.000  H
  N25      1.0000 0.01000  0.98560  0.15430  Biso   1.000  N
  C79      1.0000 0.00650  0.00900  0.32520  Biso   1.000  C
  H55      1.0000 0.99800  0.03170  0.38870  Biso   1.000  H
  N26      1.0000 0.04240  0.94230  0.30950  Biso   1.000  N
  C80      1.0000 0.98610  0.03490  0.23080  Biso   1.000  C
  H56      1.0000 0.96040  0.07840  0.21880  Biso   1.000  H
  N27      1.0000 0.10700  0.70200  0.46000  Biso   1.000  N
  C81      1.0000 0.07680  0.89770  0.38770  Biso   1.000  C
  C82      1.0000 0.15020  0.89180  0.54380  Biso   1.000  C
  N28      1.0000 0.06680  0.58680  0.47520  Biso   1.000  N
  C83      1.0000 0.04730  0.65790  0.47030  Biso   1.000  C
  H57      1.0000 0.99890  0.67490  0.47340  Biso   1.000  H
  C84      1.0000 0.14560  0.81540  0.54100  Biso   1.000  C
  H58      1.0000 0.16770  0.78740  0.59280  Biso   1.000  H
  C85      1.0000 0.16670  0.65610  0.45300  Biso   1.000  C
  H59      1.0000 0.21550  0.67060  0.44370  Biso   1.000  H
  C86      1.0000 0.07170  0.82150  0.38540  Biso   1.000  C
  H60      1.0000 0.04460  0.79770  0.33420  Biso   1.000  H
  C87      1.0000 0.10840  0.78120  0.46190  Biso   1.000  C
  C88      1.0000 0.04340  0.93140  0.20470  Biso   1.000  C
  H61      1.0000 0.06500  0.89080  0.17270  Biso   1.000  H
  C89      1.0000 0.11590  0.93320  0.46420  Biso   1.000  C
  H62      1.0000 0.11990  0.98440  0.46360  Biso   1.000  H
  O13      1.0000 0.21710  0.89790  0.69950  Biso   1.000  O
  C90      1.0000 0.19230  0.93040  0.62730  Biso   1.000  C
  O14      1.0000 0.20250  0.00110  0.61350  Biso   1.000  O
  C91      1.0000 0.14230  0.58630  0.46180  Biso   1.000  C
  H63      1.0000 0.17170  0.54420  0.45930  Biso   1.000  H
  N29      1.0000 0.49000  0.51440  0.15430  Biso   1.000  N
  C92      1.0000 0.49350  0.49100  0.32520  Biso   1.000  C
  H64      1.0000 0.50200  0.46830  0.38870  Biso   1.000  H
  N30      1.0000 0.45760  0.55770  0.30950  Biso   1.000  N
  C93      1.0000 0.51390  0.46510  0.23080  Biso   1.000  C
  H65      1.0000 0.53960  0.42160  0.21880  Biso   1.000  H
  N31      1.0000 0.39300  0.79800  0.46000  Biso   1.000  N
  C94      1.0000 0.42320  0.60230  0.38770  Biso   1.000  C
  C95      1.0000 0.34980  0.60820  0.54380  Biso   1.000  C
  N32      1.0000 0.43320  0.91320  0.47520  Biso   1.000  N
  C96      1.0000 0.45270  0.84210  0.47030  Biso   1.000  C
  H66      1.0000 0.50110  0.82510  0.47340  Biso   1.000  H
  C97      1.0000 0.35440  0.68460  0.54100  Biso   1.000  C
  H67      1.0000 0.33230  0.71260  0.59280  Biso   1.000  H
  C98      1.0000 0.33330  0.84390  0.45300  Biso   1.000  C
  H68      1.0000 0.28450  0.82940  0.44370  Biso   1.000  H
  C99      1.0000 0.42830  0.67850  0.38540  Biso   1.000  C
  H69      1.0000 0.45540  0.70230  0.33420  Biso   1.000  H
  C100     1.0000 0.39160  0.71880  0.46190  Biso   1.000  C
  C101     1.0000 0.45660  0.56860  0.20470  Biso   1.000  C
  H70      1.0000 0.43500  0.60920  0.17270  Biso   1.000  H
  C102     1.0000 0.38410  0.56680  0.46420  Biso   1.000  C
  H71      1.0000 0.38010  0.51560  0.46360  Biso   1.000  H
  O15      1.0000 0.28290  0.60210  0.69950  Biso   1.000  O
  C103     1.0000 0.30770  0.56960  0.62730  Biso   1.000  C
  O16      1.0000 0.29750  0.49890  0.61350  Biso   1.000  O
  C104     1.0000 0.35770  0.91370  0.46180  Biso   1.000  C
  H72      1.0000 0.32830  0.95580  0.45930  Biso   1.000  H
  Cu1      1.0000 0.50000  0.00000  0.50000  Biso   1.000  Cu
  Cu2      1.0000 0.00000  0.50000  0.50000  Biso   1.000  Cu
  Cu3      1.0000 0.00000  0.00000  0.00000  Biso   1.000  Cu
  Cu4      1.0000 0.50000  0.50000  0.00000  Biso   1.000  Cu
