data_image0
_cell_length_a       10.893
_cell_length_b       6.618
_cell_length_c       17.337
_cell_angle_alpha    90
_cell_angle_beta     106.885
_cell_angle_gamma    90

_symmetry_space_group_name_H-M    "P 1"
_symmetry_int_tables_number       1

loop_
  _symmetry_equiv_pos_as_xyz
  'x, y, z'

loop_
  _atom_site_label
  _atom_site_occupancy
  _atom_site_fract_x
  _atom_site_fract_y
  _atom_site_fract_z
  _atom_site_thermal_displace_type
  _atom_site_B_iso_or_equiv
  _atom_site_type_symbol
  Mn1      1.0000 0.46859  0.49677  0.08739  Biso   1.000  Mn
  O1       1.0000 0.27340  0.35280  0.03820  Biso   1.000  O
  O2       1.0000 0.34850  0.03850  0.06010  Biso   1.000  O
  O3       1.0000 0.36280  0.14540  0.33810  Biso   1.000  O
  O4       1.0000 0.35990  0.45440  0.38620  Biso   1.000  O
  O5       1.0000 0.56240  0.31270  0.01860  Biso   1.000  O
  H1       1.0000 0.65450  0.31280  0.04670  Biso   1.000  H
  C1       1.0000 0.25740  0.16570  0.04140  Biso   1.000  C
  C2       1.0000 0.12360  0.08180  0.02220  Biso   1.000  C
  C3       1.0000 0.03380  0.15070  0.05990  Biso   1.000  C
  C4       1.0000 0.07210  0.29790  0.12830  Biso   1.000  C
  C5       1.0000 0.17170  0.24730  0.19660  Biso   1.000  C
  H2       1.0000 0.21110  0.12180  0.19900  Biso   1.000  H
  C6       1.0000 0.21350  0.37980  0.26120  Biso   1.000  C
  C7       1.0000 0.15360  0.56850  0.25640  Biso   1.000  C
  H3       1.0000 0.18070  0.65950  0.29890  Biso   1.000  H
  C8       1.0000 0.05440  0.62090  0.18910  Biso   1.000  C
  H4       1.0000 0.01610  0.74740  0.18630  Biso   1.000  H
  C9       1.0000 0.01140  0.48370  0.12520  Biso   1.000  C
  H5       1.0000 0.94250  0.51700  0.08100  Biso   1.000  H
  C10      1.0000 0.32260  0.32200  0.33450  Biso   1.000  C
  C11      1.0000 0.08770  0.93030  0.96330  Biso   1.000  C
  H6       1.0000 0.14810  0.88310  0.93920  Biso   1.000  H
  Mn2      1.0000 0.53141  0.99677  0.41261  Biso   1.000  Mn
  O6       1.0000 0.72660  0.85280  0.46180  Biso   1.000  O
  O7       1.0000 0.65150  0.53850  0.43990  Biso   1.000  O
  O8       1.0000 0.63720  0.64540  0.16190  Biso   1.000  O
  O9       1.0000 0.64010  0.95440  0.11380  Biso   1.000  O
  O10      1.0000 0.43760  0.81270  0.48140  Biso   1.000  O
  H7       1.0000 0.34550  0.81280  0.45330  Biso   1.000  H
  C12      1.0000 0.74260  0.66570  0.45860  Biso   1.000  C
  C13      1.0000 0.87640  0.58180  0.47780  Biso   1.000  C
  C14      1.0000 0.96620  0.65070  0.44010  Biso   1.000  C
  C15      1.0000 0.92790  0.79790  0.37170  Biso   1.000  C
  C16      1.0000 0.82830  0.74730  0.30340  Biso   1.000  C
  H8       1.0000 0.78890  0.62180  0.30100  Biso   1.000  H
  C17      1.0000 0.78650  0.87980  0.23880  Biso   1.000  C
  C18      1.0000 0.84640  0.06850  0.24360  Biso   1.000  C
  H9       1.0000 0.81930  0.15950  0.20110  Biso   1.000  H
  C19      1.0000 0.94560  0.12090  0.31090  Biso   1.000  C
  H10      1.0000 0.98390  0.24740  0.31370  Biso   1.000  H
  C20      1.0000 0.98860  0.98370  0.37480  Biso   1.000  C
  H11      1.0000 0.05750  0.01700  0.41900  Biso   1.000  H
  C21      1.0000 0.67740  0.82200  0.16550  Biso   1.000  C
  C22      1.0000 0.91230  0.43030  0.53670  Biso   1.000  C
  H12      1.0000 0.85190  0.38310  0.56080  Biso   1.000  H
  Mn3      1.0000 0.53141  0.50323  0.91261  Biso   1.000  Mn
  O11      1.0000 0.72660  0.64720  0.96180  Biso   1.000  O
  O12      1.0000 0.65150  0.96150  0.93990  Biso   1.000  O
  O13      1.0000 0.63720  0.85460  0.66190  Biso   1.000  O
  O14      1.0000 0.64010  0.54560  0.61380  Biso   1.000  O
  O15      1.0000 0.43760  0.68730  0.98140  Biso   1.000  O
  H13      1.0000 0.34550  0.68720  0.95330  Biso   1.000  H
  C23      1.0000 0.74260  0.83430  0.95860  Biso   1.000  C
  C24      1.0000 0.87640  0.91820  0.97780  Biso   1.000  C
  C25      1.0000 0.96620  0.84930  0.94010  Biso   1.000  C
  C26      1.0000 0.92790  0.70210  0.87170  Biso   1.000  C
  C27      1.0000 0.82830  0.75270  0.80340  Biso   1.000  C
  H14      1.0000 0.78890  0.87820  0.80100  Biso   1.000  H
  C28      1.0000 0.78650  0.62020  0.73880  Biso   1.000  C
  C29      1.0000 0.84640  0.43150  0.74360  Biso   1.000  C
  H15      1.0000 0.81930  0.34050  0.70110  Biso   1.000  H
  C30      1.0000 0.94560  0.37910  0.81090  Biso   1.000  C
  H16      1.0000 0.98390  0.25260  0.81370  Biso   1.000  H
  C31      1.0000 0.98860  0.51630  0.87480  Biso   1.000  C
  H17      1.0000 0.05750  0.48300  0.91900  Biso   1.000  H
  C32      1.0000 0.67740  0.67800  0.66550  Biso   1.000  C
  C33      1.0000 0.91230  0.06970  0.03670  Biso   1.000  C
  H18      1.0000 0.85190  0.11690  0.06080  Biso   1.000  H
  Mn4      1.0000 0.46859  0.00323  0.58739  Biso   1.000  Mn
  O16      1.0000 0.27340  0.14720  0.53820  Biso   1.000  O
  O17      1.0000 0.34850  0.46150  0.56010  Biso   1.000  O
  O18      1.0000 0.36280  0.35460  0.83810  Biso   1.000  O
  O19      1.0000 0.35990  0.04560  0.88620  Biso   1.000  O
  O20      1.0000 0.56240  0.18730  0.51860  Biso   1.000  O
  H19      1.0000 0.65450  0.18720  0.54670  Biso   1.000  H
  C34      1.0000 0.25740  0.33430  0.54140  Biso   1.000  C
  C35      1.0000 0.12360  0.41820  0.52220  Biso   1.000  C
  C36      1.0000 0.03380  0.34930  0.55990  Biso   1.000  C
  C37      1.0000 0.07210  0.20210  0.62830  Biso   1.000  C
  C38      1.0000 0.17170  0.25270  0.69660  Biso   1.000  C
  H20      1.0000 0.21110  0.37820  0.69900  Biso   1.000  H
  C39      1.0000 0.21350  0.12020  0.76120  Biso   1.000  C
  C40      1.0000 0.15360  0.93150  0.75640  Biso   1.000  C
  H21      1.0000 0.18070  0.84050  0.79890  Biso   1.000  H
  C41      1.0000 0.05440  0.87910  0.68910  Biso   1.000  C
  H22      1.0000 0.01610  0.75260  0.68630  Biso   1.000  H
  C42      1.0000 0.01140  0.01630  0.62520  Biso   1.000  C
  H23      1.0000 0.94250  0.98300  0.58100  Biso   1.000  H
  C43      1.0000 0.32260  0.17800  0.83450  Biso   1.000  C
  C44      1.0000 0.08770  0.56970  0.46330  Biso   1.000  C
  H24      1.0000 0.14810  0.61690  0.43920  Biso   1.000  H
  Mn5      1.0000 0.50000  0.00000  0.00000  Biso   1.000  Mn
  Mn6      1.0000 0.50000  0.50000  0.50000  Biso   1.000  Mn
