data_image0
_cell_length_a       17.6956
_cell_length_b       6.8745
_cell_length_c       11.9303
_cell_angle_alpha    90
_cell_angle_beta     90
_cell_angle_gamma    90

_symmetry_space_group_name_H-M    "P 1"
_symmetry_int_tables_number       1

loop_
  _symmetry_equiv_pos_as_xyz
  'x, y, z'

loop_
  _atom_site_label
  _atom_site_occupancy
  _atom_site_fract_x
  _atom_site_fract_y
  _atom_site_fract_z
  _atom_site_thermal_displace_type
  _atom_site_B_iso_or_equiv
  _atom_site_type_symbol
  O1       1.0000 0.07407  0.08640  0.88310  Biso   1.000  O
  O2       1.0000 0.41147  0.08590  0.59100  Biso   1.000  O
  C1       1.0000 0.20680  0.07430  0.76060  Biso   1.000  C
  C2       1.0000 0.27430  0.07430  0.70290  Biso   1.000  C
  O3       1.0000 0.42593  0.91360  0.38310  Biso   1.000  O
  O4       1.0000 0.08853  0.91410  0.09100  Biso   1.000  O
  C3       1.0000 0.29320  0.92570  0.26060  Biso   1.000  C
  C4       1.0000 0.22570  0.92570  0.20290  Biso   1.000  C
  O5       1.0000 0.92593  0.58640  0.11690  Biso   1.000  O
  O6       1.0000 0.58853  0.58590  0.40900  Biso   1.000  O
  C5       1.0000 0.79320  0.57430  0.23940  Biso   1.000  C
  C6       1.0000 0.72570  0.57430  0.29710  Biso   1.000  C
  O7       1.0000 0.57407  0.41360  0.61690  Biso   1.000  O
  O8       1.0000 0.91147  0.41410  0.90900  Biso   1.000  O
  C7       1.0000 0.70680  0.42570  0.73940  Biso   1.000  C
  C8       1.0000 0.77430  0.42570  0.79710  Biso   1.000  C
  O9       1.0000 0.92593  0.91360  0.11690  Biso   1.000  O
  O10      1.0000 0.58853  0.91410  0.40900  Biso   1.000  O
  C9       1.0000 0.79320  0.92570  0.23940  Biso   1.000  C
  C10      1.0000 0.72570  0.92570  0.29710  Biso   1.000  C
  O11      1.0000 0.57407  0.08640  0.61690  Biso   1.000  O
  O12      1.0000 0.91147  0.08590  0.90900  Biso   1.000  O
  C11      1.0000 0.70680  0.07430  0.73940  Biso   1.000  C
  C12      1.0000 0.77430  0.07430  0.79710  Biso   1.000  C
  O13      1.0000 0.07407  0.41360  0.88310  Biso   1.000  O
  O14      1.0000 0.41147  0.41410  0.59100  Biso   1.000  O
  C13      1.0000 0.20680  0.42570  0.76060  Biso   1.000  C
  C14      1.0000 0.27430  0.42570  0.70290  Biso   1.000  C
  O15      1.0000 0.42593  0.58640  0.38310  Biso   1.000  O
  O16      1.0000 0.08853  0.58590  0.09100  Biso   1.000  O
  C15      1.0000 0.29320  0.57430  0.26060  Biso   1.000  C
  C16      1.0000 0.22570  0.57430  0.20290  Biso   1.000  C
  V1       1.0000 0.00000  0.00000  0.00000  Biso   1.000  V
  V2       1.0000 0.50000  0.00000  0.50000  Biso   1.000  V
  V3       1.0000 0.00000  0.50000  0.00000  Biso   1.000  V
  V4       1.0000 0.50000  0.50000  0.50000  Biso   1.000  V
  O17      1.0000 0.00640  0.25000  0.07380  Biso   1.000  O
  C17      1.0000 0.10090  0.25000  0.85710  Biso   1.000  C
  C18      1.0000 0.17260  0.25000  0.78960  Biso   1.000  C
  C19      1.0000 0.30830  0.25000  0.67470  Biso   1.000  C
  C20      1.0000 0.38360  0.25000  0.61360  Biso   1.000  C
  O18      1.0000 0.49360  0.75000  0.57380  Biso   1.000  O
  C21      1.0000 0.39910  0.75000  0.35710  Biso   1.000  C
  C22      1.0000 0.32740  0.75000  0.28960  Biso   1.000  C
  C23      1.0000 0.19170  0.75000  0.17470  Biso   1.000  C
  C24      1.0000 0.11640  0.75000  0.11360  Biso   1.000  C
  O19      1.0000 0.99360  0.75000  0.92620  Biso   1.000  O
  C25      1.0000 0.89910  0.75000  0.14290  Biso   1.000  C
  C26      1.0000 0.82740  0.75000  0.21040  Biso   1.000  C
  C27      1.0000 0.69170  0.75000  0.32530  Biso   1.000  C
  C28      1.0000 0.61640  0.75000  0.38640  Biso   1.000  C
  O20      1.0000 0.50640  0.25000  0.42620  Biso   1.000  O
  C29      1.0000 0.60090  0.25000  0.64290  Biso   1.000  C
  C30      1.0000 0.67260  0.25000  0.71040  Biso   1.000  C
  C31      1.0000 0.80830  0.25000  0.82530  Biso   1.000  C
  C32      1.0000 0.88360  0.25000  0.88640  Biso   1.000  C
