data_image0
_cell_length_a       18.5185
_cell_length_b       18.5185
_cell_length_c       19.1215
_cell_angle_alpha    90
_cell_angle_beta     90
_cell_angle_gamma    120

_symmetry_space_group_name_H-M    "P 1"
_symmetry_int_tables_number       1

loop_
  _symmetry_equiv_pos_as_xyz
  'x, y, z'

loop_
  _atom_site_label
  _atom_site_occupancy
  _atom_site_fract_x
  _atom_site_fract_y
  _atom_site_fract_z
  _atom_site_thermal_displace_type
  _atom_site_B_iso_or_equiv
  _atom_site_type_symbol
  O1       1.0000 0.43949  0.02918  0.08988  Biso   1.000  O
  O2       1.0000 0.48069  0.10963  0.99466  Biso   1.000  O
  C1       1.0000 0.36440  0.11790  0.14211  Biso   1.000  C
  H1       1.0000 0.34690  0.06460  0.16190  Biso   1.000  H
  H2       1.0000 0.16390  0.16550  0.20820  Biso   1.000  H
  C2       1.0000 0.41790  0.14437  0.08494  Biso   1.000  C
  C3       1.0000 0.44850  0.09000  0.05402  Biso   1.000  C
  O3       1.0000 0.97082  0.41031  0.08988  Biso   1.000  O
  O4       1.0000 0.89037  0.37106  0.99466  Biso   1.000  O
  C4       1.0000 0.88210  0.24650  0.14211  Biso   1.000  C
  H3       1.0000 0.93540  0.28230  0.16190  Biso   1.000  H
  H4       1.0000 0.83450  0.99840  0.20820  Biso   1.000  H
  C5       1.0000 0.85563  0.27353  0.08494  Biso   1.000  C
  C6       1.0000 0.91000  0.35850  0.05402  Biso   1.000  C
  O5       1.0000 0.58969  0.56051  0.08988  Biso   1.000  O
  O6       1.0000 0.62894  0.51931  0.99466  Biso   1.000  O
  C7       1.0000 0.75350  0.63560  0.14211  Biso   1.000  C
  H5       1.0000 0.71770  0.65310  0.16190  Biso   1.000  H
  H6       1.0000 0.00160  0.83610  0.20820  Biso   1.000  H
  C8       1.0000 0.72647  0.58210  0.08494  Biso   1.000  C
  C9       1.0000 0.64150  0.55150  0.05402  Biso   1.000  C
  O7       1.0000 0.56051  0.97082  0.58988  Biso   1.000  O
  O8       1.0000 0.51931  0.89037  0.49466  Biso   1.000  O
  C10      1.0000 0.63560  0.88210  0.64211  Biso   1.000  C
  H7       1.0000 0.65310  0.93540  0.66190  Biso   1.000  H
  H8       1.0000 0.83610  0.83450  0.70820  Biso   1.000  H
  C11      1.0000 0.58210  0.85563  0.58494  Biso   1.000  C
  C12      1.0000 0.55150  0.91000  0.55402  Biso   1.000  C
  O9       1.0000 0.02918  0.58969  0.58988  Biso   1.000  O
  O10      1.0000 0.10963  0.62894  0.49466  Biso   1.000  O
  C13      1.0000 0.11790  0.75350  0.64211  Biso   1.000  C
  H9       1.0000 0.06460  0.71770  0.66190  Biso   1.000  H
  H10      1.0000 0.16550  0.00160  0.70820  Biso   1.000  H
  C14      1.0000 0.14437  0.72647  0.58494  Biso   1.000  C
  C15      1.0000 0.09000  0.64150  0.55402  Biso   1.000  C
  O11      1.0000 0.41031  0.43949  0.58988  Biso   1.000  O
  O12      1.0000 0.37106  0.48069  0.49466  Biso   1.000  O
  C16      1.0000 0.24650  0.36440  0.64211  Biso   1.000  C
  H11      1.0000 0.28230  0.34690  0.66190  Biso   1.000  H
  H12      1.0000 0.99840  0.16390  0.70820  Biso   1.000  H
  C17      1.0000 0.27353  0.41790  0.58494  Biso   1.000  C
  C18      1.0000 0.35850  0.44850  0.55402  Biso   1.000  C
  O13      1.0000 0.02918  0.43949  0.91012  Biso   1.000  O
  O14      1.0000 0.10963  0.48069  0.00534  Biso   1.000  O
  C19      1.0000 0.11790  0.36440  0.85789  Biso   1.000  C
  H13      1.0000 0.06460  0.34690  0.83810  Biso   1.000  H
  H14      1.0000 0.16550  0.16390  0.79180  Biso   1.000  H
  C20      1.0000 0.14437  0.41790  0.91506  Biso   1.000  C
  C21      1.0000 0.09000  0.44850  0.94598  Biso   1.000  C
  O15      1.0000 0.41031  0.97082  0.91012  Biso   1.000  O
  O16      1.0000 0.37106  0.89037  0.00534  Biso   1.000  O
  C22      1.0000 0.24650  0.88210  0.85789  Biso   1.000  C
  H15      1.0000 0.28230  0.93540  0.83810  Biso   1.000  H
  H16      1.0000 0.99840  0.83450  0.79180  Biso   1.000  H
  C23      1.0000 0.27353  0.85563  0.91506  Biso   1.000  C
  C24      1.0000 0.35850  0.91000  0.94598  Biso   1.000  C
  O17      1.0000 0.56051  0.58969  0.91012  Biso   1.000  O
  O18      1.0000 0.51931  0.62894  0.00534  Biso   1.000  O
  C25      1.0000 0.63560  0.75350  0.85789  Biso   1.000  C
  H17      1.0000 0.65310  0.71770  0.83810  Biso   1.000  H
  H18      1.0000 0.83610  0.00160  0.79180  Biso   1.000  H
  C26      1.0000 0.58210  0.72647  0.91506  Biso   1.000  C
  C27      1.0000 0.55150  0.64150  0.94598  Biso   1.000  C
  O19      1.0000 0.97082  0.56051  0.41012  Biso   1.000  O
  O20      1.0000 0.89037  0.51931  0.50534  Biso   1.000  O
  C28      1.0000 0.88210  0.63560  0.35789  Biso   1.000  C
  H19      1.0000 0.93540  0.65310  0.33810  Biso   1.000  H
  H20      1.0000 0.83450  0.83610  0.29180  Biso   1.000  H
  C29      1.0000 0.85563  0.58210  0.41506  Biso   1.000  C
  C30      1.0000 0.91000  0.55150  0.44598  Biso   1.000  C
  O21      1.0000 0.58969  0.02918  0.41012  Biso   1.000  O
  O22      1.0000 0.62894  0.10963  0.50534  Biso   1.000  O
  C31      1.0000 0.75350  0.11790  0.35789  Biso   1.000  C
  H21      1.0000 0.71770  0.06460  0.33810  Biso   1.000  H
  H22      1.0000 0.00160  0.16550  0.29180  Biso   1.000  H
  C32      1.0000 0.72647  0.14437  0.41506  Biso   1.000  C
  C33      1.0000 0.64150  0.09000  0.44598  Biso   1.000  C
  O23      1.0000 0.43949  0.41031  0.41012  Biso   1.000  O
  O24      1.0000 0.48069  0.37106  0.50534  Biso   1.000  O
  C34      1.0000 0.36440  0.24650  0.35789  Biso   1.000  C
  H23      1.0000 0.34690  0.28230  0.33810  Biso   1.000  H
  H24      1.0000 0.16390  0.99840  0.29180  Biso   1.000  H
  C35      1.0000 0.41790  0.27353  0.41506  Biso   1.000  C
  C36      1.0000 0.44850  0.35850  0.44598  Biso   1.000  C
  O25      1.0000 0.56051  0.97082  0.91012  Biso   1.000  O
  O26      1.0000 0.51931  0.89037  0.00534  Biso   1.000  O
  C37      1.0000 0.63560  0.88210  0.85789  Biso   1.000  C
  H25      1.0000 0.65310  0.93540  0.83810  Biso   1.000  H
  H26      1.0000 0.83610  0.83450  0.79180  Biso   1.000  H
  C38      1.0000 0.58210  0.85563  0.91506  Biso   1.000  C
  C39      1.0000 0.55150  0.91000  0.94598  Biso   1.000  C
  O27      1.0000 0.02918  0.58969  0.91012  Biso   1.000  O
  O28      1.0000 0.10963  0.62894  0.00534  Biso   1.000  O
  C40      1.0000 0.11790  0.75350  0.85789  Biso   1.000  C
  H27      1.0000 0.06460  0.71770  0.83810  Biso   1.000  H
  H28      1.0000 0.16550  0.00160  0.79180  Biso   1.000  H
  C41      1.0000 0.14437  0.72647  0.91506  Biso   1.000  C
  C42      1.0000 0.09000  0.64150  0.94598  Biso   1.000  C
  O29      1.0000 0.41031  0.43949  0.91012  Biso   1.000  O
  O30      1.0000 0.37106  0.48069  0.00534  Biso   1.000  O
  C43      1.0000 0.24650  0.36440  0.85789  Biso   1.000  C
  H29      1.0000 0.28230  0.34690  0.83810  Biso   1.000  H
  H30      1.0000 0.99840  0.16390  0.79180  Biso   1.000  H
  C44      1.0000 0.27353  0.41790  0.91506  Biso   1.000  C
  C45      1.0000 0.35850  0.44850  0.94598  Biso   1.000  C
  O31      1.0000 0.43949  0.02918  0.41012  Biso   1.000  O
  O32      1.0000 0.48069  0.10963  0.50534  Biso   1.000  O
  C46      1.0000 0.36440  0.11790  0.35789  Biso   1.000  C
  H31      1.0000 0.34690  0.06460  0.33810  Biso   1.000  H
  H32      1.0000 0.16390  0.16550  0.29180  Biso   1.000  H
  C47      1.0000 0.41790  0.14437  0.41506  Biso   1.000  C
  C48      1.0000 0.44850  0.09000  0.44598  Biso   1.000  C
  O33      1.0000 0.97082  0.41031  0.41012  Biso   1.000  O
  O34      1.0000 0.89037  0.37106  0.50534  Biso   1.000  O
  C49      1.0000 0.88210  0.24650  0.35789  Biso   1.000  C
  H33      1.0000 0.93540  0.28230  0.33810  Biso   1.000  H
  H34      1.0000 0.83450  0.99840  0.29180  Biso   1.000  H
  C50      1.0000 0.85563  0.27353  0.41506  Biso   1.000  C
  C51      1.0000 0.91000  0.35850  0.44598  Biso   1.000  C
  O35      1.0000 0.58969  0.56051  0.41012  Biso   1.000  O
  O36      1.0000 0.62894  0.51931  0.50534  Biso   1.000  O
  C52      1.0000 0.75350  0.63560  0.35789  Biso   1.000  C
  H35      1.0000 0.71770  0.65310  0.33810  Biso   1.000  H
  H36      1.0000 0.00160  0.83610  0.29180  Biso   1.000  H
  C53      1.0000 0.72647  0.58210  0.41506  Biso   1.000  C
  C54      1.0000 0.64150  0.55150  0.44598  Biso   1.000  C
  O37      1.0000 0.97082  0.56051  0.08988  Biso   1.000  O
  O38      1.0000 0.89037  0.51931  0.99466  Biso   1.000  O
  C55      1.0000 0.88210  0.63560  0.14211  Biso   1.000  C
  H37      1.0000 0.93540  0.65310  0.16190  Biso   1.000  H
  H38      1.0000 0.83450  0.83610  0.20820  Biso   1.000  H
  C56      1.0000 0.85563  0.58210  0.08494  Biso   1.000  C
  C57      1.0000 0.91000  0.55150  0.05402  Biso   1.000  C
  O39      1.0000 0.58969  0.02918  0.08988  Biso   1.000  O
  O40      1.0000 0.62894  0.10963  0.99466  Biso   1.000  O
  C58      1.0000 0.75350  0.11790  0.14211  Biso   1.000  C
  H39      1.0000 0.71770  0.06460  0.16190  Biso   1.000  H
  H40      1.0000 0.00160  0.16550  0.20820  Biso   1.000  H
  C59      1.0000 0.72647  0.14437  0.08494  Biso   1.000  C
  C60      1.0000 0.64150  0.09000  0.05402  Biso   1.000  C
  O41      1.0000 0.43949  0.41031  0.08988  Biso   1.000  O
  O42      1.0000 0.48069  0.37106  0.99466  Biso   1.000  O
  C61      1.0000 0.36440  0.24650  0.14211  Biso   1.000  C
  H41      1.0000 0.34690  0.28230  0.16190  Biso   1.000  H
  H42      1.0000 0.16390  0.99840  0.20820  Biso   1.000  H
  C62      1.0000 0.41790  0.27353  0.08494  Biso   1.000  C
  C63      1.0000 0.44850  0.35850  0.05402  Biso   1.000  C
  O43      1.0000 0.02918  0.43949  0.58988  Biso   1.000  O
  O44      1.0000 0.10963  0.48069  0.49466  Biso   1.000  O
  C64      1.0000 0.11790  0.36440  0.64211  Biso   1.000  C
  H43      1.0000 0.06460  0.34690  0.66190  Biso   1.000  H
  H44      1.0000 0.16550  0.16390  0.70820  Biso   1.000  H
  C65      1.0000 0.14437  0.41790  0.58494  Biso   1.000  C
  C66      1.0000 0.09000  0.44850  0.55402  Biso   1.000  C
  O45      1.0000 0.41031  0.97082  0.58988  Biso   1.000  O
  O46      1.0000 0.37106  0.89037  0.49466  Biso   1.000  O
  C67      1.0000 0.24650  0.88210  0.64211  Biso   1.000  C
  H45      1.0000 0.28230  0.93540  0.66190  Biso   1.000  H
  H46      1.0000 0.99840  0.83450  0.70820  Biso   1.000  H
  C68      1.0000 0.27353  0.85563  0.58494  Biso   1.000  C
  C69      1.0000 0.35850  0.91000  0.55402  Biso   1.000  C
  O47      1.0000 0.56051  0.58969  0.58988  Biso   1.000  O
  O48      1.0000 0.51931  0.62894  0.49466  Biso   1.000  O
  C70      1.0000 0.63560  0.75350  0.64211  Biso   1.000  C
  H47      1.0000 0.65310  0.71770  0.66190  Biso   1.000  H
  H48      1.0000 0.83610  0.00160  0.70820  Biso   1.000  H
  C71      1.0000 0.58210  0.72647  0.58494  Biso   1.000  C
  C72      1.0000 0.55150  0.64150  0.55402  Biso   1.000  C
  Cu1      1.0000 0.47642  0.95284  0.05626  Biso   1.000  Cu
  Cu2      1.0000 0.04716  0.52358  0.05626  Biso   1.000  Cu
  Cu3      1.0000 0.47642  0.52358  0.05626  Biso   1.000  Cu
  Cu4      1.0000 0.52358  0.04716  0.55626  Biso   1.000  Cu
  Cu5      1.0000 0.95284  0.47642  0.55626  Biso   1.000  Cu
  Cu6      1.0000 0.52358  0.47642  0.55626  Biso   1.000  Cu
  Cu7      1.0000 0.95284  0.47642  0.94374  Biso   1.000  Cu
  Cu8      1.0000 0.52358  0.04716  0.94374  Biso   1.000  Cu
  Cu9      1.0000 0.52358  0.47642  0.94374  Biso   1.000  Cu
  Cu10     1.0000 0.04716  0.52358  0.44374  Biso   1.000  Cu
  Cu11     1.0000 0.47642  0.95284  0.44374  Biso   1.000  Cu
  Cu12     1.0000 0.47642  0.52358  0.44374  Biso   1.000  Cu
  Si1      1.0000 0.26565  0.13283  0.25000  Biso   1.000  Si
  Si2      1.0000 0.86718  0.13282  0.25000  Biso   1.000  Si
  Si3      1.0000 0.86718  0.73435  0.25000  Biso   1.000  Si
  Si4      1.0000 0.73435  0.86718  0.75000  Biso   1.000  Si
  Si5      1.0000 0.13283  0.86718  0.75000  Biso   1.000  Si
  Si6      1.0000 0.13283  0.26565  0.75000  Biso   1.000  Si
  C73      1.0000 0.33600  0.16800  0.17090  Biso   1.000  C
  C74      1.0000 0.44290  0.22145  0.05610  Biso   1.000  C
  H49      1.0000 0.47760  0.23880  0.01590  Biso   1.000  H
  C75      1.0000 0.83200  0.16800  0.17090  Biso   1.000  C
  C76      1.0000 0.77855  0.22145  0.05610  Biso   1.000  C
  H50      1.0000 0.76120  0.23880  0.01590  Biso   1.000  H
  C77      1.0000 0.83200  0.66400  0.17090  Biso   1.000  C
  C78      1.0000 0.77855  0.55710  0.05610  Biso   1.000  C
  H51      1.0000 0.76120  0.52240  0.01590  Biso   1.000  H
  C79      1.0000 0.66400  0.83200  0.67090  Biso   1.000  C
  C80      1.0000 0.55710  0.77855  0.55610  Biso   1.000  C
  H52      1.0000 0.52240  0.76120  0.51590  Biso   1.000  H
  C81      1.0000 0.16800  0.83200  0.67090  Biso   1.000  C
  C82      1.0000 0.22145  0.77855  0.55610  Biso   1.000  C
  H53      1.0000 0.23880  0.76120  0.51590  Biso   1.000  H
  C83      1.0000 0.16800  0.33600  0.67090  Biso   1.000  C
  C84      1.0000 0.22145  0.44290  0.55610  Biso   1.000  C
  H54      1.0000 0.23880  0.47760  0.51590  Biso   1.000  H
  C85      1.0000 0.16800  0.33600  0.82910  Biso   1.000  C
  C86      1.0000 0.22145  0.44290  0.94390  Biso   1.000  C
  H55      1.0000 0.23880  0.47760  0.98410  Biso   1.000  H
  C87      1.0000 0.16800  0.83200  0.82910  Biso   1.000  C
  C88      1.0000 0.22145  0.77855  0.94390  Biso   1.000  C
  H56      1.0000 0.23880  0.76120  0.98410  Biso   1.000  H
  C89      1.0000 0.66400  0.83200  0.82910  Biso   1.000  C
  C90      1.0000 0.55710  0.77855  0.94390  Biso   1.000  C
  H57      1.0000 0.52240  0.76120  0.98410  Biso   1.000  H
  C91      1.0000 0.83200  0.66400  0.32910  Biso   1.000  C
  C92      1.0000 0.77855  0.55710  0.44390  Biso   1.000  C
  H58      1.0000 0.76120  0.52240  0.48410  Biso   1.000  H
  C93      1.0000 0.83200  0.16800  0.32910  Biso   1.000  C
  C94      1.0000 0.77855  0.22145  0.44390  Biso   1.000  C
  H59      1.0000 0.76120  0.23880  0.48410  Biso   1.000  H
  C95      1.0000 0.33600  0.16800  0.32910  Biso   1.000  C
  C96      1.0000 0.44290  0.22145  0.44390  Biso   1.000  C
  H60      1.0000 0.47760  0.23880  0.48410  Biso   1.000  H
  C97      1.0000 0.19920  0.18280  0.25000  Biso   1.000  C
  H61      1.0000 0.23490  0.24360  0.25000  Biso   1.000  H
  C98      1.0000 0.81720  0.01640  0.25000  Biso   1.000  C
  H62      1.0000 0.75640  0.99130  0.25000  Biso   1.000  H
  C99      1.0000 0.98360  0.80080  0.25000  Biso   1.000  C
  H63      1.0000 0.00870  0.76510  0.25000  Biso   1.000  H
  C100     1.0000 0.80080  0.81720  0.75000  Biso   1.000  C
  H64      1.0000 0.76510  0.75640  0.75000  Biso   1.000  H
  C101     1.0000 0.18280  0.98360  0.75000  Biso   1.000  C
  H65      1.0000 0.24360  0.00870  0.75000  Biso   1.000  H
  C102     1.0000 0.01640  0.19920  0.75000  Biso   1.000  C
  H66      1.0000 0.99130  0.23490  0.75000  Biso   1.000  H
  C103     1.0000 0.18280  0.19920  0.75000  Biso   1.000  C
  H67      1.0000 0.24360  0.23490  0.75000  Biso   1.000  H
  C104     1.0000 0.01640  0.81720  0.75000  Biso   1.000  C
  H68      1.0000 0.99130  0.75640  0.75000  Biso   1.000  H
  C105     1.0000 0.80080  0.98360  0.75000  Biso   1.000  C
  H69      1.0000 0.76510  0.00870  0.75000  Biso   1.000  H
  C106     1.0000 0.81720  0.80080  0.25000  Biso   1.000  C
  H70      1.0000 0.75640  0.76510  0.25000  Biso   1.000  H
  C107     1.0000 0.98360  0.18280  0.25000  Biso   1.000  C
  H71      1.0000 0.00870  0.24360  0.25000  Biso   1.000  H
  C108     1.0000 0.19920  0.01640  0.25000  Biso   1.000  C
  H72      1.0000 0.23490  0.99130  0.25000  Biso   1.000  H
