data_image0
_cell_length_a       8.9836
_cell_length_b       10.5918
_cell_length_c       32.7196
_cell_angle_alpha    90
_cell_angle_beta     90
_cell_angle_gamma    90

_symmetry_space_group_name_H-M    "P 1"
_symmetry_int_tables_number       1

loop_
  _symmetry_equiv_pos_as_xyz
  'x, y, z'

loop_
  _atom_site_label
  _atom_site_occupancy
  _atom_site_fract_x
  _atom_site_fract_y
  _atom_site_fract_z
  _atom_site_thermal_displace_type
  _atom_site_B_iso_or_equiv
  _atom_site_type_symbol
  Ca1      1.0000 0.45425  0.90115  0.24889  Biso   1.000  Ca
  O1       1.0000 0.51320  0.75130  0.20010  Biso   1.000  O
  O2       1.0000 0.58410  0.55070  0.20104  Biso   1.000  O
  O3       1.0000 0.98950  0.44480  0.79940  Biso   1.000  O
  O4       1.0000 0.07970  0.25100  0.79760  Biso   1.000  O
  C1       1.0000 0.51120  0.64230  0.18640  Biso   1.000  C
  C2       1.0000 0.42150  0.62110  0.14850  Biso   1.000  C
  C3       1.0000 0.40750  0.49890  0.13210  Biso   1.000  C
  H1       1.0000 0.45620  0.43000  0.14490  Biso   1.000  H
  C4       1.0000 0.32290  0.47820  0.09710  Biso   1.000  C
  H2       1.0000 0.31630  0.39560  0.08590  Biso   1.000  H
  C5       1.0000 0.24890  0.57610  0.07850  Biso   1.000  C
  C6       1.0000 0.25920  0.69590  0.09570  Biso   1.000  C
  H3       1.0000 0.20580  0.76380  0.08360  Biso   1.000  H
  C7       1.0000 0.34460  0.71810  0.12970  Biso   1.000  C
  H4       1.0000 0.35110  0.80130  0.14040  Biso   1.000  H
  C8       1.0000 0.15120  0.55570  0.04200  Biso   1.000  C
  C9       1.0000 0.98910  0.58760  0.04730  Biso   1.000  C
  C10      1.0000 0.90480  0.63720  0.01640  Biso   1.000  C
  H5       1.0000 0.95010  0.65650  0.99100  Biso   1.000  H
  C11      1.0000 0.75400  0.65970  0.02190  Biso   1.000  C
  H6       1.0000 0.69630  0.69270  0.00000  Biso   1.000  H
  C12      1.0000 0.68820  0.63470  0.05860  Biso   1.000  C
  H7       1.0000 0.58520  0.65180  0.06220  Biso   1.000  H
  C13      1.0000 0.76830  0.58590  0.08960  Biso   1.000  C
  H8       1.0000 0.72180  0.56910  0.11520  Biso   1.000  H
  C14      1.0000 0.92100  0.55970  0.08430  Biso   1.000  C
  H9       1.0000 0.97700  0.52320  0.10590  Biso   1.000  H
  C15      1.0000 0.20310  0.51340  0.00630  Biso   1.000  C
  H10      1.0000 0.13240  0.49930  0.98530  Biso   1.000  H
  C16      1.0000 0.35780  0.48700  0.99690  Biso   1.000  C
  H11      1.0000 0.42840  0.50060  0.01800  Biso   1.000  H
  C17      1.0000 0.41080  0.44480  0.96060  Biso   1.000  C
  C18      1.0000 0.57190  0.41970  0.95470  Biso   1.000  C
  C19      1.0000 0.65810  0.36660  0.98510  Biso   1.000  C
  H12      1.0000 0.61430  0.34630  0.01070  Biso   1.000  H
  C20      1.0000 0.81140  0.34210  0.97850  Biso   1.000  C
  H13      1.0000 0.87080  0.30710  0.99970  Biso   1.000  H
  C21      1.0000 0.87240  0.36910  0.94170  Biso   1.000  C
  H14      1.0000 0.97510  0.35310  0.93710  Biso   1.000  H
  C22      1.0000 0.78660  0.42000  0.91040  Biso   1.000  C
  H15      1.0000 0.82950  0.43890  0.88460  Biso   1.000  H
  C23      1.0000 0.63800  0.44240  0.91770  Biso   1.000  C
  H16      1.0000 0.57860  0.47510  0.89610  Biso   1.000  H
  C24      1.0000 0.31310  0.42260  0.92460  Biso   1.000  C
  C25      1.0000 0.29890  0.30090  0.90820  Biso   1.000  C
  H17      1.0000 0.34550  0.23150  0.92140  Biso   1.000  H
  C26      1.0000 0.21740  0.28160  0.87300  Biso   1.000  C
  H18      1.0000 0.20910  0.19860  0.86220  Biso   1.000  H
  C27      1.0000 0.14760  0.38040  0.85310  Biso   1.000  C
  C28      1.0000 0.15870  0.49940  0.86950  Biso   1.000  C
  H19      1.0000 0.11160  0.56830  0.85610  Biso   1.000  H
  C29      1.0000 0.23800  0.52060  0.90530  Biso   1.000  C
  H20      1.0000 0.24080  0.60300  0.91680  Biso   1.000  H
  C30      1.0000 0.06360  0.35870  0.81350  Biso   1.000  C
  Ca2      1.0000 0.04575  0.09885  0.74889  Biso   1.000  Ca
  O5       1.0000 0.98680  0.24870  0.70010  Biso   1.000  O
  O6       1.0000 0.91590  0.44930  0.70104  Biso   1.000  O
  O7       1.0000 0.51050  0.55520  0.29940  Biso   1.000  O
  O8       1.0000 0.42030  0.74900  0.29760  Biso   1.000  O
  C31      1.0000 0.98880  0.35770  0.68640  Biso   1.000  C
  C32      1.0000 0.07850  0.37890  0.64850  Biso   1.000  C
  C33      1.0000 0.09250  0.50110  0.63210  Biso   1.000  C
  H21      1.0000 0.04380  0.57000  0.64490  Biso   1.000  H
  C34      1.0000 0.17710  0.52180  0.59710  Biso   1.000  C
  H22      1.0000 0.18370  0.60440  0.58590  Biso   1.000  H
  C35      1.0000 0.25110  0.42390  0.57850  Biso   1.000  C
  C36      1.0000 0.24080  0.30410  0.59570  Biso   1.000  C
  H23      1.0000 0.29420  0.23620  0.58360  Biso   1.000  H
  C37      1.0000 0.15540  0.28190  0.62970  Biso   1.000  C
  H24      1.0000 0.14890  0.19870  0.64040  Biso   1.000  H
  C38      1.0000 0.34880  0.44430  0.54200  Biso   1.000  C
  C39      1.0000 0.51090  0.41240  0.54730  Biso   1.000  C
  C40      1.0000 0.59520  0.36280  0.51640  Biso   1.000  C
  H25      1.0000 0.54990  0.34350  0.49100  Biso   1.000  H
  C41      1.0000 0.74600  0.34030  0.52190  Biso   1.000  C
  H26      1.0000 0.80370  0.30730  0.50000  Biso   1.000  H
  C42      1.0000 0.81180  0.36530  0.55860  Biso   1.000  C
  H27      1.0000 0.91480  0.34820  0.56220  Biso   1.000  H
  C43      1.0000 0.73170  0.41410  0.58960  Biso   1.000  C
  H28      1.0000 0.77820  0.43090  0.61520  Biso   1.000  H
  C44      1.0000 0.57900  0.44030  0.58430  Biso   1.000  C
  H29      1.0000 0.52300  0.47680  0.60590  Biso   1.000  H
  C45      1.0000 0.29690  0.48660  0.50630  Biso   1.000  C
  H30      1.0000 0.36760  0.50070  0.48530  Biso   1.000  H
  C46      1.0000 0.14220  0.51300  0.49690  Biso   1.000  C
  H31      1.0000 0.07160  0.49940  0.51800  Biso   1.000  H
  C47      1.0000 0.08920  0.55520  0.46060  Biso   1.000  C
  C48      1.0000 0.92810  0.58030  0.45470  Biso   1.000  C
  C49      1.0000 0.84190  0.63340  0.48510  Biso   1.000  C
  H32      1.0000 0.88570  0.65370  0.51070  Biso   1.000  H
  C50      1.0000 0.68860  0.65790  0.47850  Biso   1.000  C
  H33      1.0000 0.62920  0.69290  0.49970  Biso   1.000  H
  C51      1.0000 0.62760  0.63090  0.44170  Biso   1.000  C
  H34      1.0000 0.52490  0.64690  0.43710  Biso   1.000  H
  C52      1.0000 0.71340  0.58000  0.41040  Biso   1.000  C
  H35      1.0000 0.67050  0.56110  0.38460  Biso   1.000  H
  C53      1.0000 0.86200  0.55760  0.41770  Biso   1.000  C
  H36      1.0000 0.92140  0.52490  0.39610  Biso   1.000  H
  C54      1.0000 0.18690  0.57740  0.42460  Biso   1.000  C
  C55      1.0000 0.20110  0.69910  0.40820  Biso   1.000  C
  H37      1.0000 0.15450  0.76850  0.42140  Biso   1.000  H
  C56      1.0000 0.28260  0.71840  0.37300  Biso   1.000  C
  H38      1.0000 0.29090  0.80140  0.36220  Biso   1.000  H
  C57      1.0000 0.35240  0.61960  0.35310  Biso   1.000  C
  C58      1.0000 0.34130  0.50060  0.36950  Biso   1.000  C
  H39      1.0000 0.38840  0.43170  0.35610  Biso   1.000  H
  C59      1.0000 0.26200  0.47940  0.40530  Biso   1.000  C
  H40      1.0000 0.25920  0.39700  0.41680  Biso   1.000  H
  C60      1.0000 0.43640  0.64130  0.31350  Biso   1.000  C
  Ca3      1.0000 0.54575  0.40115  0.25111  Biso   1.000  Ca
  O9       1.0000 0.48680  0.25130  0.29990  Biso   1.000  O
  O10      1.0000 0.41590  0.05070  0.29896  Biso   1.000  O
  O11      1.0000 0.01050  0.94480  0.70060  Biso   1.000  O
  O12      1.0000 0.92030  0.75100  0.70240  Biso   1.000  O
  C61      1.0000 0.48880  0.14230  0.31360  Biso   1.000  C
  C62      1.0000 0.57850  0.12110  0.35150  Biso   1.000  C
  C63      1.0000 0.59250  0.99890  0.36790  Biso   1.000  C
  H41      1.0000 0.54380  0.93000  0.35510  Biso   1.000  H
  C64      1.0000 0.67710  0.97820  0.40290  Biso   1.000  C
  H42      1.0000 0.68370  0.89560  0.41410  Biso   1.000  H
  C65      1.0000 0.75110  0.07610  0.42150  Biso   1.000  C
  C66      1.0000 0.74080  0.19590  0.40430  Biso   1.000  C
  H43      1.0000 0.79420  0.26380  0.41640  Biso   1.000  H
  C67      1.0000 0.65540  0.21810  0.37030  Biso   1.000  C
  H44      1.0000 0.64890  0.30130  0.35960  Biso   1.000  H
  C68      1.0000 0.84880  0.05570  0.45800  Biso   1.000  C
  C69      1.0000 0.01090  0.08760  0.45270  Biso   1.000  C
  C70      1.0000 0.09520  0.13720  0.48360  Biso   1.000  C
  H45      1.0000 0.04990  0.15650  0.50900  Biso   1.000  H
  C71      1.0000 0.24600  0.15970  0.47810  Biso   1.000  C
  H46      1.0000 0.30370  0.19270  0.50000  Biso   1.000  H
  C72      1.0000 0.31180  0.13470  0.44140  Biso   1.000  C
  H47      1.0000 0.41480  0.15180  0.43780  Biso   1.000  H
  C73      1.0000 0.23170  0.08590  0.41040  Biso   1.000  C
  H48      1.0000 0.27820  0.06910  0.38480  Biso   1.000  H
  C74      1.0000 0.07900  0.05970  0.41570  Biso   1.000  C
  H49      1.0000 0.02300  0.02320  0.39410  Biso   1.000  H
  C75      1.0000 0.79690  0.01340  0.49370  Biso   1.000  C
  H50      1.0000 0.86760  0.99930  0.51470  Biso   1.000  H
  C76      1.0000 0.64220  0.98700  0.50310  Biso   1.000  C
  H51      1.0000 0.57160  0.00060  0.48200  Biso   1.000  H
  C77      1.0000 0.58920  0.94480  0.53940  Biso   1.000  C
  C78      1.0000 0.42810  0.91970  0.54530  Biso   1.000  C
  C79      1.0000 0.34190  0.86660  0.51490  Biso   1.000  C
  H52      1.0000 0.38570  0.84630  0.48930  Biso   1.000  H
  C80      1.0000 0.18860  0.84210  0.52150  Biso   1.000  C
  H53      1.0000 0.12920  0.80710  0.50030  Biso   1.000  H
  C81      1.0000 0.12760  0.86910  0.55830  Biso   1.000  C
  H54      1.0000 0.02490  0.85310  0.56290  Biso   1.000  H
  C82      1.0000 0.21340  0.92000  0.58960  Biso   1.000  C
  H55      1.0000 0.17050  0.93890  0.61540  Biso   1.000  H
  C83      1.0000 0.36200  0.94240  0.58230  Biso   1.000  C
  H56      1.0000 0.42140  0.97510  0.60390  Biso   1.000  H
  C84      1.0000 0.68690  0.92260  0.57540  Biso   1.000  C
  C85      1.0000 0.70110  0.80090  0.59180  Biso   1.000  C
  H57      1.0000 0.65450  0.73150  0.57860  Biso   1.000  H
  C86      1.0000 0.78260  0.78160  0.62700  Biso   1.000  C
  H58      1.0000 0.79090  0.69860  0.63780  Biso   1.000  H
  C87      1.0000 0.85240  0.88040  0.64690  Biso   1.000  C
  C88      1.0000 0.84130  0.99940  0.63050  Biso   1.000  C
  H59      1.0000 0.88840  0.06830  0.64390  Biso   1.000  H
  C89      1.0000 0.76200  0.02060  0.59470  Biso   1.000  C
  H60      1.0000 0.75920  0.10300  0.58320  Biso   1.000  H
  C90      1.0000 0.93640  0.85870  0.68650  Biso   1.000  C
  Ca4      1.0000 0.95425  0.59885  0.75111  Biso   1.000  Ca
  O13      1.0000 0.01320  0.74870  0.79990  Biso   1.000  O
  O14      1.0000 0.08410  0.94930  0.79896  Biso   1.000  O
  O15      1.0000 0.48950  0.05520  0.20060  Biso   1.000  O
  O16      1.0000 0.57970  0.24900  0.20240  Biso   1.000  O
  C91      1.0000 0.01120  0.85770  0.81360  Biso   1.000  C
  C92      1.0000 0.92150  0.87890  0.85150  Biso   1.000  C
  C93      1.0000 0.90750  0.00110  0.86790  Biso   1.000  C
  H61      1.0000 0.95620  0.07000  0.85510  Biso   1.000  H
  C94      1.0000 0.82290  0.02180  0.90290  Biso   1.000  C
  H62      1.0000 0.81630  0.10440  0.91410  Biso   1.000  H
  C95      1.0000 0.74890  0.92390  0.92150  Biso   1.000  C
  C96      1.0000 0.75920  0.80410  0.90430  Biso   1.000  C
  H63      1.0000 0.70580  0.73620  0.91640  Biso   1.000  H
  C97      1.0000 0.84460  0.78190  0.87030  Biso   1.000  C
  H64      1.0000 0.85110  0.69870  0.85960  Biso   1.000  H
  C98      1.0000 0.65120  0.94430  0.95800  Biso   1.000  C
  C99      1.0000 0.48910  0.91240  0.95270  Biso   1.000  C
  C100     1.0000 0.40480  0.86280  0.98360  Biso   1.000  C
  H65      1.0000 0.45010  0.84350  0.00900  Biso   1.000  H
  C101     1.0000 0.25400  0.84030  0.97810  Biso   1.000  C
  H66      1.0000 0.19630  0.80730  0.00000  Biso   1.000  H
  C102     1.0000 0.18820  0.86530  0.94140  Biso   1.000  C
  H67      1.0000 0.08520  0.84820  0.93780  Biso   1.000  H
  C103     1.0000 0.26830  0.91410  0.91040  Biso   1.000  C
  H68      1.0000 0.22180  0.93090  0.88480  Biso   1.000  H
  C104     1.0000 0.42100  0.94030  0.91570  Biso   1.000  C
  H69      1.0000 0.47700  0.97680  0.89410  Biso   1.000  H
  C105     1.0000 0.70310  0.98660  0.99370  Biso   1.000  C
  H70      1.0000 0.63240  0.00070  0.01470  Biso   1.000  H
  C106     1.0000 0.85780  0.01300  0.00310  Biso   1.000  C
  H71      1.0000 0.92840  0.99940  0.98200  Biso   1.000  H
  C107     1.0000 0.91080  0.05520  0.03940  Biso   1.000  C
  C108     1.0000 0.07190  0.08030  0.04530  Biso   1.000  C
  C109     1.0000 0.15810  0.13340  0.01490  Biso   1.000  C
  H72      1.0000 0.11430  0.15370  0.98930  Biso   1.000  H
  C110     1.0000 0.31140  0.15790  0.02150  Biso   1.000  C
  H73      1.0000 0.37080  0.19290  0.00030  Biso   1.000  H
  C111     1.0000 0.37240  0.13090  0.05830  Biso   1.000  C
  H74      1.0000 0.47510  0.14690  0.06290  Biso   1.000  H
  C112     1.0000 0.28660  0.08000  0.08960  Biso   1.000  C
  H75      1.0000 0.32950  0.06110  0.11540  Biso   1.000  H
  C113     1.0000 0.13800  0.05760  0.08230  Biso   1.000  C
  H76      1.0000 0.07860  0.02490  0.10390  Biso   1.000  H
  C114     1.0000 0.81310  0.07740  0.07540  Biso   1.000  C
  C115     1.0000 0.79890  0.19910  0.09180  Biso   1.000  C
  H77      1.0000 0.84550  0.26850  0.07860  Biso   1.000  H
  C116     1.0000 0.71740  0.21840  0.12700  Biso   1.000  C
  H78      1.0000 0.70910  0.30140  0.13780  Biso   1.000  H
  C117     1.0000 0.64760  0.11960  0.14690  Biso   1.000  C
  C118     1.0000 0.65870  0.00060  0.13050  Biso   1.000  C
  H79      1.0000 0.61160  0.93170  0.14390  Biso   1.000  H
  C119     1.0000 0.73800  0.97940  0.09470  Biso   1.000  C
  H80      1.0000 0.74080  0.89700  0.08320  Biso   1.000  H
  C120     1.0000 0.56360  0.14130  0.18650  Biso   1.000  C
