data_image0
_cell_length_a       10.944
_cell_length_b       11.129
_cell_length_c       15.998
_cell_angle_alpha    75.57
_cell_angle_beta     82.96
_cell_angle_gamma    75.56

_symmetry_space_group_name_H-M    "P 1"
_symmetry_int_tables_number       1

loop_
  _symmetry_equiv_pos_as_xyz
  'x, y, z'

loop_
  _atom_site_label
  _atom_site_occupancy
  _atom_site_fract_x
  _atom_site_fract_y
  _atom_site_fract_z
  _atom_site_thermal_displace_type
  _atom_site_B_iso_or_equiv
  _atom_site_type_symbol
  O1       1.0000 0.35960  0.28660  0.72700  Biso   1.000  O
  O2       1.0000 0.57390  0.99600  0.24350  Biso   1.000  O
  O3       1.0000 0.97950  0.07370  0.08450  Biso   1.000  O
  O4       1.0000 0.14750  0.06970  0.99230  Biso   1.000  O
  C1       1.0000 0.09350  0.07460  0.06520  Biso   1.000  C
  O5       1.0000 0.22640  0.20200  0.82620  Biso   1.000  O
  O6       1.0000 0.57140  0.02000  0.10370  Biso   1.000  O
  C2       1.0000 0.51440  0.02330  0.17480  Biso   1.000  C
  C3       1.0000 0.37400  0.06250  0.18310  Biso   1.000  C
  C4       1.0000 0.30260  0.05980  0.11920  Biso   1.000  C
  H1       1.0000 0.34080  0.04260  0.06700  Biso   1.000  H
  C5       1.0000 0.27720  0.29090  0.78740  Biso   1.000  C
  C6       1.0000 0.23510  0.41410  0.81650  Biso   1.000  C
  C7       1.0000 0.27770  0.52190  0.77240  Biso   1.000  C
  H2       1.0000 0.33270  0.51840  0.72340  Biso   1.000  H
  O7       1.0000 0.61080  0.11740  0.54180  Biso   1.000  O
  O8       1.0000 0.62020  0.18320  0.65820  Biso   1.000  O
  C8       1.0000 0.67070  0.15710  0.58960  Biso   1.000  C
  C9       1.0000 0.80410  0.16290  0.56370  Biso   1.000  C
  C10      1.0000 0.85070  0.16390  0.47980  Biso   1.000  C
  H3       1.0000 0.79710  0.16690  0.43810  Biso   1.000  H
  Eu1      1.0000 0.41255  0.16000  0.62672  Biso   1.000  Eu
  Eu2      1.0000 0.20768  0.99481  0.86643  Biso   1.000  Eu
  O9       1.0000 0.06830  0.09520  0.74930  Biso   1.000  O
  O10      1.0000 0.24480  0.84720  0.78430  Biso   1.000  O
  N1       1.0000 0.01980  0.15440  0.36980  Biso   1.000  N
  O11      1.0000 0.35790  0.74600  0.68990  Biso   1.000  O
  C11      1.0000 0.28530  0.74760  0.75530  Biso   1.000  C
  N2       1.0000 0.13640  0.13900  0.35580  Biso   1.000  N
  C12      1.0000 0.15630  0.63780  0.87340  Biso   1.000  C
  H4       1.0000 0.13020  0.71230  0.89360  Biso   1.000  H
  C13      1.0000 0.24040  0.63200  0.79980  Biso   1.000  C
  C14      1.0000 0.01030  0.15530  0.60380  Biso   1.000  C
  O12      1.0000 0.20340  0.16610  0.64680  Biso   1.000  O
  C15      1.0000 0.18280  0.12190  0.27130  Biso   1.000  C
  N3       1.0000 0.02680  0.54540  0.98550  Biso   1.000  N
  C16      1.0000 0.11350  0.11070  0.20840  Biso   1.000  C
  H5       1.0000 0.02620  0.12220  0.21760  Biso   1.000  H
  C17      1.0000 0.05960  0.15800  0.52110  Biso   1.000  C
  H6       1.0000 0.14450  0.15830  0.50640  Biso   1.000  H
  C18      1.0000 0.10020  0.13890  0.67270  Biso   1.000  C
  C19      1.0000 0.88250  0.15940  0.62480  Biso   1.000  C
  H7       1.0000 0.84990  0.15970  0.68130  Biso   1.000  H
  C20      1.0000 0.15370  0.41680  0.88790  Biso   1.000  C
  H8       1.0000 0.12590  0.34440  0.91770  Biso   1.000  H
  C21      1.0000 0.97760  0.16030  0.45760  Biso   1.000  C
  C22      1.0000 0.17040  0.08360  0.13440  Biso   1.000  C
  C23      1.0000 0.31450  0.09600  0.25990  Biso   1.000  C
  H9       1.0000 0.36250  0.10070  0.30260  Biso   1.000  H
  C24      1.0000 0.11350  0.52930  0.91510  Biso   1.000  C
  O13      1.0000 0.64040  0.71340  0.27300  Biso   1.000  O
  O14      1.0000 0.42610  0.00400  0.75650  Biso   1.000  O
  O15      1.0000 0.02050  0.92630  0.91550  Biso   1.000  O
  O16      1.0000 0.85250  0.93030  0.00770  Biso   1.000  O
  C25      1.0000 0.90650  0.92540  0.93480  Biso   1.000  C
  O17      1.0000 0.77360  0.79800  0.17380  Biso   1.000  O
  O18      1.0000 0.42860  0.98000  0.89630  Biso   1.000  O
  C26      1.0000 0.48560  0.97670  0.82520  Biso   1.000  C
  C27      1.0000 0.62600  0.93750  0.81690  Biso   1.000  C
  C28      1.0000 0.69740  0.94020  0.88080  Biso   1.000  C
  H10      1.0000 0.65920  0.95740  0.93300  Biso   1.000  H
  C29      1.0000 0.72280  0.70910  0.21260  Biso   1.000  C
  C30      1.0000 0.76490  0.58590  0.18350  Biso   1.000  C
  C31      1.0000 0.72230  0.47810  0.22760  Biso   1.000  C
  H11      1.0000 0.66730  0.48160  0.27660  Biso   1.000  H
  O19      1.0000 0.38920  0.88260  0.45820  Biso   1.000  O
  O20      1.0000 0.37980  0.81680  0.34180  Biso   1.000  O
  C32      1.0000 0.32930  0.84290  0.41040  Biso   1.000  C
  C33      1.0000 0.19590  0.83710  0.43630  Biso   1.000  C
  C34      1.0000 0.14930  0.83610  0.52020  Biso   1.000  C
  H12      1.0000 0.20290  0.83310  0.56190  Biso   1.000  H
  Eu3      1.0000 0.58745  0.84000  0.37328  Biso   1.000  Eu
  Eu4      1.0000 0.79232  0.00519  0.13357  Biso   1.000  Eu
  O21      1.0000 0.93170  0.90480  0.25070  Biso   1.000  O
  O22      1.0000 0.75520  0.15280  0.21570  Biso   1.000  O
  N4       1.0000 0.98020  0.84560  0.63020  Biso   1.000  N
  O23      1.0000 0.64210  0.25400  0.31010  Biso   1.000  O
  C35      1.0000 0.71470  0.25240  0.24470  Biso   1.000  C
  N5       1.0000 0.86360  0.86100  0.64420  Biso   1.000  N
  C36      1.0000 0.84370  0.36220  0.12660  Biso   1.000  C
  H13      1.0000 0.86980  0.28770  0.10640  Biso   1.000  H
  C37      1.0000 0.75960  0.36800  0.20020  Biso   1.000  C
  C38      1.0000 0.98970  0.84470  0.39620  Biso   1.000  C
  O24      1.0000 0.79660  0.83390  0.35320  Biso   1.000  O
  C39      1.0000 0.81720  0.87810  0.72870  Biso   1.000  C
  N6       1.0000 0.97320  0.45460  0.01450  Biso   1.000  N
  C40      1.0000 0.88650  0.88930  0.79160  Biso   1.000  C
  H14      1.0000 0.97380  0.87780  0.78240  Biso   1.000  H
  C41      1.0000 0.94040  0.84200  0.47890  Biso   1.000  C
  H15      1.0000 0.85550  0.84170  0.49360  Biso   1.000  H
  C42      1.0000 0.89980  0.86110  0.32730  Biso   1.000  C
  C43      1.0000 0.11750  0.84060  0.37520  Biso   1.000  C
  H16      1.0000 0.15010  0.84030  0.31870  Biso   1.000  H
  C44      1.0000 0.84630  0.58320  0.11210  Biso   1.000  C
  H17      1.0000 0.87410  0.65560  0.08230  Biso   1.000  H
  C45      1.0000 0.02240  0.83970  0.54240  Biso   1.000  C
  C46      1.0000 0.82960  0.91640  0.86560  Biso   1.000  C
  C47      1.0000 0.68550  0.90400  0.74010  Biso   1.000  C
  H18      1.0000 0.63750  0.89930  0.69740  Biso   1.000  H
  C48      1.0000 0.88650  0.47070  0.08490  Biso   1.000  C
