data_image0
_cell_length_a       14.9953
_cell_length_b       17.5335
_cell_length_c       20.2381
_cell_angle_alpha    115.225
_cell_angle_beta     92.329
_cell_angle_gamma    105.606

_symmetry_space_group_name_H-M    "P 1"
_symmetry_int_tables_number       1

loop_
  _symmetry_equiv_pos_as_xyz
  'x, y, z'

loop_
  _atom_site_label
  _atom_site_occupancy
  _atom_site_fract_x
  _atom_site_fract_y
  _atom_site_fract_z
  _atom_site_thermal_displace_type
  _atom_site_B_iso_or_equiv
  _atom_site_type_symbol
  Zn1      1.0000 0.73128  0.63995  0.34736  Biso   1.000  Zn
  Zn2      1.0000 0.79710  0.70182  0.94255  Biso   1.000  Zn
  Zn3      1.0000 0.85808  0.77813  0.67850  Biso   1.000  Zn
  Zn4      1.0000 0.68762  0.55697  0.60739  Biso   1.000  Zn
  O1       1.0000 0.64010  0.43160  0.58020  Biso   1.000  O
  O2       1.0000 0.69520  0.51310  0.27890  Biso   1.000  O
  O3       1.0000 0.55710  0.49580  0.31590  Biso   1.000  O
  O4       1.0000 0.75270  0.58100  0.92910  Biso   1.000  O
  O5       1.0000 0.92920  0.74100  0.98630  Biso   1.000  O
  N1       1.0000 0.64190  0.70820  0.34480  Biso   1.000  N
  O6       1.0000 0.54870  0.42420  0.48800  Biso   1.000  O
  O7       1.0000 0.85850  0.67390  0.32690  Biso   1.000  O
  N2       1.0000 0.72180  0.62120  0.54530  Biso   1.000  N
  N3       1.0000 0.46400  0.11470  0.78350  Biso   1.000  N
  N4       1.0000 0.77990  0.86270  0.71300  Biso   1.000  N
  N5       1.0000 0.81590  0.71400  0.73990  Biso   1.000  N
  N6       1.0000 0.34120  0.97210  0.40430  Biso   1.000  N
  N7       1.0000 0.41400  0.04440  0.10010  Biso   1.000  N
  N8       1.0000 0.75050  0.63230  0.71530  Biso   1.000  N
  N9       1.0000 0.79220  0.70090  0.57150  Biso   1.000  N
  N10      1.0000 0.71820  0.78220  0.99160  Biso   1.000  N
  N11      1.0000 0.74360  0.65180  0.45210  Biso   1.000  N
  C1       1.0000 0.52050  0.81000  0.36220  Biso   1.000  C
  C2       1.0000 0.63330  0.23370  0.18050  Biso   1.000  C
  H1       1.0000 0.68000  0.20660  0.17310  Biso   1.000  H
  N12      1.0000 0.79090  0.68920  0.83720  Biso   1.000  N
  O8       1.0000 0.93790  0.86020  0.97660  Biso   1.000  O
  C3       1.0000 0.62970  0.74970  0.00200  Biso   1.000  C
  H2       1.0000 0.60750  0.69030  0.99200  Biso   1.000  H
  O9       1.0000 0.60930  0.56340  0.88500  Biso   1.000  O
  C4       1.0000 0.55290  0.67190  0.31380  Biso   1.000  C
  H3       1.0000 0.52980  0.61040  0.28600  Biso   1.000  H
  C5       1.0000 0.53950  0.29070  0.49340  Biso   1.000  C
  C6       1.0000 0.47160  0.10530  0.44050  Biso   1.000  C
  C7       1.0000 0.49060  0.72040  0.32000  Biso   1.000  C
  H4       1.0000 0.42860  0.69120  0.29520  Biso   1.000  H
  C8       1.0000 0.61300  0.46550  0.27880  Biso   1.000  C
  O10      1.0000 0.87240  0.80650  0.41600  Biso   1.000  O
  C9       1.0000 0.41030  0.15200  0.43790  Biso   1.000  C
  H5       1.0000 0.34650  0.12210  0.41910  Biso   1.000  H
  C10      1.0000 0.56660  0.15140  0.47030  Biso   1.000  C
  H6       1.0000 0.60830  0.12100  0.47120  Biso   1.000  H
  C11      1.0000 0.49370  0.95540  0.39680  Biso   1.000  C
  H7       1.0000 0.55810  0.98120  0.40180  Biso   1.000  H
  C12      1.0000 0.59100  0.01730  0.75990  Biso   1.000  C
  C13      1.0000 0.44540  0.24320  0.46360  Biso   1.000  C
  H8       1.0000 0.40440  0.27360  0.46070  Biso   1.000  H
  C14      1.0000 0.57100  0.03420  0.09550  Biso   1.000  C
  H9       1.0000 0.63550  0.06280  0.10500  Biso   1.000  H
  C15      1.0000 0.74900  0.99840  0.73820  Biso   1.000  C
  H10      1.0000 0.77120  0.05600  0.74350  Biso   1.000  H
  C16      1.0000 0.53550  0.94210  0.06320  Biso   1.000  C
  C17      1.0000 0.43480  0.00800  0.41290  Biso   1.000  C
  C18      1.0000 0.73720  0.62020  0.77450  Biso   1.000  C
  H11      1.0000 0.69530  0.56930  0.77310  Biso   1.000  H
  C19      1.0000 0.36110  0.82810  0.36190  Biso   1.000  C
  H12      1.0000 0.33380  0.76710  0.34360  Biso   1.000  H
  C20      1.0000 0.80760  0.94680  0.72300  Biso   1.000  C
  H13      1.0000 0.86940  0.97150  0.71970  Biso   1.000  H
  C21      1.0000 0.65670  0.32680  0.22090  Biso   1.000  C
  H14      1.0000 0.71930  0.36120  0.24110  Biso   1.000  H
  C22      1.0000 0.55780  0.15620  0.80240  Biso   1.000  C
  C23      1.0000 0.27550  0.91820  0.05590  Biso   1.000  C
  C24      1.0000 0.45670  0.86440  0.37340  Biso   1.000  C
  C25      1.0000 0.58910  0.25470  0.83380  Biso   1.000  C
  C26      1.0000 0.58910  0.36700  0.23080  Biso   1.000  C
  C27      1.0000 0.50720  0.08400  0.11390  Biso   1.000  C
  C28      1.0000 0.49350  0.97490  0.74120  Biso   1.000  C
  H15      1.0000 0.46930  0.91330  0.72040  Biso   1.000  H
  C29      1.0000 0.57750  0.38920  0.52170  Biso   1.000  C
  C30      1.0000 0.53920  0.18290  0.15170  Biso   1.000  C
  C31      1.0000 0.74600  0.86770  0.00800  Biso   1.000  C
  H16      1.0000 0.80690  0.89260  0.00300  Biso   1.000  H
  C32      1.0000 0.62360  0.10950  0.79280  Biso   1.000  C
  H17      1.0000 0.68780  0.14010  0.80830  Biso   1.000  H
  C33      1.0000 0.83800  0.74330  0.81070  Biso   1.000  C
  H18      1.0000 0.88310  0.79770  0.84100  Biso   1.000  H
  C34      1.0000 0.61300  0.84790  0.39820  Biso   1.000  C
  H19      1.0000 0.63610  0.90870  0.42950  Biso   1.000  H
  C35      1.0000 0.69060  0.82980  0.71980  Biso   1.000  C
  H20      1.0000 0.66930  0.77160  0.71320  Biso   1.000  H
  C36      1.0000 0.62950  0.87900  0.73640  Biso   1.000  C
  H21      1.0000 0.56890  0.85360  0.74160  Biso   1.000  H
  C37      1.0000 0.69490  0.59530  0.47490  Biso   1.000  C
  H22      1.0000 0.64700  0.54310  0.44420  Biso   1.000  H
  C38      1.0000 0.80270  0.71660  0.51430  Biso   1.000  C
  H23      1.0000 0.84610  0.76710  0.51640  Biso   1.000  H
  C39      1.0000 0.43900  0.90260  0.05060  Biso   1.000  C
  H24      1.0000 0.41340  0.84110  0.03020  Biso   1.000  H
  C40      1.0000 0.47220  0.22650  0.16040  Biso   1.000  C
  H25      1.0000 0.40950  0.19320  0.13960  Biso   1.000  H
  C41      1.0000 0.65620  0.96460  0.74550  Biso   1.000  C
  C42      1.0000 0.67970  0.30310  0.83630  Biso   1.000  C
  H26      1.0000 0.72340  0.27360  0.81940  Biso   1.000  H
  C43      1.0000 0.38040  0.95620  0.06900  Biso   1.000  C
  C44      1.0000 0.43330  0.02570  0.75410  Biso   1.000  C
  C45      1.0000 0.07970  0.85300  0.02220  Biso   1.000  C
  C46      1.0000 0.30390  0.88400  0.37800  Biso   1.000  C
  C47      1.0000 0.57160  0.80130  0.02690  Biso   1.000  C
  H27      1.0000 0.51180  0.77620  0.03370  Biso   1.000  H
  C48      1.0000 0.52380  0.29940  0.85510  Biso   1.000  C
  H28      1.0000 0.46200  0.26840  0.85330  Biso   1.000  H
  C49      1.0000 0.13380  0.79530  0.01090  Biso   1.000  C
  H29      1.0000 0.10350  0.73480  0.99300  Biso   1.000  H
  C50      1.0000 0.59850  0.24380  0.49890  Biso   1.000  C
  H30      1.0000 0.66090  0.27480  0.52220  Biso   1.000  H
  C51      1.0000 0.49620  0.31660  0.19860  Biso   1.000  C
  H31      1.0000 0.45020  0.34430  0.20310  Biso   1.000  H
  C52      1.0000 0.22040  0.97140  0.07360  Biso   1.000  C
  H32      1.0000 0.24950  0.03250  0.10000  Biso   1.000  H
  C53      1.0000 0.67210  0.79670  0.38840  Biso   1.000  C
  H33      1.0000 0.73440  0.82420  0.41260  Biso   1.000  H
  C54      1.0000 0.70660  0.39280  0.86280  Biso   1.000  C
  H34      1.0000 0.76910  0.42360  0.86630  Biso   1.000  H
  C55      1.0000 0.55160  0.39240  0.87980  Biso   1.000  C
  H35      1.0000 0.50730  0.42210  0.89280  Biso   1.000  H
  C56      1.0000 0.23040  0.82700  0.02570  Biso   1.000  C
  H36      1.0000 0.26530  0.78810  0.01580  Biso   1.000  H
  C57      1.0000 0.69100  0.92170  0.03200  Biso   1.000  C
  H37      1.0000 0.71450  0.98100  0.04170  Biso   1.000  H
  C58      1.0000 0.90330  0.75160  0.36310  Biso   1.000  C
  C59      1.0000 0.60050  0.88850  0.04170  Biso   1.000  C
  C60      1.0000 0.64330  0.43910  0.88470  Biso   1.000  C
  C61      1.0000 0.12490  0.94050  0.05480  Biso   1.000  C
  H38      1.0000 0.09100  0.98030  0.06470  Biso   1.000  H
  C62      1.0000 0.67000  0.53350  0.90350  Biso   1.000  C
  C63      1.0000 0.97360  0.81470  0.99340  Biso   1.000  C
  C64      1.0000 0.13410  0.90250  0.68800  Biso   1.000  C
  C65      1.0000 0.19000  0.86300  0.71030  Biso   1.000  C
  H39      1.0000 0.16240  0.81010  0.71250  Biso   1.000  H
  C66      1.0000 0.28710  0.90270  0.72920  Biso   1.000  C
  H40      1.0000 0.32450  0.87630  0.74410  Biso   1.000  H
  C67      1.0000 0.32820  0.98180  0.72590  Biso   1.000  C
  C68      1.0000 0.27230  0.02130  0.70360  Biso   1.000  C
  H41      1.0000 0.29990  0.07420  0.70140  Biso   1.000  H
  C69      1.0000 0.17530  0.98160  0.68470  Biso   1.000  C
  H42      1.0000 0.13790  0.00810  0.66980  Biso   1.000  H
  O11      1.0000 0.99270  0.80640  0.69240  Biso   1.000  O
  O12      1.0000 0.97510  0.88670  0.64120  Biso   1.000  O
  C70      1.0000 0.02960  0.86450  0.67670  Biso   1.000  C
  C71      1.0000 0.05520  0.87570  0.40380  Biso   1.000  C
  H43      1.0000 0.02330  0.91510  0.42920  Biso   1.000  H
  C72      1.0000 0.15170  0.90680  0.40720  Biso   1.000  C
  H44      1.0000 0.18440  0.96700  0.43490  Biso   1.000  H
  C73      1.0000 0.19930  0.84780  0.36930  Biso   1.000  C
  C74      1.0000 0.15040  0.75780  0.32800  Biso   1.000  C
  H45      1.0000 0.18220  0.71840  0.30260  Biso   1.000  H
  C75      1.0000 0.05390  0.72670  0.32450  Biso   1.000  C
  H46      1.0000 0.02110  0.66640  0.29690  Biso   1.000  H
  C76      1.0000 0.00630  0.78560  0.36250  Biso   1.000  C
  Zn5      1.0000 0.26872  0.36005  0.65264  Biso   1.000  Zn
  Zn6      1.0000 0.20290  0.29818  0.05745  Biso   1.000  Zn
  Zn7      1.0000 0.14192  0.22187  0.32150  Biso   1.000  Zn
  Zn8      1.0000 0.31238  0.44303  0.39261  Biso   1.000  Zn
  O13      1.0000 0.35990  0.56840  0.41980  Biso   1.000  O
  O14      1.0000 0.30480  0.48690  0.72110  Biso   1.000  O
  O15      1.0000 0.44290  0.50420  0.68410  Biso   1.000  O
  O16      1.0000 0.24730  0.41900  0.07090  Biso   1.000  O
  O17      1.0000 0.07080  0.25900  0.01370  Biso   1.000  O
  N13      1.0000 0.35810  0.29180  0.65520  Biso   1.000  N
  O18      1.0000 0.45130  0.57580  0.51200  Biso   1.000  O
  O19      1.0000 0.14150  0.32610  0.67310  Biso   1.000  O
  N14      1.0000 0.27820  0.37880  0.45470  Biso   1.000  N
  N15      1.0000 0.53600  0.88530  0.21650  Biso   1.000  N
  N16      1.0000 0.22010  0.13730  0.28700  Biso   1.000  N
  N17      1.0000 0.18410  0.28600  0.26010  Biso   1.000  N
  N18      1.0000 0.65880  0.02790  0.59570  Biso   1.000  N
  N19      1.0000 0.58600  0.95560  0.89990  Biso   1.000  N
  N20      1.0000 0.24950  0.36770  0.28470  Biso   1.000  N
  N21      1.0000 0.20780  0.29910  0.42850  Biso   1.000  N
  N22      1.0000 0.28180  0.21780  0.00840  Biso   1.000  N
  N23      1.0000 0.25640  0.34820  0.54790  Biso   1.000  N
  C77      1.0000 0.47950  0.19000  0.63780  Biso   1.000  C
  C78      1.0000 0.36670  0.76630  0.81950  Biso   1.000  C
  H47      1.0000 0.32000  0.79340  0.82690  Biso   1.000  H
  N24      1.0000 0.20910  0.31080  0.16280  Biso   1.000  N
  O20      1.0000 0.06210  0.13980  0.02340  Biso   1.000  O
  C79      1.0000 0.37030  0.25030  0.99800  Biso   1.000  C
  H48      1.0000 0.39250  0.30970  0.00800  Biso   1.000  H
  O21      1.0000 0.39070  0.43660  0.11500  Biso   1.000  O
  C80      1.0000 0.44710  0.32810  0.68620  Biso   1.000  C
  H49      1.0000 0.47020  0.38960  0.71400  Biso   1.000  H
  C81      1.0000 0.46050  0.70930  0.50660  Biso   1.000  C
  C82      1.0000 0.52840  0.89470  0.55950  Biso   1.000  C
  C83      1.0000 0.50940  0.27960  0.68000  Biso   1.000  C
  H50      1.0000 0.57140  0.30880  0.70480  Biso   1.000  H
  C84      1.0000 0.38700  0.53450  0.72120  Biso   1.000  C
  O22      1.0000 0.12760  0.19350  0.58400  Biso   1.000  O
  C85      1.0000 0.58970  0.84800  0.56210  Biso   1.000  C
  H51      1.0000 0.65350  0.87790  0.58090  Biso   1.000  H
  C86      1.0000 0.43340  0.84860  0.52970  Biso   1.000  C
  H52      1.0000 0.39170  0.87900  0.52880  Biso   1.000  H
  C87      1.0000 0.50630  0.04460  0.60320  Biso   1.000  C
  H53      1.0000 0.44190  0.01880  0.59820  Biso   1.000  H
  C88      1.0000 0.40900  0.98270  0.24010  Biso   1.000  C
  C89      1.0000 0.55460  0.75680  0.53640  Biso   1.000  C
  H54      1.0000 0.59560  0.72640  0.53930  Biso   1.000  H
  C90      1.0000 0.42900  0.96580  0.90450  Biso   1.000  C
  H55      1.0000 0.36450  0.93720  0.89500  Biso   1.000  H
  C91      1.0000 0.25100  0.00160  0.26180  Biso   1.000  C
  H56      1.0000 0.22880  0.94400  0.25650  Biso   1.000  H
  C92      1.0000 0.46450  0.05790  0.93680  Biso   1.000  C
  C93      1.0000 0.56520  0.99200  0.58710  Biso   1.000  C
  C94      1.0000 0.26280  0.37980  0.22550  Biso   1.000  C
  H57      1.0000 0.30470  0.43070  0.22690  Biso   1.000  H
  C95      1.0000 0.63890  0.17190  0.63810  Biso   1.000  C
  H58      1.0000 0.66620  0.23290  0.65640  Biso   1.000  H
  C96      1.0000 0.19240  0.05320  0.27700  Biso   1.000  C
  H59      1.0000 0.13060  0.02850  0.28030  Biso   1.000  H
  C97      1.0000 0.34330  0.67320  0.77910  Biso   1.000  C
  H60      1.0000 0.28070  0.63880  0.75890  Biso   1.000  H
  C98      1.0000 0.44220  0.84380  0.19760  Biso   1.000  C
  C99      1.0000 0.72450  0.08180  0.94410  Biso   1.000  C
  C100     1.0000 0.54330  0.13560  0.62660  Biso   1.000  C
  C101     1.0000 0.41090  0.74530  0.16620  Biso   1.000  C
  C102     1.0000 0.41090  0.63300  0.76920  Biso   1.000  C
  C103     1.0000 0.49280  0.91600  0.88610  Biso   1.000  C
  C104     1.0000 0.50650  0.02510  0.25880  Biso   1.000  C
  H61      1.0000 0.53070  0.08670  0.27960  Biso   1.000  H
  C105     1.0000 0.42250  0.61080  0.47830  Biso   1.000  C
  C106     1.0000 0.46080  0.81710  0.84830  Biso   1.000  C
  C107     1.0000 0.25400  0.13230  0.99200  Biso   1.000  C
  H62      1.0000 0.19310  0.10740  0.99700  Biso   1.000  H
  C108     1.0000 0.37640  0.89050  0.20720  Biso   1.000  C
  H63      1.0000 0.31220  0.85990  0.19170  Biso   1.000  H
  C109     1.0000 0.16200  0.25670  0.18930  Biso   1.000  C
  H64      1.0000 0.11690  0.20230  0.15900  Biso   1.000  H
  C110     1.0000 0.38700  0.15210  0.60180  Biso   1.000  C
  H65      1.0000 0.36390  0.09130  0.57050  Biso   1.000  H
  C111     1.0000 0.30940  0.17020  0.28020  Biso   1.000  C
  H66      1.0000 0.33070  0.22840  0.28680  Biso   1.000  H
  C112     1.0000 0.37050  0.12100  0.26360  Biso   1.000  C
  H67      1.0000 0.43110  0.14640  0.25840  Biso   1.000  H
  C113     1.0000 0.30510  0.40470  0.52510  Biso   1.000  C
  H68      1.0000 0.35300  0.45690  0.55580  Biso   1.000  H
  C114     1.0000 0.19730  0.28340  0.48570  Biso   1.000  C
  H69      1.0000 0.15390  0.23290  0.48360  Biso   1.000  H
  C115     1.0000 0.56100  0.09740  0.94940  Biso   1.000  C
  H70      1.0000 0.58660  0.15890  0.96980  Biso   1.000  H
  C116     1.0000 0.52780  0.77350  0.83960  Biso   1.000  C
  H71      1.0000 0.59050  0.80680  0.86040  Biso   1.000  H
  C117     1.0000 0.34380  0.03540  0.25450  Biso   1.000  C
  C118     1.0000 0.32030  0.69690  0.16370  Biso   1.000  C
  H72      1.0000 0.27660  0.72640  0.18060  Biso   1.000  H
  C119     1.0000 0.61960  0.04380  0.93100  Biso   1.000  C
  C120     1.0000 0.56670  0.97430  0.24590  Biso   1.000  C
  C121     1.0000 0.92030  0.14700  0.97780  Biso   1.000  C
  C122     1.0000 0.69610  0.11600  0.62200  Biso   1.000  C
  C123     1.0000 0.42840  0.19870  0.97310  Biso   1.000  C
  H73      1.0000 0.48820  0.22380  0.96630  Biso   1.000  H
  C124     1.0000 0.47620  0.70060  0.14490  Biso   1.000  C
  H74      1.0000 0.53800  0.73160  0.14670  Biso   1.000  H
  C125     1.0000 0.86620  0.20470  0.98910  Biso   1.000  C
  H75      1.0000 0.89650  0.26520  0.00700  Biso   1.000  H
  C126     1.0000 0.40150  0.75620  0.50110  Biso   1.000  C
  H76      1.0000 0.33910  0.72520  0.47780  Biso   1.000  H
  C127     1.0000 0.50380  0.68340  0.80140  Biso   1.000  C
  H77      1.0000 0.54980  0.65570  0.79690  Biso   1.000  H
  C128     1.0000 0.77960  0.02860  0.92640  Biso   1.000  C
  H78      1.0000 0.75050  0.96750  0.90000  Biso   1.000  H
  C129     1.0000 0.32790  0.20330  0.61160  Biso   1.000  C
  H79      1.0000 0.26560  0.17580  0.58740  Biso   1.000  H
  C130     1.0000 0.29340  0.60720  0.13720  Biso   1.000  C
  H80      1.0000 0.23090  0.57640  0.13370  Biso   1.000  H
  C131     1.0000 0.44840  0.60760  0.12020  Biso   1.000  C
  H81      1.0000 0.49270  0.57790  0.10720  Biso   1.000  H
  C132     1.0000 0.76960  0.17300  0.97430  Biso   1.000  C
  H82      1.0000 0.73470  0.21190  0.98420  Biso   1.000  H
  C133     1.0000 0.30900  0.07830  0.96800  Biso   1.000  C
  H83      1.0000 0.28550  0.01900  0.95830  Biso   1.000  H
  C134     1.0000 0.09670  0.24840  0.63690  Biso   1.000  C
  C135     1.0000 0.39950  0.11150  0.95830  Biso   1.000  C
  C136     1.0000 0.35670  0.56090  0.11530  Biso   1.000  C
  C137     1.0000 0.87510  0.05950  0.94520  Biso   1.000  C
  H84      1.0000 0.90900  0.01970  0.93530  Biso   1.000  H
  C138     1.0000 0.33000  0.46650  0.09650  Biso   1.000  C
  C139     1.0000 0.02640  0.18530  0.00660  Biso   1.000  C
  C140     1.0000 0.86590  0.09750  0.31200  Biso   1.000  C
  C141     1.0000 0.81000  0.13700  0.28970  Biso   1.000  C
  H85      1.0000 0.83760  0.18990  0.28750  Biso   1.000  H
  C142     1.0000 0.71290  0.09730  0.27080  Biso   1.000  C
  H86      1.0000 0.67550  0.12370  0.25590  Biso   1.000  H
  C143     1.0000 0.67180  0.01820  0.27410  Biso   1.000  C
  C144     1.0000 0.72770  0.97870  0.29640  Biso   1.000  C
  H87      1.0000 0.70010  0.92580  0.29860  Biso   1.000  H
  C145     1.0000 0.82470  0.01840  0.31530  Biso   1.000  C
  H88      1.0000 0.86210  0.99190  0.33020  Biso   1.000  H
  O23      1.0000 0.00730  0.19360  0.30760  Biso   1.000  O
  O24      1.0000 0.02490  0.11330  0.35880  Biso   1.000  O
  C146     1.0000 0.97040  0.13550  0.32330  Biso   1.000  C
  C147     1.0000 0.94480  0.12430  0.59620  Biso   1.000  C
  H89      1.0000 0.97670  0.08490  0.57080  Biso   1.000  H
  C148     1.0000 0.84830  0.09320  0.59280  Biso   1.000  C
  H90      1.0000 0.81560  0.03300  0.56510  Biso   1.000  H
  C149     1.0000 0.80070  0.15220  0.63070  Biso   1.000  C
  C150     1.0000 0.84960  0.24220  0.67200  Biso   1.000  C
  H91      1.0000 0.81780  0.28160  0.69740  Biso   1.000  H
  C151     1.0000 0.94610  0.27330  0.67550  Biso   1.000  C
  H92      1.0000 0.97890  0.33360  0.70310  Biso   1.000  H
  C152     1.0000 0.99370  0.21440  0.63750  Biso   1.000  C
