data_image0
_cell_length_a       18.557
_cell_length_b       18.557
_cell_length_c       24.189
_cell_angle_alpha    90
_cell_angle_beta     90
_cell_angle_gamma    120

_symmetry_space_group_name_H-M    "P 1"
_symmetry_int_tables_number       1

loop_
  _symmetry_equiv_pos_as_xyz
  'x, y, z'

loop_
  _atom_site_label
  _atom_site_occupancy
  _atom_site_fract_x
  _atom_site_fract_y
  _atom_site_fract_z
  _atom_site_thermal_displace_type
  _atom_site_B_iso_or_equiv
  _atom_site_type_symbol
  C1       1.0000 0.90880  0.55020  0.54520  Biso   1.000  C
  C2       1.0000 0.85410  0.57740  0.57125  Biso   1.000  C
  C3       1.0000 0.87410  0.61940  0.62090  Biso   1.000  C
  H1       1.0000 0.92520  0.63320  0.63840  Biso   1.000  H
  O1       1.0000 0.89041  0.51930  0.49778  Biso   1.000  O
  O2       1.0000 0.97170  0.56260  0.57241  Biso   1.000  O
  C4       1.0000 0.44980  0.35860  0.54520  Biso   1.000  C
  C5       1.0000 0.42260  0.27670  0.57125  Biso   1.000  C
  C6       1.0000 0.38060  0.25470  0.62090  Biso   1.000  C
  H2       1.0000 0.36680  0.29200  0.63840  Biso   1.000  H
  O3       1.0000 0.48070  0.37111  0.49778  Biso   1.000  O
  O4       1.0000 0.43740  0.40910  0.57241  Biso   1.000  O
  C7       1.0000 0.64140  0.09120  0.54520  Biso   1.000  C
  C8       1.0000 0.72330  0.14590  0.57125  Biso   1.000  C
  C9       1.0000 0.74530  0.12590  0.62090  Biso   1.000  C
  H3       1.0000 0.70800  0.07480  0.63840  Biso   1.000  H
  O5       1.0000 0.62889  0.10959  0.49778  Biso   1.000  O
  O6       1.0000 0.59090  0.02830  0.57241  Biso   1.000  O
  C10      1.0000 0.09120  0.44980  0.04520  Biso   1.000  C
  C11      1.0000 0.14590  0.42260  0.07125  Biso   1.000  C
  C12      1.0000 0.12590  0.38060  0.12090  Biso   1.000  C
  H4       1.0000 0.07480  0.36680  0.13840  Biso   1.000  H
  O7       1.0000 0.10959  0.48070  0.99778  Biso   1.000  O
  O8       1.0000 0.02830  0.43740  0.07241  Biso   1.000  O
  C13      1.0000 0.55020  0.64140  0.04520  Biso   1.000  C
  C14      1.0000 0.57740  0.72330  0.07125  Biso   1.000  C
  C15      1.0000 0.61940  0.74530  0.12090  Biso   1.000  C
  H5       1.0000 0.63320  0.70800  0.13840  Biso   1.000  H
  O9       1.0000 0.51930  0.62889  0.99778  Biso   1.000  O
  O10      1.0000 0.56260  0.59090  0.07241  Biso   1.000  O
  C16      1.0000 0.35860  0.90880  0.04520  Biso   1.000  C
  C17      1.0000 0.27670  0.85410  0.07125  Biso   1.000  C
  C18      1.0000 0.25470  0.87410  0.12090  Biso   1.000  C
  H6       1.0000 0.29200  0.92520  0.13840  Biso   1.000  H
  O11      1.0000 0.37111  0.89041  0.99778  Biso   1.000  O
  O12      1.0000 0.40910  0.97170  0.07241  Biso   1.000  O
  C19      1.0000 0.55020  0.90880  0.45480  Biso   1.000  C
  C20      1.0000 0.57740  0.85410  0.42875  Biso   1.000  C
  C21      1.0000 0.61940  0.87410  0.37910  Biso   1.000  C
  H7       1.0000 0.63320  0.92520  0.36160  Biso   1.000  H
  O13      1.0000 0.51930  0.89041  0.50222  Biso   1.000  O
  O14      1.0000 0.56260  0.97170  0.42759  Biso   1.000  O
  C22      1.0000 0.35860  0.44980  0.45480  Biso   1.000  C
  C23      1.0000 0.27670  0.42260  0.42875  Biso   1.000  C
  C24      1.0000 0.25470  0.38060  0.37910  Biso   1.000  C
  H8       1.0000 0.29200  0.36680  0.36160  Biso   1.000  H
  O15      1.0000 0.37111  0.48070  0.50222  Biso   1.000  O
  O16      1.0000 0.40910  0.43740  0.42759  Biso   1.000  O
  C25      1.0000 0.09120  0.64140  0.45480  Biso   1.000  C
  C26      1.0000 0.14590  0.72330  0.42875  Biso   1.000  C
  C27      1.0000 0.12590  0.74530  0.37910  Biso   1.000  C
  H9       1.0000 0.07480  0.70800  0.36160  Biso   1.000  H
  O17      1.0000 0.10959  0.62889  0.50222  Biso   1.000  O
  O18      1.0000 0.02830  0.59090  0.42759  Biso   1.000  O
  C28      1.0000 0.44980  0.09120  0.95480  Biso   1.000  C
  C29      1.0000 0.42260  0.14590  0.92875  Biso   1.000  C
  C30      1.0000 0.38060  0.12590  0.87910  Biso   1.000  C
  H10      1.0000 0.36680  0.07480  0.86160  Biso   1.000  H
  O19      1.0000 0.48070  0.10959  0.00222  Biso   1.000  O
  O20      1.0000 0.43740  0.02830  0.92759  Biso   1.000  O
  C31      1.0000 0.64140  0.55020  0.95480  Biso   1.000  C
  C32      1.0000 0.72330  0.57740  0.92875  Biso   1.000  C
  C33      1.0000 0.74530  0.61940  0.87910  Biso   1.000  C
  H11      1.0000 0.70800  0.63320  0.86160  Biso   1.000  H
  O21      1.0000 0.62889  0.51930  0.00222  Biso   1.000  O
  O22      1.0000 0.59090  0.56260  0.92759  Biso   1.000  O
  C34      1.0000 0.90880  0.35860  0.95480  Biso   1.000  C
  C35      1.0000 0.85410  0.27670  0.92875  Biso   1.000  C
  C36      1.0000 0.87410  0.25470  0.87910  Biso   1.000  C
  H12      1.0000 0.92520  0.29200  0.86160  Biso   1.000  H
  O23      1.0000 0.89041  0.37111  0.00222  Biso   1.000  O
  O24      1.0000 0.97170  0.40910  0.92759  Biso   1.000  O
  C37      1.0000 0.09120  0.44980  0.45480  Biso   1.000  C
  C38      1.0000 0.14590  0.42260  0.42875  Biso   1.000  C
  C39      1.0000 0.12590  0.38060  0.37910  Biso   1.000  C
  H13      1.0000 0.07480  0.36680  0.36160  Biso   1.000  H
  O25      1.0000 0.10959  0.48070  0.50222  Biso   1.000  O
  O26      1.0000 0.02830  0.43740  0.42759  Biso   1.000  O
  C40      1.0000 0.55020  0.64140  0.45480  Biso   1.000  C
  C41      1.0000 0.57740  0.72330  0.42875  Biso   1.000  C
  C42      1.0000 0.61940  0.74530  0.37910  Biso   1.000  C
  H14      1.0000 0.63320  0.70800  0.36160  Biso   1.000  H
  O27      1.0000 0.51930  0.62889  0.50222  Biso   1.000  O
  O28      1.0000 0.56260  0.59090  0.42759  Biso   1.000  O
  C43      1.0000 0.35860  0.90880  0.45480  Biso   1.000  C
  C44      1.0000 0.27670  0.85410  0.42875  Biso   1.000  C
  C45      1.0000 0.25470  0.87410  0.37910  Biso   1.000  C
  H15      1.0000 0.29200  0.92520  0.36160  Biso   1.000  H
  O29      1.0000 0.37111  0.89041  0.50222  Biso   1.000  O
  O30      1.0000 0.40910  0.97170  0.42759  Biso   1.000  O
  C46      1.0000 0.90880  0.55020  0.95480  Biso   1.000  C
  C47      1.0000 0.85410  0.57740  0.92875  Biso   1.000  C
  C48      1.0000 0.87410  0.61940  0.87910  Biso   1.000  C
  H16      1.0000 0.92520  0.63320  0.86160  Biso   1.000  H
  O31      1.0000 0.89041  0.51930  0.00222  Biso   1.000  O
  O32      1.0000 0.97170  0.56260  0.92759  Biso   1.000  O
  C49      1.0000 0.44980  0.35860  0.95480  Biso   1.000  C
  C50      1.0000 0.42260  0.27670  0.92875  Biso   1.000  C
  C51      1.0000 0.38060  0.25470  0.87910  Biso   1.000  C
  H17      1.0000 0.36680  0.29200  0.86160  Biso   1.000  H
  O33      1.0000 0.48070  0.37111  0.00222  Biso   1.000  O
  O34      1.0000 0.43740  0.40910  0.92759  Biso   1.000  O
  C52      1.0000 0.64140  0.09120  0.95480  Biso   1.000  C
  C53      1.0000 0.72330  0.14590  0.92875  Biso   1.000  C
  C54      1.0000 0.74530  0.12590  0.87910  Biso   1.000  C
  H18      1.0000 0.70800  0.07480  0.86160  Biso   1.000  H
  O35      1.0000 0.62889  0.10959  0.00222  Biso   1.000  O
  O36      1.0000 0.59090  0.02830  0.92759  Biso   1.000  O
  C55      1.0000 0.44980  0.09120  0.54520  Biso   1.000  C
  C56      1.0000 0.42260  0.14590  0.57125  Biso   1.000  C
  C57      1.0000 0.38060  0.12590  0.62090  Biso   1.000  C
  H19      1.0000 0.36680  0.07480  0.63840  Biso   1.000  H
  O37      1.0000 0.48070  0.10959  0.49778  Biso   1.000  O
  O38      1.0000 0.43740  0.02830  0.57241  Biso   1.000  O
  C58      1.0000 0.64140  0.55020  0.54520  Biso   1.000  C
  C59      1.0000 0.72330  0.57740  0.57125  Biso   1.000  C
  C60      1.0000 0.74530  0.61940  0.62090  Biso   1.000  C
  H20      1.0000 0.70800  0.63320  0.63840  Biso   1.000  H
  O39      1.0000 0.62889  0.51930  0.49778  Biso   1.000  O
  O40      1.0000 0.59090  0.56260  0.57241  Biso   1.000  O
  C61      1.0000 0.90880  0.35860  0.54520  Biso   1.000  C
  C62      1.0000 0.85410  0.27670  0.57125  Biso   1.000  C
  C63      1.0000 0.87410  0.25470  0.62090  Biso   1.000  C
  H21      1.0000 0.92520  0.29200  0.63840  Biso   1.000  H
  O41      1.0000 0.89041  0.37111  0.49778  Biso   1.000  O
  O42      1.0000 0.97170  0.40910  0.57241  Biso   1.000  O
  C64      1.0000 0.55020  0.90880  0.04520  Biso   1.000  C
  C65      1.0000 0.57740  0.85410  0.07125  Biso   1.000  C
  C66      1.0000 0.61940  0.87410  0.12090  Biso   1.000  C
  H22      1.0000 0.63320  0.92520  0.13840  Biso   1.000  H
  O43      1.0000 0.51930  0.89041  0.99778  Biso   1.000  O
  O44      1.0000 0.56260  0.97170  0.07241  Biso   1.000  O
  C67      1.0000 0.35860  0.44980  0.04520  Biso   1.000  C
  C68      1.0000 0.27670  0.42260  0.07125  Biso   1.000  C
  C69      1.0000 0.25470  0.38060  0.12090  Biso   1.000  C
  H23      1.0000 0.29200  0.36680  0.13840  Biso   1.000  H
  O45      1.0000 0.37111  0.48070  0.99778  Biso   1.000  O
  O46      1.0000 0.40910  0.43740  0.07241  Biso   1.000  O
  C70      1.0000 0.09120  0.64140  0.04520  Biso   1.000  C
  C71      1.0000 0.14590  0.72330  0.07125  Biso   1.000  C
  C72      1.0000 0.12590  0.74530  0.12090  Biso   1.000  C
  H24      1.0000 0.07480  0.70800  0.13840  Biso   1.000  H
  O47      1.0000 0.10959  0.62889  0.99778  Biso   1.000  O
  O48      1.0000 0.02830  0.59090  0.07241  Biso   1.000  O
  C73      1.0000 0.88320  0.76640  0.69790  Biso   1.000  C
  H25      1.0000 0.89805  0.79610  0.66390  Biso   1.000  H
  C74      1.0000 0.77860  0.55720  0.54530  Biso   1.000  C
  H26      1.0000 0.76500  0.53000  0.51050  Biso   1.000  H
  C75      1.0000 0.84325  0.68650  0.70020  Biso   1.000  C
  C76      1.0000 0.82090  0.64180  0.64570  Biso   1.000  C
  H27      1.0000 0.76565  0.53130  0.78150  Biso   1.000  H
  C77      1.0000 0.23360  0.11680  0.69790  Biso   1.000  C
  H28      1.0000 0.20390  0.10195  0.66390  Biso   1.000  H
  C78      1.0000 0.44280  0.22140  0.54530  Biso   1.000  C
  H29      1.0000 0.47000  0.23500  0.51050  Biso   1.000  H
  C79      1.0000 0.31350  0.15675  0.70020  Biso   1.000  C
  C80      1.0000 0.35820  0.17910  0.64570  Biso   1.000  C
  H30      1.0000 0.46870  0.23435  0.78150  Biso   1.000  H
  C81      1.0000 0.88320  0.11680  0.69790  Biso   1.000  C
  H31      1.0000 0.89805  0.10195  0.66390  Biso   1.000  H
  C82      1.0000 0.77860  0.22140  0.54530  Biso   1.000  C
  H32      1.0000 0.76500  0.23500  0.51050  Biso   1.000  H
  C83      1.0000 0.84325  0.15675  0.70020  Biso   1.000  C
  C84      1.0000 0.82090  0.17910  0.64570  Biso   1.000  C
  H33      1.0000 0.76565  0.23435  0.78150  Biso   1.000  H
  C85      1.0000 0.11680  0.23360  0.19790  Biso   1.000  C
  H34      1.0000 0.10195  0.20390  0.16390  Biso   1.000  H
  C86      1.0000 0.22140  0.44280  0.04530  Biso   1.000  C
  H35      1.0000 0.23500  0.47000  0.01050  Biso   1.000  H
  C87      1.0000 0.15675  0.31350  0.20020  Biso   1.000  C
  C88      1.0000 0.17910  0.35820  0.14570  Biso   1.000  C
  H36      1.0000 0.23435  0.46870  0.28150  Biso   1.000  H
  C89      1.0000 0.76640  0.88320  0.19790  Biso   1.000  C
  H37      1.0000 0.79610  0.89805  0.16390  Biso   1.000  H
  C90      1.0000 0.55720  0.77860  0.04530  Biso   1.000  C
  H38      1.0000 0.53000  0.76500  0.01050  Biso   1.000  H
  C91      1.0000 0.68650  0.84325  0.20020  Biso   1.000  C
  C92      1.0000 0.64180  0.82090  0.14570  Biso   1.000  C
  H39      1.0000 0.53130  0.76565  0.28150  Biso   1.000  H
  C93      1.0000 0.11680  0.88320  0.19790  Biso   1.000  C
  H40      1.0000 0.10195  0.89805  0.16390  Biso   1.000  H
  C94      1.0000 0.22140  0.77860  0.04530  Biso   1.000  C
  H41      1.0000 0.23500  0.76500  0.01050  Biso   1.000  H
  C95      1.0000 0.15675  0.84325  0.20020  Biso   1.000  C
  C96      1.0000 0.17910  0.82090  0.14570  Biso   1.000  C
  H42      1.0000 0.23435  0.76565  0.28150  Biso   1.000  H
  C97      1.0000 0.76640  0.88320  0.30210  Biso   1.000  C
  H43      1.0000 0.79610  0.89805  0.33610  Biso   1.000  H
  C98      1.0000 0.55720  0.77860  0.45470  Biso   1.000  C
  H44      1.0000 0.53000  0.76500  0.48950  Biso   1.000  H
  C99      1.0000 0.68650  0.84325  0.29980  Biso   1.000  C
  C100     1.0000 0.64180  0.82090  0.35430  Biso   1.000  C
  H45      1.0000 0.53130  0.76565  0.21850  Biso   1.000  H
  C101     1.0000 0.11680  0.23360  0.30210  Biso   1.000  C
  H46      1.0000 0.10195  0.20390  0.33610  Biso   1.000  H
  C102     1.0000 0.22140  0.44280  0.45470  Biso   1.000  C
  H47      1.0000 0.23500  0.47000  0.48950  Biso   1.000  H
  C103     1.0000 0.15675  0.31350  0.29980  Biso   1.000  C
  C104     1.0000 0.17910  0.35820  0.35430  Biso   1.000  C
  H48      1.0000 0.23435  0.46870  0.21850  Biso   1.000  H
  C105     1.0000 0.11680  0.88320  0.30210  Biso   1.000  C
  H49      1.0000 0.10195  0.89805  0.33610  Biso   1.000  H
  C106     1.0000 0.22140  0.77860  0.45470  Biso   1.000  C
  H50      1.0000 0.23500  0.76500  0.48950  Biso   1.000  H
  C107     1.0000 0.15675  0.84325  0.29980  Biso   1.000  C
  C108     1.0000 0.17910  0.82090  0.35430  Biso   1.000  C
  H51      1.0000 0.23435  0.76565  0.21850  Biso   1.000  H
  C109     1.0000 0.23360  0.11680  0.80210  Biso   1.000  C
  H52      1.0000 0.20390  0.10195  0.83610  Biso   1.000  H
  C110     1.0000 0.44280  0.22140  0.95470  Biso   1.000  C
  H53      1.0000 0.47000  0.23500  0.98950  Biso   1.000  H
  C111     1.0000 0.31350  0.15675  0.79980  Biso   1.000  C
  C112     1.0000 0.35820  0.17910  0.85430  Biso   1.000  C
  H54      1.0000 0.46870  0.23435  0.71850  Biso   1.000  H
  C113     1.0000 0.88320  0.76640  0.80210  Biso   1.000  C
  H55      1.0000 0.89805  0.79610  0.83610  Biso   1.000  H
  C114     1.0000 0.77860  0.55720  0.95470  Biso   1.000  C
  H56      1.0000 0.76500  0.53000  0.98950  Biso   1.000  H
  C115     1.0000 0.84325  0.68650  0.79980  Biso   1.000  C
  C116     1.0000 0.82090  0.64180  0.85430  Biso   1.000  C
  H57      1.0000 0.76565  0.53130  0.71850  Biso   1.000  H
  C117     1.0000 0.88320  0.11680  0.80210  Biso   1.000  C
  H58      1.0000 0.89805  0.10195  0.83610  Biso   1.000  H
  C118     1.0000 0.77860  0.22140  0.95470  Biso   1.000  C
  H59      1.0000 0.76500  0.23500  0.98950  Biso   1.000  H
  C119     1.0000 0.84325  0.15675  0.79980  Biso   1.000  C
  C120     1.0000 0.82090  0.17910  0.85430  Biso   1.000  C
  H60      1.0000 0.76565  0.23435  0.71850  Biso   1.000  H
  C121     1.0000 0.90335  0.80670  0.75000  Biso   1.000  C
  C122     1.0000 0.82375  0.64750  0.75000  Biso   1.000  C
  N1       1.0000 0.77935  0.55870  0.75000  Biso   1.000  N
  F1       1.0000 0.94835  0.89670  0.75000  Biso   1.000  F
  C123     1.0000 0.19330  0.09665  0.75000  Biso   1.000  C
  C124     1.0000 0.35250  0.17625  0.75000  Biso   1.000  C
  N2       1.0000 0.44130  0.22065  0.75000  Biso   1.000  N
  F2       1.0000 0.10330  0.05165  0.75000  Biso   1.000  F
  C125     1.0000 0.90335  0.09665  0.75000  Biso   1.000  C
  C126     1.0000 0.82375  0.17625  0.75000  Biso   1.000  C
  N3       1.0000 0.77935  0.22065  0.75000  Biso   1.000  N
  F3       1.0000 0.94835  0.05165  0.75000  Biso   1.000  F
  C127     1.0000 0.09665  0.19330  0.25000  Biso   1.000  C
  C128     1.0000 0.17625  0.35250  0.25000  Biso   1.000  C
  N4       1.0000 0.22065  0.44130  0.25000  Biso   1.000  N
  F4       1.0000 0.05165  0.10330  0.25000  Biso   1.000  F
  C129     1.0000 0.80670  0.90335  0.25000  Biso   1.000  C
  C130     1.0000 0.64750  0.82375  0.25000  Biso   1.000  C
  N5       1.0000 0.55870  0.77935  0.25000  Biso   1.000  N
  F5       1.0000 0.89670  0.94835  0.25000  Biso   1.000  F
  C131     1.0000 0.09665  0.90335  0.25000  Biso   1.000  C
  C132     1.0000 0.17625  0.82375  0.25000  Biso   1.000  C
  N6       1.0000 0.22065  0.77935  0.25000  Biso   1.000  N
  F6       1.0000 0.05165  0.94835  0.25000  Biso   1.000  F
  Zn1      1.0000 0.94603  0.47302  0.44975  Biso   1.000  Zn
  Zn2      1.0000 0.52698  0.47302  0.44975  Biso   1.000  Zn
  Zn3      1.0000 0.52698  0.05397  0.44975  Biso   1.000  Zn
  Zn4      1.0000 0.05397  0.52698  0.94975  Biso   1.000  Zn
  Zn5      1.0000 0.47302  0.52698  0.94975  Biso   1.000  Zn
  Zn6      1.0000 0.47302  0.94603  0.94975  Biso   1.000  Zn
  Zn7      1.0000 0.47302  0.94603  0.55025  Biso   1.000  Zn
  Zn8      1.0000 0.47302  0.52699  0.55025  Biso   1.000  Zn
  Zn9      1.0000 0.05397  0.52698  0.55025  Biso   1.000  Zn
  Zn10     1.0000 0.52698  0.05397  0.05025  Biso   1.000  Zn
  Zn11     1.0000 0.52698  0.47302  0.05025  Biso   1.000  Zn
  Zn12     1.0000 0.94603  0.47302  0.05025  Biso   1.000  Zn
