data_image0
_cell_length_a       18.4347
_cell_length_b       18.4347
_cell_length_c       23.832
_cell_angle_alpha    90
_cell_angle_beta     90
_cell_angle_gamma    120

_symmetry_space_group_name_H-M    "P 1"
_symmetry_int_tables_number       1

loop_
  _symmetry_equiv_pos_as_xyz
  'x, y, z'

loop_
  _atom_site_label
  _atom_site_occupancy
  _atom_site_fract_x
  _atom_site_fract_y
  _atom_site_fract_z
  _atom_site_thermal_displace_type
  _atom_site_B_iso_or_equiv
  _atom_site_type_symbol
  C1       1.0000 0.44920  0.09050  0.54260  Biso   1.000  C
  C2       1.0000 0.42200  0.14610  0.56990  Biso   1.000  C
  C3       1.0000 0.37860  0.12590  0.61974  Biso   1.000  C
  H1       1.0000 0.36380  0.07500  0.63690  Biso   1.000  H
  O1       1.0000 0.48090  0.11054  0.49455  Biso   1.000  O
  O2       1.0000 0.43790  0.02820  0.57159  Biso   1.000  O
  C4       1.0000 0.90950  0.35870  0.54260  Biso   1.000  C
  C5       1.0000 0.85390  0.27590  0.56990  Biso   1.000  C
  C6       1.0000 0.87410  0.25270  0.61974  Biso   1.000  C
  H2       1.0000 0.92500  0.28880  0.63690  Biso   1.000  H
  O3       1.0000 0.88946  0.37036  0.49455  Biso   1.000  O
  O4       1.0000 0.97180  0.40970  0.57159  Biso   1.000  O
  C7       1.0000 0.64130  0.55080  0.54260  Biso   1.000  C
  C8       1.0000 0.72410  0.57800  0.56990  Biso   1.000  C
  C9       1.0000 0.74730  0.62140  0.61974  Biso   1.000  C
  H3       1.0000 0.71120  0.63620  0.63690  Biso   1.000  H
  O5       1.0000 0.62964  0.51910  0.49455  Biso   1.000  O
  O6       1.0000 0.59030  0.56210  0.57159  Biso   1.000  O
  C10      1.0000 0.55080  0.90950  0.04260  Biso   1.000  C
  C11      1.0000 0.57800  0.85390  0.06990  Biso   1.000  C
  C12      1.0000 0.62140  0.87410  0.11974  Biso   1.000  C
  H4       1.0000 0.63620  0.92500  0.13690  Biso   1.000  H
  O7       1.0000 0.51910  0.88946  0.99455  Biso   1.000  O
  O8       1.0000 0.56210  0.97180  0.07159  Biso   1.000  O
  C13      1.0000 0.09050  0.64130  0.04260  Biso   1.000  C
  C14      1.0000 0.14610  0.72410  0.06990  Biso   1.000  C
  C15      1.0000 0.12590  0.74730  0.11974  Biso   1.000  C
  H5       1.0000 0.07500  0.71120  0.13690  Biso   1.000  H
  O9       1.0000 0.11054  0.62964  0.99455  Biso   1.000  O
  O10      1.0000 0.02820  0.59030  0.07159  Biso   1.000  O
  C16      1.0000 0.35870  0.44920  0.04260  Biso   1.000  C
  C17      1.0000 0.27590  0.42200  0.06990  Biso   1.000  C
  C18      1.0000 0.25270  0.37860  0.11974  Biso   1.000  C
  H6       1.0000 0.28880  0.36380  0.13690  Biso   1.000  H
  O11      1.0000 0.37036  0.48090  0.99455  Biso   1.000  O
  O12      1.0000 0.40970  0.43790  0.07159  Biso   1.000  O
  C19      1.0000 0.09050  0.44920  0.45740  Biso   1.000  C
  C20      1.0000 0.14610  0.42200  0.43010  Biso   1.000  C
  C21      1.0000 0.12590  0.37860  0.38026  Biso   1.000  C
  H7       1.0000 0.07500  0.36380  0.36310  Biso   1.000  H
  O13      1.0000 0.11054  0.48090  0.50545  Biso   1.000  O
  O14      1.0000 0.02820  0.43790  0.42841  Biso   1.000  O
  C22      1.0000 0.35870  0.90950  0.45740  Biso   1.000  C
  C23      1.0000 0.27590  0.85390  0.43010  Biso   1.000  C
  C24      1.0000 0.25270  0.87410  0.38026  Biso   1.000  C
  H8       1.0000 0.28880  0.92500  0.36310  Biso   1.000  H
  O15      1.0000 0.37036  0.88946  0.50545  Biso   1.000  O
  O16      1.0000 0.40970  0.97180  0.42841  Biso   1.000  O
  C25      1.0000 0.55080  0.64130  0.45740  Biso   1.000  C
  C26      1.0000 0.57800  0.72410  0.43010  Biso   1.000  C
  C27      1.0000 0.62140  0.74730  0.38026  Biso   1.000  C
  H9       1.0000 0.63620  0.71120  0.36310  Biso   1.000  H
  O17      1.0000 0.51910  0.62964  0.50545  Biso   1.000  O
  O18      1.0000 0.56210  0.59030  0.42841  Biso   1.000  O
  C28      1.0000 0.90950  0.55080  0.95740  Biso   1.000  C
  C29      1.0000 0.85390  0.57800  0.93010  Biso   1.000  C
  C30      1.0000 0.87410  0.62140  0.88026  Biso   1.000  C
  H10      1.0000 0.92500  0.63620  0.86310  Biso   1.000  H
  O19      1.0000 0.88946  0.51910  0.00545  Biso   1.000  O
  O20      1.0000 0.97180  0.56210  0.92841  Biso   1.000  O
  C31      1.0000 0.64130  0.09050  0.95740  Biso   1.000  C
  C32      1.0000 0.72410  0.14610  0.93010  Biso   1.000  C
  C33      1.0000 0.74730  0.12590  0.88026  Biso   1.000  C
  H11      1.0000 0.71120  0.07500  0.86310  Biso   1.000  H
  O21      1.0000 0.62964  0.11054  0.00545  Biso   1.000  O
  O22      1.0000 0.59030  0.02820  0.92841  Biso   1.000  O
  C34      1.0000 0.44920  0.35870  0.95740  Biso   1.000  C
  C35      1.0000 0.42200  0.27590  0.93010  Biso   1.000  C
  C36      1.0000 0.37860  0.25270  0.88026  Biso   1.000  C
  H12      1.0000 0.36380  0.28880  0.86310  Biso   1.000  H
  O23      1.0000 0.48090  0.37036  0.00545  Biso   1.000  O
  O24      1.0000 0.43790  0.40970  0.92841  Biso   1.000  O
  C37      1.0000 0.55080  0.90950  0.45740  Biso   1.000  C
  C38      1.0000 0.57800  0.85390  0.43010  Biso   1.000  C
  C39      1.0000 0.62140  0.87410  0.38026  Biso   1.000  C
  H13      1.0000 0.63620  0.92500  0.36310  Biso   1.000  H
  O25      1.0000 0.51910  0.88946  0.50545  Biso   1.000  O
  O26      1.0000 0.56210  0.97180  0.42841  Biso   1.000  O
  C40      1.0000 0.09050  0.64130  0.45740  Biso   1.000  C
  C41      1.0000 0.14610  0.72410  0.43010  Biso   1.000  C
  C42      1.0000 0.12590  0.74730  0.38026  Biso   1.000  C
  H14      1.0000 0.07500  0.71120  0.36310  Biso   1.000  H
  O27      1.0000 0.11054  0.62964  0.50545  Biso   1.000  O
  O28      1.0000 0.02820  0.59030  0.42841  Biso   1.000  O
  C43      1.0000 0.35870  0.44920  0.45740  Biso   1.000  C
  C44      1.0000 0.27590  0.42200  0.43010  Biso   1.000  C
  C45      1.0000 0.25270  0.37860  0.38026  Biso   1.000  C
  H15      1.0000 0.28880  0.36380  0.36310  Biso   1.000  H
  O29      1.0000 0.37036  0.48090  0.50545  Biso   1.000  O
  O30      1.0000 0.40970  0.43790  0.42841  Biso   1.000  O
  C46      1.0000 0.44920  0.09050  0.95740  Biso   1.000  C
  C47      1.0000 0.42200  0.14610  0.93010  Biso   1.000  C
  C48      1.0000 0.37860  0.12590  0.88026  Biso   1.000  C
  H16      1.0000 0.36380  0.07500  0.86310  Biso   1.000  H
  O31      1.0000 0.48090  0.11054  0.00545  Biso   1.000  O
  O32      1.0000 0.43790  0.02820  0.92841  Biso   1.000  O
  C49      1.0000 0.90950  0.35870  0.95740  Biso   1.000  C
  C50      1.0000 0.85390  0.27590  0.93010  Biso   1.000  C
  C51      1.0000 0.87410  0.25270  0.88026  Biso   1.000  C
  H17      1.0000 0.92500  0.28880  0.86310  Biso   1.000  H
  O33      1.0000 0.88946  0.37036  0.00545  Biso   1.000  O
  O34      1.0000 0.97180  0.40970  0.92841  Biso   1.000  O
  C52      1.0000 0.64130  0.55080  0.95740  Biso   1.000  C
  C53      1.0000 0.72410  0.57800  0.93010  Biso   1.000  C
  C54      1.0000 0.74730  0.62140  0.88026  Biso   1.000  C
  H18      1.0000 0.71120  0.63620  0.86310  Biso   1.000  H
  O35      1.0000 0.62964  0.51910  0.00545  Biso   1.000  O
  O36      1.0000 0.59030  0.56210  0.92841  Biso   1.000  O
  C55      1.0000 0.90950  0.55080  0.54260  Biso   1.000  C
  C56      1.0000 0.85390  0.57800  0.56990  Biso   1.000  C
  C57      1.0000 0.87410  0.62140  0.61974  Biso   1.000  C
  H19      1.0000 0.92500  0.63620  0.63690  Biso   1.000  H
  O37      1.0000 0.88946  0.51910  0.49455  Biso   1.000  O
  O38      1.0000 0.97180  0.56210  0.57159  Biso   1.000  O
  C58      1.0000 0.64130  0.09050  0.54260  Biso   1.000  C
  C59      1.0000 0.72410  0.14610  0.56990  Biso   1.000  C
  C60      1.0000 0.74730  0.12590  0.61974  Biso   1.000  C
  H20      1.0000 0.71120  0.07500  0.63690  Biso   1.000  H
  O39      1.0000 0.62964  0.11054  0.49455  Biso   1.000  O
  O40      1.0000 0.59030  0.02820  0.57159  Biso   1.000  O
  C61      1.0000 0.44920  0.35870  0.54260  Biso   1.000  C
  C62      1.0000 0.42200  0.27590  0.56990  Biso   1.000  C
  C63      1.0000 0.37860  0.25270  0.61974  Biso   1.000  C
  H21      1.0000 0.36380  0.28880  0.63690  Biso   1.000  H
  O41      1.0000 0.48090  0.37036  0.49455  Biso   1.000  O
  O42      1.0000 0.43790  0.40970  0.57159  Biso   1.000  O
  C64      1.0000 0.09050  0.44920  0.04260  Biso   1.000  C
  C65      1.0000 0.14610  0.42200  0.06990  Biso   1.000  C
  C66      1.0000 0.12590  0.37860  0.11974  Biso   1.000  C
  H22      1.0000 0.07500  0.36380  0.13690  Biso   1.000  H
  O43      1.0000 0.11054  0.48090  0.99455  Biso   1.000  O
  O44      1.0000 0.02820  0.43790  0.07159  Biso   1.000  O
  C67      1.0000 0.35870  0.90950  0.04260  Biso   1.000  C
  C68      1.0000 0.27590  0.85390  0.06990  Biso   1.000  C
  C69      1.0000 0.25270  0.87410  0.11974  Biso   1.000  C
  H23      1.0000 0.28880  0.92500  0.13690  Biso   1.000  H
  O45      1.0000 0.37036  0.88946  0.99455  Biso   1.000  O
  O46      1.0000 0.40970  0.97180  0.07159  Biso   1.000  O
  C70      1.0000 0.55080  0.64130  0.04260  Biso   1.000  C
  C71      1.0000 0.57800  0.72410  0.06990  Biso   1.000  C
  C72      1.0000 0.62140  0.74730  0.11974  Biso   1.000  C
  H24      1.0000 0.63620  0.71120  0.13690  Biso   1.000  H
  O47      1.0000 0.51910  0.62964  0.99455  Biso   1.000  O
  O48      1.0000 0.56210  0.59030  0.07159  Biso   1.000  O
  C73      1.0000 0.44260  0.22130  0.54560  Biso   1.000  C
  H25      1.0000 0.47130  0.23565  0.51160  Biso   1.000  H
  C74      1.0000 0.35690  0.17845  0.64420  Biso   1.000  C
  C75      1.0000 0.30950  0.15475  0.69970  Biso   1.000  C
  C76      1.0000 0.22560  0.11280  0.70080  Biso   1.000  C
  H26      1.0000 0.19750  0.09875  0.66670  Biso   1.000  H
  H27      1.0000 0.46760  0.23380  0.78130  Biso   1.000  H
  C77      1.0000 0.77870  0.22130  0.54560  Biso   1.000  C
  H28      1.0000 0.76435  0.23565  0.51160  Biso   1.000  H
  C78      1.0000 0.82155  0.17845  0.64420  Biso   1.000  C
  C79      1.0000 0.84525  0.15475  0.69970  Biso   1.000  C
  C80      1.0000 0.88720  0.11280  0.70080  Biso   1.000  C
  H29      1.0000 0.90125  0.09875  0.66670  Biso   1.000  H
  H30      1.0000 0.76620  0.23380  0.78130  Biso   1.000  H
  C81      1.0000 0.77870  0.55740  0.54560  Biso   1.000  C
  H31      1.0000 0.76435  0.52870  0.51160  Biso   1.000  H
  C82      1.0000 0.82155  0.64310  0.64420  Biso   1.000  C
  C83      1.0000 0.84525  0.69050  0.69970  Biso   1.000  C
  C84      1.0000 0.88720  0.77440  0.70080  Biso   1.000  C
  H32      1.0000 0.90125  0.80250  0.66670  Biso   1.000  H
  H33      1.0000 0.76620  0.53240  0.78130  Biso   1.000  H
  C85      1.0000 0.55740  0.77870  0.04560  Biso   1.000  C
  H34      1.0000 0.52870  0.76435  0.01160  Biso   1.000  H
  C86      1.0000 0.64310  0.82155  0.14420  Biso   1.000  C
  C87      1.0000 0.69050  0.84525  0.19970  Biso   1.000  C
  C88      1.0000 0.77440  0.88720  0.20080  Biso   1.000  C
  H35      1.0000 0.80250  0.90125  0.16670  Biso   1.000  H
  H36      1.0000 0.53240  0.76620  0.28130  Biso   1.000  H
  C89      1.0000 0.22130  0.77870  0.04560  Biso   1.000  C
  H37      1.0000 0.23565  0.76435  0.01160  Biso   1.000  H
  C90      1.0000 0.17845  0.82155  0.14420  Biso   1.000  C
  C91      1.0000 0.15475  0.84525  0.19970  Biso   1.000  C
  C92      1.0000 0.11280  0.88720  0.20080  Biso   1.000  C
  H38      1.0000 0.09875  0.90125  0.16670  Biso   1.000  H
  H39      1.0000 0.23380  0.76620  0.28130  Biso   1.000  H
  C93      1.0000 0.22130  0.44260  0.04560  Biso   1.000  C
  H40      1.0000 0.23565  0.47130  0.01160  Biso   1.000  H
  C94      1.0000 0.17845  0.35690  0.14420  Biso   1.000  C
  C95      1.0000 0.15475  0.30950  0.19970  Biso   1.000  C
  C96      1.0000 0.11280  0.22560  0.20080  Biso   1.000  C
  H41      1.0000 0.09875  0.19750  0.16670  Biso   1.000  H
  H42      1.0000 0.23380  0.46760  0.28130  Biso   1.000  H
  C97      1.0000 0.22130  0.44260  0.45440  Biso   1.000  C
  H43      1.0000 0.23565  0.47130  0.48840  Biso   1.000  H
  C98      1.0000 0.17845  0.35690  0.35580  Biso   1.000  C
  C99      1.0000 0.15475  0.30950  0.30030  Biso   1.000  C
  C100     1.0000 0.11280  0.22560  0.29920  Biso   1.000  C
  H44      1.0000 0.09875  0.19750  0.33330  Biso   1.000  H
  H45      1.0000 0.23380  0.46760  0.21870  Biso   1.000  H
  C101     1.0000 0.22130  0.77870  0.45440  Biso   1.000  C
  H46      1.0000 0.23565  0.76435  0.48840  Biso   1.000  H
  C102     1.0000 0.17845  0.82155  0.35580  Biso   1.000  C
  C103     1.0000 0.15475  0.84525  0.30030  Biso   1.000  C
  C104     1.0000 0.11280  0.88720  0.29920  Biso   1.000  C
  H47      1.0000 0.09875  0.90125  0.33330  Biso   1.000  H
  H48      1.0000 0.23380  0.76620  0.21870  Biso   1.000  H
  C105     1.0000 0.55740  0.77870  0.45440  Biso   1.000  C
  H49      1.0000 0.52870  0.76435  0.48840  Biso   1.000  H
  C106     1.0000 0.64310  0.82155  0.35580  Biso   1.000  C
  C107     1.0000 0.69050  0.84525  0.30030  Biso   1.000  C
  C108     1.0000 0.77440  0.88720  0.29920  Biso   1.000  C
  H50      1.0000 0.80250  0.90125  0.33330  Biso   1.000  H
  H51      1.0000 0.53240  0.76620  0.21870  Biso   1.000  H
  C109     1.0000 0.77870  0.55740  0.95440  Biso   1.000  C
  H52      1.0000 0.76435  0.52870  0.98840  Biso   1.000  H
  C110     1.0000 0.82155  0.64310  0.85580  Biso   1.000  C
  C111     1.0000 0.84525  0.69050  0.80030  Biso   1.000  C
  C112     1.0000 0.88720  0.77440  0.79920  Biso   1.000  C
  H53      1.0000 0.90125  0.80250  0.83330  Biso   1.000  H
  H54      1.0000 0.76620  0.53240  0.71870  Biso   1.000  H
  C113     1.0000 0.77870  0.22130  0.95440  Biso   1.000  C
  H55      1.0000 0.76435  0.23565  0.98840  Biso   1.000  H
  C114     1.0000 0.82155  0.17845  0.85580  Biso   1.000  C
  C115     1.0000 0.84525  0.15475  0.80030  Biso   1.000  C
  C116     1.0000 0.88720  0.11280  0.79920  Biso   1.000  C
  H56      1.0000 0.90125  0.09875  0.83330  Biso   1.000  H
  H57      1.0000 0.76620  0.23380  0.71870  Biso   1.000  H
  C117     1.0000 0.44260  0.22130  0.95440  Biso   1.000  C
  H58      1.0000 0.47130  0.23565  0.98840  Biso   1.000  H
  C118     1.0000 0.35690  0.17845  0.85580  Biso   1.000  C
  C119     1.0000 0.30950  0.15475  0.80030  Biso   1.000  C
  C120     1.0000 0.22560  0.11280  0.79920  Biso   1.000  C
  H59      1.0000 0.19750  0.09875  0.83330  Biso   1.000  H
  H60      1.0000 0.46760  0.23380  0.71870  Biso   1.000  H
  C121     1.0000 0.35390  0.17695  0.75000  Biso   1.000  C
  C122     1.0000 0.17730  0.08865  0.75000  Biso   1.000  C
  N1       1.0000 0.44070  0.22035  0.75000  Biso   1.000  N
  C123     1.0000 0.82305  0.17695  0.75000  Biso   1.000  C
  C124     1.0000 0.91135  0.08865  0.75000  Biso   1.000  C
  N2       1.0000 0.77965  0.22035  0.75000  Biso   1.000  N
  C125     1.0000 0.82305  0.64610  0.75000  Biso   1.000  C
  C126     1.0000 0.91135  0.82270  0.75000  Biso   1.000  C
  N3       1.0000 0.77965  0.55930  0.75000  Biso   1.000  N
  C127     1.0000 0.64610  0.82305  0.25000  Biso   1.000  C
  C128     1.0000 0.82270  0.91135  0.25000  Biso   1.000  C
  N4       1.0000 0.55930  0.77965  0.25000  Biso   1.000  N
  C129     1.0000 0.17695  0.82305  0.25000  Biso   1.000  C
  C130     1.0000 0.08865  0.91135  0.25000  Biso   1.000  C
  N5       1.0000 0.22035  0.77965  0.25000  Biso   1.000  N
  C131     1.0000 0.17695  0.35390  0.25000  Biso   1.000  C
  C132     1.0000 0.08865  0.17730  0.25000  Biso   1.000  C
  N6       1.0000 0.22035  0.44070  0.25000  Biso   1.000  N
  Cu1      1.0000 0.52406  0.04813  0.45448  Biso   1.000  Cu
  Cu2      1.0000 0.95187  0.47593  0.45448  Biso   1.000  Cu
  Cu3      1.0000 0.52406  0.47594  0.45448  Biso   1.000  Cu
  Cu4      1.0000 0.47594  0.95187  0.95448  Biso   1.000  Cu
  Cu5      1.0000 0.04813  0.52407  0.95448  Biso   1.000  Cu
  Cu6      1.0000 0.47593  0.52406  0.95448  Biso   1.000  Cu
  Cu7      1.0000 0.04813  0.52406  0.54552  Biso   1.000  Cu
  Cu8      1.0000 0.47593  0.95187  0.54552  Biso   1.000  Cu
  Cu9      1.0000 0.47594  0.52407  0.54552  Biso   1.000  Cu
  Cu10     1.0000 0.95187  0.47594  0.04552  Biso   1.000  Cu
  Cu11     1.0000 0.52406  0.04813  0.04552  Biso   1.000  Cu
  Cu12     1.0000 0.52406  0.47593  0.04552  Biso   1.000  Cu
  F1       1.0000 0.10190  0.00600  0.75000  Biso   1.000  F
  F2       1.0000 0.99400  0.09590  0.75000  Biso   1.000  F
  F3       1.0000 0.90410  0.89810  0.75000  Biso   1.000  F
  F4       1.0000 0.89810  0.99400  0.25000  Biso   1.000  F
  F5       1.0000 0.00600  0.90410  0.25000  Biso   1.000  F
  F6       1.0000 0.09590  0.10190  0.25000  Biso   1.000  F
  F7       1.0000 0.00600  0.10190  0.25000  Biso   1.000  F
  F8       1.0000 0.09590  0.99400  0.25000  Biso   1.000  F
  F9       1.0000 0.89810  0.90410  0.25000  Biso   1.000  F
  F10      1.0000 0.99400  0.89810  0.75000  Biso   1.000  F
  F11      1.0000 0.90410  0.00600  0.75000  Biso   1.000  F
  F12      1.0000 0.10190  0.09590  0.75000  Biso   1.000  F
