data_image0
_cell_length_a       10.9488
_cell_length_b       11.7312
_cell_length_c       21.6864
_cell_angle_alpha    90
_cell_angle_beta     90
_cell_angle_gamma    90

_symmetry_space_group_name_H-M    "P 1"
_symmetry_int_tables_number       1

loop_
  _symmetry_equiv_pos_as_xyz
  'x, y, z'

loop_
  _atom_site_label
  _atom_site_occupancy
  _atom_site_fract_x
  _atom_site_fract_y
  _atom_site_fract_z
  _atom_site_thermal_displace_type
  _atom_site_B_iso_or_equiv
  _atom_site_type_symbol
  Zn1      1.0000 0.86451  0.89341  0.88403  Biso   1.000  Zn
  Zn2      1.0000 0.65465  0.19154  0.84150  Biso   1.000  Zn
  N1       1.0000 0.81700  0.88950  0.78640  Biso   1.000  N
  O1       1.0000 0.77990  0.09830  0.88221  Biso   1.000  O
  N2       1.0000 0.00610  0.89470  0.37660  Biso   1.000  N
  O2       1.0000 0.81580  0.87860  0.97876  Biso   1.000  O
  N3       1.0000 0.51540  0.71300  0.11230  Biso   1.000  N
  N4       1.0000 0.69160  0.83100  0.88420  Biso   1.000  N
  C1       1.0000 0.89270  0.11530  0.88790  Biso   1.000  C
  C2       1.0000 0.70110  0.78490  0.15690  Biso   1.000  C
  C3       1.0000 0.74190  0.81590  0.09830  Biso   1.000  C
  H1       1.0000 0.82000  0.85000  0.09360  Biso   1.000  H
  N5       1.0000 0.63610  0.80050  0.93890  Biso   1.000  N
  C4       1.0000 0.71710  0.88110  0.66860  Biso   1.000  C
  H2       1.0000 0.68340  0.87510  0.62830  Biso   1.000  H
  C5       1.0000 0.67030  0.79760  0.04760  Biso   1.000  C
  C6       1.0000 0.70020  0.85450  0.77690  Biso   1.000  C
  C7       1.0000 0.19520  0.98200  0.34460  Biso   1.000  C
  H3       1.0000 0.24500  0.00960  0.31200  Biso   1.000  H
  C8       1.0000 0.55850  0.74540  0.05600  Biso   1.000  C
  H4       1.0000 0.50910  0.73130  0.02080  Biso   1.000  H
  N6       1.0000 0.88100  0.85430  0.20600  Biso   1.000  N
  O3       1.0000 0.96650  0.03400  0.89088  Biso   1.000  O
  N7       1.0000 0.93160  0.87000  0.26370  Biso   1.000  N
  C9       1.0000 0.64910  0.85120  0.71920  Biso   1.000  C
  H5       1.0000 0.56650  0.82820  0.71430  Biso   1.000  H
  C10      1.0000 0.71190  0.82820  0.98380  Biso   1.000  C
  C11      1.0000 0.63470  0.82050  0.83240  Biso   1.000  C
  H6       1.0000 0.55360  0.79200  0.83050  Biso   1.000  H
  C12      1.0000 0.58820  0.73270  0.16090  Biso   1.000  C
  H7       1.0000 0.56050  0.70940  0.20050  Biso   1.000  H
  C13      1.0000 0.04500  0.90400  0.43550  Biso   1.000  C
  H8       1.0000 0.99250  0.87820  0.46750  Biso   1.000  H
  C14      1.0000 0.87930  0.92260  0.73760  Biso   1.000  C
  H9       1.0000 0.96000  0.95030  0.74370  Biso   1.000  H
  C15      1.0000 0.03410  0.92490  0.27060  Biso   1.000  C
  H10      1.0000 0.07640  0.95650  0.23640  Biso   1.000  H
  C16      1.0000 0.08090  0.93550  0.33360  Biso   1.000  C
  C17      1.0000 0.83280  0.91930  0.67660  Biso   1.000  C
  H11      1.0000 0.88120  0.94300  0.64260  Biso   1.000  H
  C18      1.0000 0.15780  0.94950  0.45190  Biso   1.000  C
  H12      1.0000 0.18150  0.95470  0.49390  Biso   1.000  H
  C19      1.0000 0.23350  0.98640  0.40600  Biso   1.000  C
  H13      1.0000 0.31230  0.01500  0.41580  Biso   1.000  H
  C20      1.0000 0.94150  0.23580  0.89380  Biso   1.000  C
  H14      1.0000 0.88200  0.28300  0.91590  Biso   1.000  H
  H15      1.0000 0.95550  0.26770  0.85270  Biso   1.000  H
  H16      1.0000 0.01870  0.23460  0.91670  Biso   1.000  H
  O4       1.0000 0.72540  0.77280  0.26501  Biso   1.000  O
  C21      1.0000 0.77290  0.80280  0.21440  Biso   1.000  C
  Zn3      1.0000 0.63549  0.10659  0.38403  Biso   1.000  Zn
  Zn4      1.0000 0.84535  0.80846  0.34150  Biso   1.000  Zn
  N8       1.0000 0.68300  0.11050  0.28640  Biso   1.000  N
  O5       1.0000 0.72010  0.90170  0.38221  Biso   1.000  O
  N9       1.0000 0.49390  0.10530  0.87660  Biso   1.000  N
  O6       1.0000 0.68420  0.12140  0.47876  Biso   1.000  O
  N10      1.0000 0.98460  0.28700  0.61230  Biso   1.000  N
  N11      1.0000 0.80840  0.16900  0.38420  Biso   1.000  N
  C22      1.0000 0.60730  0.88470  0.38790  Biso   1.000  C
  C23      1.0000 0.79890  0.21510  0.65690  Biso   1.000  C
  C24      1.0000 0.75810  0.18410  0.59830  Biso   1.000  C
  H17      1.0000 0.68000  0.15000  0.59360  Biso   1.000  H
  N12      1.0000 0.86390  0.19950  0.43890  Biso   1.000  N
  C25      1.0000 0.78290  0.11890  0.16860  Biso   1.000  C
  H18      1.0000 0.81660  0.12490  0.12830  Biso   1.000  H
  C26      1.0000 0.82970  0.20240  0.54760  Biso   1.000  C
  C27      1.0000 0.79980  0.14550  0.27690  Biso   1.000  C
  C28      1.0000 0.30480  0.01800  0.84460  Biso   1.000  C
  H19      1.0000 0.25500  0.99040  0.81200  Biso   1.000  H
  C29      1.0000 0.94150  0.25460  0.55600  Biso   1.000  C
  H20      1.0000 0.99090  0.26870  0.52080  Biso   1.000  H
  N13      1.0000 0.61900  0.14570  0.70600  Biso   1.000  N
  O7       1.0000 0.53350  0.96600  0.39088  Biso   1.000  O
  N14      1.0000 0.56840  0.13000  0.76370  Biso   1.000  N
  C30      1.0000 0.85090  0.14880  0.21920  Biso   1.000  C
  H21      1.0000 0.93350  0.17180  0.21430  Biso   1.000  H
  C31      1.0000 0.78810  0.17180  0.48380  Biso   1.000  C
  C32      1.0000 0.86530  0.17950  0.33240  Biso   1.000  C
  H22      1.0000 0.94640  0.20800  0.33050  Biso   1.000  H
  C33      1.0000 0.91180  0.26730  0.66090  Biso   1.000  C
  H23      1.0000 0.93950  0.29060  0.70050  Biso   1.000  H
  C34      1.0000 0.45500  0.09600  0.93550  Biso   1.000  C
  H24      1.0000 0.50750  0.12180  0.96750  Biso   1.000  H
  C35      1.0000 0.62070  0.07740  0.23760  Biso   1.000  C
  H25      1.0000 0.54000  0.04970  0.24370  Biso   1.000  H
  C36      1.0000 0.46590  0.07510  0.77060  Biso   1.000  C
  H26      1.0000 0.42360  0.04350  0.73640  Biso   1.000  H
  C37      1.0000 0.41910  0.06450  0.83360  Biso   1.000  C
  C38      1.0000 0.66720  0.08070  0.17660  Biso   1.000  C
  H27      1.0000 0.61880  0.05700  0.14260  Biso   1.000  H
  C39      1.0000 0.34220  0.05050  0.95190  Biso   1.000  C
  H28      1.0000 0.31850  0.04530  0.99390  Biso   1.000  H
  C40      1.0000 0.26650  0.01360  0.90600  Biso   1.000  C
  H29      1.0000 0.18770  0.98500  0.91580  Biso   1.000  H
  C41      1.0000 0.55850  0.76420  0.39380  Biso   1.000  C
  H30      1.0000 0.61800  0.71700  0.41590  Biso   1.000  H
  H31      1.0000 0.54450  0.73230  0.35270  Biso   1.000  H
  H32      1.0000 0.48130  0.76540  0.41670  Biso   1.000  H
  O8       1.0000 0.77460  0.22720  0.76501  Biso   1.000  O
  C42      1.0000 0.72710  0.19720  0.71440  Biso   1.000  C
  Zn5      1.0000 0.13549  0.39341  0.61597  Biso   1.000  Zn
  Zn6      1.0000 0.34535  0.69154  0.65850  Biso   1.000  Zn
  N15      1.0000 0.18300  0.38950  0.71360  Biso   1.000  N
  O9       1.0000 0.22010  0.59830  0.61779  Biso   1.000  O
  N16      1.0000 0.99390  0.39470  0.12340  Biso   1.000  N
  O10      1.0000 0.18420  0.37860  0.52124  Biso   1.000  O
  N17      1.0000 0.48460  0.21300  0.38770  Biso   1.000  N
  N18      1.0000 0.30840  0.33100  0.61580  Biso   1.000  N
  C43      1.0000 0.10730  0.61530  0.61210  Biso   1.000  C
  C44      1.0000 0.29890  0.28490  0.34310  Biso   1.000  C
  C45      1.0000 0.25810  0.31590  0.40170  Biso   1.000  C
  H33      1.0000 0.18000  0.35000  0.40640  Biso   1.000  H
  N19      1.0000 0.36390  0.30050  0.56110  Biso   1.000  N
  C46      1.0000 0.28290  0.38110  0.83140  Biso   1.000  C
  H34      1.0000 0.31660  0.37510  0.87170  Biso   1.000  H
  C47      1.0000 0.32970  0.29760  0.45240  Biso   1.000  C
  C48      1.0000 0.29980  0.35450  0.72310  Biso   1.000  C
  C49      1.0000 0.80480  0.48200  0.15540  Biso   1.000  C
  H35      1.0000 0.75500  0.50960  0.18800  Biso   1.000  H
  C50      1.0000 0.44150  0.24540  0.44400  Biso   1.000  C
  H36      1.0000 0.49090  0.23130  0.47920  Biso   1.000  H
  N20      1.0000 0.11900  0.35430  0.29400  Biso   1.000  N
  O11      1.0000 0.03350  0.53400  0.60912  Biso   1.000  O
  N21      1.0000 0.06840  0.37000  0.23630  Biso   1.000  N
  C51      1.0000 0.35090  0.35120  0.78080  Biso   1.000  C
  H37      1.0000 0.43350  0.32820  0.78570  Biso   1.000  H
  C52      1.0000 0.28810  0.32820  0.51620  Biso   1.000  C
  C53      1.0000 0.36530  0.32050  0.66760  Biso   1.000  C
  H38      1.0000 0.44640  0.29200  0.66950  Biso   1.000  H
  C54      1.0000 0.41180  0.23270  0.33910  Biso   1.000  C
  H39      1.0000 0.43950  0.20940  0.29950  Biso   1.000  H
  C55      1.0000 0.95500  0.40400  0.06450  Biso   1.000  C
  H40      1.0000 0.00750  0.37820  0.03250  Biso   1.000  H
  C56      1.0000 0.12070  0.42260  0.76240  Biso   1.000  C
  H41      1.0000 0.04000  0.45030  0.75630  Biso   1.000  H
  C57      1.0000 0.96590  0.42490  0.22940  Biso   1.000  C
  H42      1.0000 0.92360  0.45650  0.26360  Biso   1.000  H
  C58      1.0000 0.91910  0.43550  0.16640  Biso   1.000  C
  C59      1.0000 0.16720  0.41930  0.82340  Biso   1.000  C
  H43      1.0000 0.11880  0.44300  0.85740  Biso   1.000  H
  C60      1.0000 0.84220  0.44950  0.04810  Biso   1.000  C
  H44      1.0000 0.81850  0.45470  0.00610  Biso   1.000  H
  C61      1.0000 0.76650  0.48640  0.09400  Biso   1.000  C
  H45      1.0000 0.68770  0.51500  0.08420  Biso   1.000  H
  C62      1.0000 0.05850  0.73580  0.60620  Biso   1.000  C
  H46      1.0000 0.11800  0.78300  0.58410  Biso   1.000  H
  H47      1.0000 0.04450  0.76770  0.64730  Biso   1.000  H
  H48      1.0000 0.98130  0.73460  0.58330  Biso   1.000  H
  O12      1.0000 0.27460  0.27280  0.23499  Biso   1.000  O
  C63      1.0000 0.22710  0.30280  0.28560  Biso   1.000  C
  Zn7      1.0000 0.36451  0.60659  0.11597  Biso   1.000  Zn
  Zn8      1.0000 0.15465  0.30846  0.15850  Biso   1.000  Zn
  N22      1.0000 0.31700  0.61050  0.21360  Biso   1.000  N
  O13      1.0000 0.27990  0.40170  0.11779  Biso   1.000  O
  N23      1.0000 0.50610  0.60530  0.62340  Biso   1.000  N
  O14      1.0000 0.31580  0.62140  0.02124  Biso   1.000  O
  N24      1.0000 0.01540  0.78700  0.88770  Biso   1.000  N
  N25      1.0000 0.19160  0.66900  0.11580  Biso   1.000  N
  C64      1.0000 0.39270  0.38470  0.11210  Biso   1.000  C
  C65      1.0000 0.20110  0.71510  0.84310  Biso   1.000  C
  C66      1.0000 0.24190  0.68410  0.90170  Biso   1.000  C
  H49      1.0000 0.32000  0.65000  0.90640  Biso   1.000  H
  N26      1.0000 0.13610  0.69950  0.06110  Biso   1.000  N
  C67      1.0000 0.21710  0.61890  0.33140  Biso   1.000  C
  H50      1.0000 0.18340  0.62490  0.37170  Biso   1.000  H
  C68      1.0000 0.17030  0.70240  0.95240  Biso   1.000  C
  C69      1.0000 0.20020  0.64550  0.22310  Biso   1.000  C
  C70      1.0000 0.69520  0.51800  0.65540  Biso   1.000  C
  H51      1.0000 0.74500  0.49040  0.68800  Biso   1.000  H
  C71      1.0000 0.05850  0.75460  0.94400  Biso   1.000  C
  H52      1.0000 0.00910  0.76870  0.97920  Biso   1.000  H
  N27      1.0000 0.38100  0.64570  0.79400  Biso   1.000  N
  O15      1.0000 0.46650  0.46600  0.10912  Biso   1.000  O
  N28      1.0000 0.43160  0.63000  0.73630  Biso   1.000  N
  C72      1.0000 0.14910  0.64880  0.28080  Biso   1.000  C
  H53      1.0000 0.06650  0.67180  0.28570  Biso   1.000  H
  C73      1.0000 0.21190  0.67180  0.01620  Biso   1.000  C
  C74      1.0000 0.13470  0.67950  0.16760  Biso   1.000  C
  H54      1.0000 0.05360  0.70800  0.16950  Biso   1.000  H
  C75      1.0000 0.08820  0.76730  0.83910  Biso   1.000  C
  H55      1.0000 0.06050  0.79060  0.79950  Biso   1.000  H
  C76      1.0000 0.54500  0.59600  0.56450  Biso   1.000  C
  H56      1.0000 0.49250  0.62180  0.53250  Biso   1.000  H
  C77      1.0000 0.37930  0.57740  0.26240  Biso   1.000  C
  H57      1.0000 0.46000  0.54970  0.25630  Biso   1.000  H
  C78      1.0000 0.53410  0.57510  0.72940  Biso   1.000  C
  H58      1.0000 0.57640  0.54350  0.76360  Biso   1.000  H
  C79      1.0000 0.58090  0.56450  0.66640  Biso   1.000  C
  C80      1.0000 0.33280  0.58070  0.32340  Biso   1.000  C
  H59      1.0000 0.38120  0.55700  0.35740  Biso   1.000  H
  C81      1.0000 0.65780  0.55050  0.54810  Biso   1.000  C
  H60      1.0000 0.68150  0.54530  0.50610  Biso   1.000  H
  C82      1.0000 0.73350  0.51360  0.59400  Biso   1.000  C
  H61      1.0000 0.81230  0.48500  0.58420  Biso   1.000  H
  C83      1.0000 0.44150  0.26420  0.10620  Biso   1.000  C
  H62      1.0000 0.38200  0.21700  0.08410  Biso   1.000  H
  H63      1.0000 0.45550  0.23230  0.14730  Biso   1.000  H
  H64      1.0000 0.51870  0.26540  0.08330  Biso   1.000  H
  O16      1.0000 0.22540  0.72720  0.73499  Biso   1.000  O
  C84      1.0000 0.27290  0.69720  0.78560  Biso   1.000  C
