data_image0
_cell_length_a       28.132
_cell_length_b       12.615
_cell_length_c       24.746
_cell_angle_alpha    90
_cell_angle_beta     120.026
_cell_angle_gamma    90

_symmetry_space_group_name_H-M    "P 1"
_symmetry_int_tables_number       1

loop_
  _symmetry_equiv_pos_as_xyz
  'x, y, z'

loop_
  _atom_site_label
  _atom_site_occupancy
  _atom_site_fract_x
  _atom_site_fract_y
  _atom_site_fract_z
  _atom_site_thermal_displace_type
  _atom_site_B_iso_or_equiv
  _atom_site_type_symbol
  C1       1.0000 0.32665  0.39830  0.47850  Biso   1.000  C
  H1       1.0000 0.32230  0.45030  0.50230  Biso   1.000  H
  C2       1.0000 0.32122  0.25360  0.43220  Biso   1.000  C
  H2       1.0000 0.31200  0.18450  0.41760  Biso   1.000  H
  C3       1.0000 0.35250  0.31920  0.42000  Biso   1.000  C
  H3       1.0000 0.36860  0.30410  0.39600  Biso   1.000  H
  C4       1.0000 0.38162  0.50980  0.44550  Biso   1.000  C
  H4       1.0000 0.37340  0.56620  0.46630  Biso   1.000  H
  H5       1.0000 0.36560  0.52930  0.40190  Biso   1.000  H
  C5       1.0000 0.44295  0.50180  0.47390  Biso   1.000  C
  C6       1.0000 0.47668  0.46810  0.53480  Biso   1.000  C
  H6       1.0000 0.46110  0.44590  0.55830  Biso   1.000  H
  C7       1.0000 0.46695  0.53320  0.43900  Biso   1.000  C
  H7       1.0000 0.44490  0.55510  0.39780  Biso   1.000  H
  C8       1.0000 0.17325  0.45210  0.46440  Biso   1.000  C
  H8       1.0000 0.17820  0.45940  0.50430  Biso   1.000  H
  C9       1.0000 0.17910  0.39400  0.38760  Biso   1.000  C
  H9       1.0000 0.18850  0.35300  0.36320  Biso   1.000  H
  C10      1.0000 0.14130  0.51550  0.41530  Biso   1.000  C
  H10      1.0000 0.12060  0.57310  0.41500  Biso   1.000  H
  C11      1.0000 0.11800  0.52170  0.30300  Biso   1.000  C
  H11      1.0000 0.12740  0.47960  0.27680  Biso   1.000  H
  H12      1.0000 0.13070  0.59350  0.30400  Biso   1.000  H
  C12      1.0000 0.02800  0.42700  0.26260  Biso   1.000  C
  H13      1.0000 0.04680  0.36300  0.27110  Biso   1.000  H
  C13      1.0000 0.05680  0.52200  0.27550  Biso   1.000  C
  C14      1.0000 0.02820  0.61570  0.26300  Biso   1.000  C
  H14      1.0000 0.04700  0.67970  0.27200  Biso   1.000  H
  N1       1.0000 0.30506  0.30360  0.46918  Biso   1.000  N
  N2       1.0000 0.35578  0.41190  0.44972  Biso   1.000  N
  N3       1.0000 0.19691  0.37650  0.44689  Biso   1.000  N
  N4       1.0000 0.14582  0.47780  0.36673  Biso   1.000  N
  C15      1.0000 0.82665  0.89830  0.47850  Biso   1.000  C
  H15      1.0000 0.82230  0.95030  0.50230  Biso   1.000  H
  C16      1.0000 0.82122  0.75360  0.43220  Biso   1.000  C
  H16      1.0000 0.81200  0.68450  0.41760  Biso   1.000  H
  C17      1.0000 0.85250  0.81920  0.42000  Biso   1.000  C
  H17      1.0000 0.86860  0.80410  0.39600  Biso   1.000  H
  C18      1.0000 0.88162  0.00980  0.44550  Biso   1.000  C
  H18      1.0000 0.87340  0.06620  0.46630  Biso   1.000  H
  H19      1.0000 0.86560  0.02930  0.40190  Biso   1.000  H
  C19      1.0000 0.94295  0.00180  0.47390  Biso   1.000  C
  C20      1.0000 0.97668  0.96810  0.53480  Biso   1.000  C
  H20      1.0000 0.96110  0.94590  0.55830  Biso   1.000  H
  C21      1.0000 0.96695  0.03320  0.43900  Biso   1.000  C
  H21      1.0000 0.94490  0.05510  0.39780  Biso   1.000  H
  C22      1.0000 0.67325  0.95210  0.46440  Biso   1.000  C
  H22      1.0000 0.67820  0.95940  0.50430  Biso   1.000  H
  C23      1.0000 0.67910  0.89400  0.38760  Biso   1.000  C
  H23      1.0000 0.68850  0.85300  0.36320  Biso   1.000  H
  C24      1.0000 0.64130  0.01550  0.41530  Biso   1.000  C
  H24      1.0000 0.62060  0.07310  0.41500  Biso   1.000  H
  C25      1.0000 0.61800  0.02170  0.30300  Biso   1.000  C
  H25      1.0000 0.62740  0.97960  0.27680  Biso   1.000  H
  H26      1.0000 0.63070  0.09350  0.30400  Biso   1.000  H
  C26      1.0000 0.52800  0.92700  0.26260  Biso   1.000  C
  H27      1.0000 0.54680  0.86300  0.27110  Biso   1.000  H
  C27      1.0000 0.55680  0.02200  0.27550  Biso   1.000  C
  C28      1.0000 0.52820  0.11570  0.26300  Biso   1.000  C
  H28      1.0000 0.54700  0.17970  0.27200  Biso   1.000  H
  N5       1.0000 0.80506  0.80360  0.46918  Biso   1.000  N
  N6       1.0000 0.85578  0.91190  0.44972  Biso   1.000  N
  N7       1.0000 0.69691  0.87650  0.44689  Biso   1.000  N
  N8       1.0000 0.64582  0.97780  0.36673  Biso   1.000  N
  C29      1.0000 0.67335  0.39830  0.02150  Biso   1.000  C
  H29      1.0000 0.67770  0.45030  0.99770  Biso   1.000  H
  C30      1.0000 0.67878  0.25360  0.06780  Biso   1.000  C
  H30      1.0000 0.68800  0.18450  0.08240  Biso   1.000  H
  C31      1.0000 0.64750  0.31920  0.08000  Biso   1.000  C
  H31      1.0000 0.63140  0.30410  0.10400  Biso   1.000  H
  C32      1.0000 0.61838  0.50980  0.05450  Biso   1.000  C
  H32      1.0000 0.62660  0.56620  0.03370  Biso   1.000  H
  H33      1.0000 0.63440  0.52930  0.09810  Biso   1.000  H
  C33      1.0000 0.55705  0.50180  0.02610  Biso   1.000  C
  C34      1.0000 0.52332  0.46810  0.96520  Biso   1.000  C
  H34      1.0000 0.53890  0.44590  0.94170  Biso   1.000  H
  C35      1.0000 0.53305  0.53320  0.06100  Biso   1.000  C
  H35      1.0000 0.55510  0.55510  0.10220  Biso   1.000  H
  C36      1.0000 0.82675  0.45210  0.03560  Biso   1.000  C
  H36      1.0000 0.82180  0.45940  0.99570  Biso   1.000  H
  C37      1.0000 0.82090  0.39400  0.11240  Biso   1.000  C
  H37      1.0000 0.81150  0.35300  0.13680  Biso   1.000  H
  C38      1.0000 0.85870  0.51550  0.08470  Biso   1.000  C
  H38      1.0000 0.87940  0.57310  0.08500  Biso   1.000  H
  C39      1.0000 0.88200  0.52170  0.19700  Biso   1.000  C
  H39      1.0000 0.87260  0.47960  0.22320  Biso   1.000  H
  H40      1.0000 0.86930  0.59350  0.19600  Biso   1.000  H
  C40      1.0000 0.97200  0.42700  0.23740  Biso   1.000  C
  H41      1.0000 0.95320  0.36300  0.22890  Biso   1.000  H
  C41      1.0000 0.94320  0.52200  0.22450  Biso   1.000  C
  C42      1.0000 0.97180  0.61570  0.23700  Biso   1.000  C
  H42      1.0000 0.95300  0.67970  0.22800  Biso   1.000  H
  N9       1.0000 0.69494  0.30360  0.03082  Biso   1.000  N
  N10      1.0000 0.64422  0.41190  0.05028  Biso   1.000  N
  N11      1.0000 0.80309  0.37650  0.05311  Biso   1.000  N
  N12      1.0000 0.85418  0.47780  0.13327  Biso   1.000  N
  C43      1.0000 0.17335  0.89830  0.02150  Biso   1.000  C
  H43      1.0000 0.17770  0.95030  0.99770  Biso   1.000  H
  C44      1.0000 0.17878  0.75360  0.06780  Biso   1.000  C
  H44      1.0000 0.18800  0.68450  0.08240  Biso   1.000  H
  C45      1.0000 0.14750  0.81920  0.08000  Biso   1.000  C
  H45      1.0000 0.13140  0.80410  0.10400  Biso   1.000  H
  C46      1.0000 0.11838  0.00980  0.05450  Biso   1.000  C
  H46      1.0000 0.12660  0.06620  0.03370  Biso   1.000  H
  H47      1.0000 0.13440  0.02930  0.09810  Biso   1.000  H
  C47      1.0000 0.05705  0.00180  0.02610  Biso   1.000  C
  C48      1.0000 0.02332  0.96810  0.96520  Biso   1.000  C
  H48      1.0000 0.03890  0.94590  0.94170  Biso   1.000  H
  C49      1.0000 0.03305  0.03320  0.06100  Biso   1.000  C
  H49      1.0000 0.05510  0.05510  0.10220  Biso   1.000  H
  C50      1.0000 0.32675  0.95210  0.03560  Biso   1.000  C
  H50      1.0000 0.32180  0.95940  0.99570  Biso   1.000  H
  C51      1.0000 0.32090  0.89400  0.11240  Biso   1.000  C
  H51      1.0000 0.31150  0.85300  0.13680  Biso   1.000  H
  C52      1.0000 0.35870  0.01550  0.08470  Biso   1.000  C
  H52      1.0000 0.37940  0.07310  0.08500  Biso   1.000  H
  C53      1.0000 0.38200  0.02170  0.19700  Biso   1.000  C
  H53      1.0000 0.37260  0.97960  0.22320  Biso   1.000  H
  H54      1.0000 0.36930  0.09350  0.19600  Biso   1.000  H
  C54      1.0000 0.47200  0.92700  0.23740  Biso   1.000  C
  H55      1.0000 0.45320  0.86300  0.22890  Biso   1.000  H
  C55      1.0000 0.44320  0.02200  0.22450  Biso   1.000  C
  C56      1.0000 0.47180  0.11570  0.23700  Biso   1.000  C
  H56      1.0000 0.45300  0.17970  0.22800  Biso   1.000  H
  N13      1.0000 0.19494  0.80360  0.03082  Biso   1.000  N
  N14      1.0000 0.14422  0.91190  0.05028  Biso   1.000  N
  N15      1.0000 0.30309  0.87650  0.05311  Biso   1.000  N
  N16      1.0000 0.35418  0.97780  0.13327  Biso   1.000  N
  C57      1.0000 0.67335  0.60170  0.52150  Biso   1.000  C
  H57      1.0000 0.67770  0.54970  0.49770  Biso   1.000  H
  C58      1.0000 0.67878  0.74640  0.56780  Biso   1.000  C
  H58      1.0000 0.68800  0.81550  0.58240  Biso   1.000  H
  C59      1.0000 0.64750  0.68080  0.58000  Biso   1.000  C
  H59      1.0000 0.63140  0.69590  0.60400  Biso   1.000  H
  C60      1.0000 0.61838  0.49020  0.55450  Biso   1.000  C
  H60      1.0000 0.62660  0.43380  0.53370  Biso   1.000  H
  H61      1.0000 0.63440  0.47070  0.59810  Biso   1.000  H
  C61      1.0000 0.55705  0.49820  0.52610  Biso   1.000  C
  C62      1.0000 0.52332  0.53190  0.46520  Biso   1.000  C
  H62      1.0000 0.53890  0.55410  0.44170  Biso   1.000  H
  C63      1.0000 0.53305  0.46680  0.56100  Biso   1.000  C
  H63      1.0000 0.55510  0.44490  0.60220  Biso   1.000  H
  C64      1.0000 0.82675  0.54790  0.53560  Biso   1.000  C
  H64      1.0000 0.82180  0.54060  0.49570  Biso   1.000  H
  C65      1.0000 0.82090  0.60600  0.61240  Biso   1.000  C
  H65      1.0000 0.81150  0.64700  0.63680  Biso   1.000  H
  C66      1.0000 0.85870  0.48450  0.58470  Biso   1.000  C
  H66      1.0000 0.87940  0.42690  0.58500  Biso   1.000  H
  C67      1.0000 0.88200  0.47830  0.69700  Biso   1.000  C
  H67      1.0000 0.87260  0.52040  0.72320  Biso   1.000  H
  H68      1.0000 0.86930  0.40650  0.69600  Biso   1.000  H
  C68      1.0000 0.97200  0.57300  0.73740  Biso   1.000  C
  H69      1.0000 0.95320  0.63700  0.72890  Biso   1.000  H
  C69      1.0000 0.94320  0.47800  0.72450  Biso   1.000  C
  C70      1.0000 0.97180  0.38430  0.73700  Biso   1.000  C
  H70      1.0000 0.95300  0.32030  0.72800  Biso   1.000  H
  N17      1.0000 0.69494  0.69640  0.53082  Biso   1.000  N
  N18      1.0000 0.64422  0.58810  0.55028  Biso   1.000  N
  N19      1.0000 0.80309  0.62350  0.55311  Biso   1.000  N
  N20      1.0000 0.85418  0.52220  0.63327  Biso   1.000  N
  C71      1.0000 0.17335  0.10170  0.52150  Biso   1.000  C
  H71      1.0000 0.17770  0.04970  0.49770  Biso   1.000  H
  C72      1.0000 0.17878  0.24640  0.56780  Biso   1.000  C
  H72      1.0000 0.18800  0.31550  0.58240  Biso   1.000  H
  C73      1.0000 0.14750  0.18080  0.58000  Biso   1.000  C
  H73      1.0000 0.13140  0.19590  0.60400  Biso   1.000  H
  C74      1.0000 0.11838  0.99020  0.55450  Biso   1.000  C
  H74      1.0000 0.12660  0.93380  0.53370  Biso   1.000  H
  H75      1.0000 0.13440  0.97070  0.59810  Biso   1.000  H
  C75      1.0000 0.05705  0.99820  0.52610  Biso   1.000  C
  C76      1.0000 0.02332  0.03190  0.46520  Biso   1.000  C
  H76      1.0000 0.03890  0.05410  0.44170  Biso   1.000  H
  C77      1.0000 0.03305  0.96680  0.56100  Biso   1.000  C
  H77      1.0000 0.05510  0.94490  0.60220  Biso   1.000  H
  C78      1.0000 0.32675  0.04790  0.53560  Biso   1.000  C
  H78      1.0000 0.32180  0.04060  0.49570  Biso   1.000  H
  C79      1.0000 0.32090  0.10600  0.61240  Biso   1.000  C
  H79      1.0000 0.31150  0.14700  0.63680  Biso   1.000  H
  C80      1.0000 0.35870  0.98450  0.58470  Biso   1.000  C
  H80      1.0000 0.37940  0.92690  0.58500  Biso   1.000  H
  C81      1.0000 0.38200  0.97830  0.69700  Biso   1.000  C
  H81      1.0000 0.37260  0.02040  0.72320  Biso   1.000  H
  H82      1.0000 0.36930  0.90650  0.69600  Biso   1.000  H
  C82      1.0000 0.47200  0.07300  0.73740  Biso   1.000  C
  H83      1.0000 0.45320  0.13700  0.72890  Biso   1.000  H
  C83      1.0000 0.44320  0.97800  0.72450  Biso   1.000  C
  C84      1.0000 0.47180  0.88430  0.73700  Biso   1.000  C
  H84      1.0000 0.45300  0.82030  0.72800  Biso   1.000  H
  N21      1.0000 0.19494  0.19640  0.53082  Biso   1.000  N
  N22      1.0000 0.14422  0.08810  0.55028  Biso   1.000  N
  N23      1.0000 0.30309  0.12350  0.55311  Biso   1.000  N
  N24      1.0000 0.35418  0.02220  0.63327  Biso   1.000  N
  C85      1.0000 0.32665  0.60170  0.97850  Biso   1.000  C
  H85      1.0000 0.32230  0.54970  0.00230  Biso   1.000  H
  C86      1.0000 0.32122  0.74640  0.93220  Biso   1.000  C
  H86      1.0000 0.31200  0.81550  0.91760  Biso   1.000  H
  C87      1.0000 0.35250  0.68080  0.92000  Biso   1.000  C
  H87      1.0000 0.36860  0.69590  0.89600  Biso   1.000  H
  C88      1.0000 0.38162  0.49020  0.94550  Biso   1.000  C
  H88      1.0000 0.37340  0.43380  0.96630  Biso   1.000  H
  H89      1.0000 0.36560  0.47070  0.90190  Biso   1.000  H
  C89      1.0000 0.44295  0.49820  0.97390  Biso   1.000  C
  C90      1.0000 0.47668  0.53190  0.03480  Biso   1.000  C
  H90      1.0000 0.46110  0.55410  0.05830  Biso   1.000  H
  C91      1.0000 0.46695  0.46680  0.93900  Biso   1.000  C
  H91      1.0000 0.44490  0.44490  0.89780  Biso   1.000  H
  C92      1.0000 0.17325  0.54790  0.96440  Biso   1.000  C
  H92      1.0000 0.17820  0.54060  0.00430  Biso   1.000  H
  C93      1.0000 0.17910  0.60600  0.88760  Biso   1.000  C
  H93      1.0000 0.18850  0.64700  0.86320  Biso   1.000  H
  C94      1.0000 0.14130  0.48450  0.91530  Biso   1.000  C
  H94      1.0000 0.12060  0.42690  0.91500  Biso   1.000  H
  C95      1.0000 0.11800  0.47830  0.80300  Biso   1.000  C
  H95      1.0000 0.12740  0.52040  0.77680  Biso   1.000  H
  H96      1.0000 0.13070  0.40650  0.80400  Biso   1.000  H
  C96      1.0000 0.02800  0.57300  0.76260  Biso   1.000  C
  H97      1.0000 0.04680  0.63700  0.77110  Biso   1.000  H
  C97      1.0000 0.05680  0.47800  0.77550  Biso   1.000  C
  C98      1.0000 0.02820  0.38430  0.76300  Biso   1.000  C
  H98      1.0000 0.04700  0.32030  0.77200  Biso   1.000  H
  N25      1.0000 0.30506  0.69640  0.96918  Biso   1.000  N
  N26      1.0000 0.35578  0.58810  0.94972  Biso   1.000  N
  N27      1.0000 0.19691  0.62350  0.94689  Biso   1.000  N
  N28      1.0000 0.14582  0.52220  0.86673  Biso   1.000  N
  C99      1.0000 0.82665  0.10170  0.97850  Biso   1.000  C
  H99      1.0000 0.82230  0.04970  0.00230  Biso   1.000  H
  C100     1.0000 0.82122  0.24640  0.93220  Biso   1.000  C
  H100     1.0000 0.81200  0.31550  0.91760  Biso   1.000  H
  C101     1.0000 0.85250  0.18080  0.92000  Biso   1.000  C
  H101     1.0000 0.86860  0.19590  0.89600  Biso   1.000  H
  C102     1.0000 0.88162  0.99020  0.94550  Biso   1.000  C
  H102     1.0000 0.87340  0.93380  0.96630  Biso   1.000  H
  H103     1.0000 0.86560  0.97070  0.90190  Biso   1.000  H
  C103     1.0000 0.94295  0.99820  0.97390  Biso   1.000  C
  C104     1.0000 0.97668  0.03190  0.03480  Biso   1.000  C
  H104     1.0000 0.96110  0.05410  0.05830  Biso   1.000  H
  C105     1.0000 0.96695  0.96680  0.93900  Biso   1.000  C
  H105     1.0000 0.94490  0.94490  0.89780  Biso   1.000  H
  C106     1.0000 0.67325  0.04790  0.96440  Biso   1.000  C
  H106     1.0000 0.67820  0.04060  0.00430  Biso   1.000  H
  C107     1.0000 0.67910  0.10600  0.88760  Biso   1.000  C
  H107     1.0000 0.68850  0.14700  0.86320  Biso   1.000  H
  C108     1.0000 0.64130  0.98450  0.91530  Biso   1.000  C
  H108     1.0000 0.62060  0.92690  0.91500  Biso   1.000  H
  C109     1.0000 0.61800  0.97830  0.80300  Biso   1.000  C
  H109     1.0000 0.62740  0.02040  0.77680  Biso   1.000  H
  H110     1.0000 0.63070  0.90650  0.80400  Biso   1.000  H
  C110     1.0000 0.52800  0.07300  0.76260  Biso   1.000  C
  H111     1.0000 0.54680  0.13700  0.77110  Biso   1.000  H
  C111     1.0000 0.55680  0.97800  0.77550  Biso   1.000  C
  C112     1.0000 0.52820  0.88430  0.76300  Biso   1.000  C
  H112     1.0000 0.54700  0.82030  0.77200  Biso   1.000  H
  N29      1.0000 0.80506  0.19640  0.96918  Biso   1.000  N
  N30      1.0000 0.85578  0.08810  0.94972  Biso   1.000  N
  N31      1.0000 0.69691  0.12350  0.94689  Biso   1.000  N
  N32      1.0000 0.64582  0.02220  0.86673  Biso   1.000  N
  Co1      1.0000 0.25000  0.25000  0.50000  Biso   1.000  Co
  Co2      1.0000 0.75000  0.25000  0.00000  Biso   1.000  Co
  Co3      1.0000 0.75000  0.75000  0.50000  Biso   1.000  Co
  Co4      1.0000 0.25000  0.75000  0.00000  Biso   1.000  Co
