data_image0
_cell_length_a       32.318
_cell_length_b       29.354
_cell_length_c       18.5232
_cell_angle_alpha    90
_cell_angle_beta     104.277
_cell_angle_gamma    90

_symmetry_space_group_name_H-M    "P 1"
_symmetry_int_tables_number       1

loop_
  _symmetry_equiv_pos_as_xyz
  'x, y, z'

loop_
  _atom_site_label
  _atom_site_occupancy
  _atom_site_fract_x
  _atom_site_fract_y
  _atom_site_fract_z
  _atom_site_thermal_displace_type
  _atom_site_B_iso_or_equiv
  _atom_site_type_symbol
  Er1      1.0000 0.01436  0.22832  0.04623  Biso   1.000  Er
  O1       1.0000 0.03692  0.20545  0.16360  Biso   1.000  O
  O2       1.0000 0.04525  0.24637  0.26780  Biso   1.000  O
  O3       1.0000 0.46091  0.18313  0.63610  Biso   1.000  O
  O4       1.0000 0.45224  0.23387  0.54600  Biso   1.000  O
  O5       1.0000 0.08177  0.77806  0.51880  Biso   1.000  O
  O6       1.0000 0.04683  0.83988  0.51550  Biso   1.000  O
  O7       1.0000 0.45260  0.79307  0.40890  Biso   1.000  O
  O8       1.0000 0.44612  0.82973  0.30280  Biso   1.000  O
  C1       1.0000 0.24582  0.03994  0.39850  Biso   1.000  C
  C2       1.0000 0.20855  0.06385  0.36720  Biso   1.000  C
  H1       1.0000 0.18370  0.04790  0.34570  Biso   1.000  H
  C3       1.0000 0.20785  0.11092  0.36740  Biso   1.000  C
  C4       1.0000 0.24458  0.13549  0.40210  Biso   1.000  C
  H2       1.0000 0.24410  0.16720  0.40250  Biso   1.000  H
  C5       1.0000 0.28184  0.11221  0.43600  Biso   1.000  C
  C6       1.0000 0.28194  0.06445  0.43330  Biso   1.000  C
  H3       1.0000 0.30690  0.04880  0.45540  Biso   1.000  H
  C7       1.0000 0.16767  0.13716  0.32970  Biso   1.000  C
  C8       1.0000 0.15455  0.17325  0.36640  Biso   1.000  C
  H4       1.0000 0.17060  0.18100  0.41370  Biso   1.000  H
  C9       1.0000 0.11854  0.19800  0.33510  Biso   1.000  C
  H5       1.0000 0.11040  0.22220  0.36100  Biso   1.000  H
  C10      1.0000 0.09444  0.18650  0.26460  Biso   1.000  C
  C11      1.0000 0.10664  0.15034  0.22720  Biso   1.000  C
  H6       1.0000 0.09080  0.14290  0.17960  Biso   1.000  H
  C12      1.0000 0.14241  0.12505  0.26030  Biso   1.000  C
  H7       1.0000 0.14960  0.09970  0.23580  Biso   1.000  H
  C13      1.0000 0.05575  0.21519  0.22960  Biso   1.000  C
  C14      1.0000 0.32140  0.13725  0.47250  Biso   1.000  C
  C15      1.0000 0.34757  0.12020  0.53810  Biso   1.000  C
  H8       1.0000 0.33950  0.09410  0.55950  Biso   1.000  H
  C16      1.0000 0.38538  0.14160  0.57170  Biso   1.000  C
  H9       1.0000 0.40250  0.12990  0.61560  Biso   1.000  H
  C17      1.0000 0.39784  0.18030  0.54050  Biso   1.000  C
  C18      1.0000 0.37149  0.19813  0.47710  Biso   1.000  C
  H10      1.0000 0.37920  0.22480  0.45680  Biso   1.000  H
  C19      1.0000 0.33358  0.17684  0.44320  Biso   1.000  C
  H11      1.0000 0.31610  0.18930  0.40020  Biso   1.000  H
  C20      1.0000 0.43986  0.20190  0.57660  Biso   1.000  C
  C21      1.0000 0.24737  0.98985  0.40230  Biso   1.000  C
  C22      1.0000 0.28265  0.96645  0.39330  Biso   1.000  C
  H12      1.0000 0.30480  0.98260  0.38120  Biso   1.000  H
  C23      1.0000 0.28630  0.91832  0.40210  Biso   1.000  C
  C24      1.0000 0.25279  0.89496  0.41880  Biso   1.000  C
  H13      1.0000 0.25450  0.86350  0.42450  Biso   1.000  H
  C25      1.0000 0.21633  0.91777  0.42730  Biso   1.000  C
  C26      1.0000 0.21416  0.96490  0.41930  Biso   1.000  C
  H14      1.0000 0.19000  0.98020  0.42540  Biso   1.000  H
  C27      1.0000 0.18148  0.89259  0.45000  Biso   1.000  C
  C28      1.0000 0.11430  0.84600  0.48810  Biso   1.000  C
  C29      1.0000 0.07927  0.81910  0.50810  Biso   1.000  C
  C30      1.0000 0.32459  0.89410  0.39110  Biso   1.000  C
  C31      1.0000 0.34066  0.85552  0.43520  Biso   1.000  C
  H15      1.0000 0.32680  0.84530  0.47060  Biso   1.000  H
  C32      1.0000 0.37638  0.83300  0.42640  Biso   1.000  C
  H16      1.0000 0.38700  0.80820  0.45670  Biso   1.000  H
  C33      1.0000 0.39677  0.84713  0.37230  Biso   1.000  C
  C34      1.0000 0.38048  0.88396  0.32750  Biso   1.000  C
  H17      1.0000 0.39300  0.89280  0.28950  Biso   1.000  H
  C35      1.0000 0.34592  0.90734  0.33910  Biso   1.000  C
  H18      1.0000 0.33660  0.93320  0.31060  Biso   1.000  H
  C36      1.0000 0.43473  0.82094  0.35950  Biso   1.000  C
  C37      1.0000 0.11400  0.88640  0.47790  Biso   1.000  C
  H19      1.0000 0.09100  0.90310  0.48550  Biso   1.000  H
  C38      1.0000 0.18170  0.85060  0.45470  Biso   1.000  C
  H20      1.0000 0.19970  0.83300  0.43380  Biso   1.000  H
  C39      1.0000 0.15150  0.82840  0.49570  Biso   1.000  C
  H21      1.0000 0.15970  0.80280  0.52540  Biso   1.000  H
  C40      1.0000 0.14630  0.90980  0.45540  Biso   1.000  C
  H22      1.0000 0.14160  0.94050  0.44330  Biso   1.000  H
  Er2      1.0000 0.51436  0.72832  0.04623  Biso   1.000  Er
  O9       1.0000 0.53692  0.70545  0.16360  Biso   1.000  O
  O10      1.0000 0.54525  0.74637  0.26780  Biso   1.000  O
  O11      1.0000 0.96091  0.68313  0.63610  Biso   1.000  O
  O12      1.0000 0.95224  0.73387  0.54600  Biso   1.000  O
  O13      1.0000 0.58177  0.27806  0.51880  Biso   1.000  O
  O14      1.0000 0.54683  0.33988  0.51550  Biso   1.000  O
  O15      1.0000 0.95260  0.29307  0.40890  Biso   1.000  O
  O16      1.0000 0.94612  0.32973  0.30280  Biso   1.000  O
  C41      1.0000 0.74582  0.53994  0.39850  Biso   1.000  C
  C42      1.0000 0.70855  0.56385  0.36720  Biso   1.000  C
  H23      1.0000 0.68370  0.54790  0.34570  Biso   1.000  H
  C43      1.0000 0.70785  0.61092  0.36740  Biso   1.000  C
  C44      1.0000 0.74458  0.63549  0.40210  Biso   1.000  C
  H24      1.0000 0.74410  0.66720  0.40250  Biso   1.000  H
  C45      1.0000 0.78184  0.61221  0.43600  Biso   1.000  C
  C46      1.0000 0.78194  0.56445  0.43330  Biso   1.000  C
  H25      1.0000 0.80690  0.54880  0.45540  Biso   1.000  H
  C47      1.0000 0.66767  0.63716  0.32970  Biso   1.000  C
  C48      1.0000 0.65455  0.67325  0.36640  Biso   1.000  C
  H26      1.0000 0.67060  0.68100  0.41370  Biso   1.000  H
  C49      1.0000 0.61854  0.69800  0.33510  Biso   1.000  C
  H27      1.0000 0.61040  0.72220  0.36100  Biso   1.000  H
  C50      1.0000 0.59444  0.68650  0.26460  Biso   1.000  C
  C51      1.0000 0.60664  0.65034  0.22720  Biso   1.000  C
  H28      1.0000 0.59080  0.64290  0.17960  Biso   1.000  H
  C52      1.0000 0.64241  0.62505  0.26030  Biso   1.000  C
  H29      1.0000 0.64960  0.59970  0.23580  Biso   1.000  H
  C53      1.0000 0.55575  0.71519  0.22960  Biso   1.000  C
  C54      1.0000 0.82140  0.63725  0.47250  Biso   1.000  C
  C55      1.0000 0.84757  0.62020  0.53810  Biso   1.000  C
  H30      1.0000 0.83950  0.59410  0.55950  Biso   1.000  H
  C56      1.0000 0.88538  0.64160  0.57170  Biso   1.000  C
  H31      1.0000 0.90250  0.62990  0.61560  Biso   1.000  H
  C57      1.0000 0.89784  0.68030  0.54050  Biso   1.000  C
  C58      1.0000 0.87149  0.69813  0.47710  Biso   1.000  C
  H32      1.0000 0.87920  0.72480  0.45680  Biso   1.000  H
  C59      1.0000 0.83358  0.67684  0.44320  Biso   1.000  C
  H33      1.0000 0.81610  0.68930  0.40020  Biso   1.000  H
  C60      1.0000 0.93986  0.70190  0.57660  Biso   1.000  C
  C61      1.0000 0.74737  0.48985  0.40230  Biso   1.000  C
  C62      1.0000 0.78265  0.46645  0.39330  Biso   1.000  C
  H34      1.0000 0.80480  0.48260  0.38120  Biso   1.000  H
  C63      1.0000 0.78630  0.41832  0.40210  Biso   1.000  C
  C64      1.0000 0.75279  0.39496  0.41880  Biso   1.000  C
  H35      1.0000 0.75450  0.36350  0.42450  Biso   1.000  H
  C65      1.0000 0.71633  0.41777  0.42730  Biso   1.000  C
  C66      1.0000 0.71416  0.46490  0.41930  Biso   1.000  C
  H36      1.0000 0.69000  0.48020  0.42540  Biso   1.000  H
  C67      1.0000 0.68148  0.39259  0.45000  Biso   1.000  C
  C68      1.0000 0.61430  0.34600  0.48810  Biso   1.000  C
  C69      1.0000 0.57927  0.31910  0.50810  Biso   1.000  C
  C70      1.0000 0.82459  0.39410  0.39110  Biso   1.000  C
  C71      1.0000 0.84066  0.35552  0.43520  Biso   1.000  C
  H37      1.0000 0.82680  0.34530  0.47060  Biso   1.000  H
  C72      1.0000 0.87638  0.33300  0.42640  Biso   1.000  C
  H38      1.0000 0.88700  0.30820  0.45670  Biso   1.000  H
  C73      1.0000 0.89677  0.34713  0.37230  Biso   1.000  C
  C74      1.0000 0.88048  0.38396  0.32750  Biso   1.000  C
  H39      1.0000 0.89300  0.39280  0.28950  Biso   1.000  H
  C75      1.0000 0.84592  0.40734  0.33910  Biso   1.000  C
  H40      1.0000 0.83660  0.43320  0.31060  Biso   1.000  H
  C76      1.0000 0.93473  0.32094  0.35950  Biso   1.000  C
  C77      1.0000 0.61400  0.38640  0.47790  Biso   1.000  C
  H41      1.0000 0.59100  0.40310  0.48550  Biso   1.000  H
  C78      1.0000 0.68170  0.35060  0.45470  Biso   1.000  C
  H42      1.0000 0.69970  0.33300  0.43380  Biso   1.000  H
  C79      1.0000 0.65150  0.32840  0.49570  Biso   1.000  C
  H43      1.0000 0.65970  0.30280  0.52540  Biso   1.000  H
  C80      1.0000 0.64630  0.40980  0.45540  Biso   1.000  C
  H44      1.0000 0.64160  0.44050  0.44330  Biso   1.000  H
  Er3      1.0000 0.98564  0.22832  0.45377  Biso   1.000  Er
  O17      1.0000 0.96308  0.20545  0.33640  Biso   1.000  O
  O18      1.0000 0.95475  0.24637  0.23220  Biso   1.000  O
  O19      1.0000 0.53909  0.18313  0.86390  Biso   1.000  O
  O20      1.0000 0.54776  0.23387  0.95400  Biso   1.000  O
  O21      1.0000 0.91823  0.77806  0.98120  Biso   1.000  O
  O22      1.0000 0.95317  0.83988  0.98450  Biso   1.000  O
  O23      1.0000 0.54740  0.79307  0.09110  Biso   1.000  O
  O24      1.0000 0.55388  0.82973  0.19720  Biso   1.000  O
  C81      1.0000 0.75418  0.03994  0.10150  Biso   1.000  C
  C82      1.0000 0.79145  0.06385  0.13280  Biso   1.000  C
  H45      1.0000 0.81630  0.04790  0.15430  Biso   1.000  H
  C83      1.0000 0.79215  0.11092  0.13260  Biso   1.000  C
  C84      1.0000 0.75542  0.13549  0.09790  Biso   1.000  C
  H46      1.0000 0.75590  0.16720  0.09750  Biso   1.000  H
  C85      1.0000 0.71816  0.11221  0.06400  Biso   1.000  C
  C86      1.0000 0.71806  0.06445  0.06670  Biso   1.000  C
  H47      1.0000 0.69310  0.04880  0.04460  Biso   1.000  H
  C87      1.0000 0.83233  0.13716  0.17030  Biso   1.000  C
  C88      1.0000 0.84545  0.17325  0.13360  Biso   1.000  C
  H48      1.0000 0.82940  0.18100  0.08630  Biso   1.000  H
  C89      1.0000 0.88146  0.19800  0.16490  Biso   1.000  C
  H49      1.0000 0.88960  0.22220  0.13900  Biso   1.000  H
  C90      1.0000 0.90556  0.18650  0.23540  Biso   1.000  C
  C91      1.0000 0.89336  0.15034  0.27280  Biso   1.000  C
  H50      1.0000 0.90920  0.14290  0.32040  Biso   1.000  H
  C92      1.0000 0.85759  0.12505  0.23970  Biso   1.000  C
  H51      1.0000 0.85040  0.09970  0.26420  Biso   1.000  H
  C93      1.0000 0.94425  0.21519  0.27040  Biso   1.000  C
  C94      1.0000 0.67860  0.13725  0.02750  Biso   1.000  C
  C95      1.0000 0.65243  0.12020  0.96190  Biso   1.000  C
  H52      1.0000 0.66050  0.09410  0.94050  Biso   1.000  H
  C96      1.0000 0.61462  0.14160  0.92830  Biso   1.000  C
  H53      1.0000 0.59750  0.12990  0.88440  Biso   1.000  H
  C97      1.0000 0.60216  0.18030  0.95950  Biso   1.000  C
  C98      1.0000 0.62851  0.19813  0.02290  Biso   1.000  C
  H54      1.0000 0.62080  0.22480  0.04320  Biso   1.000  H
  C99      1.0000 0.66642  0.17684  0.05680  Biso   1.000  C
  H55      1.0000 0.68390  0.18930  0.09980  Biso   1.000  H
  C100     1.0000 0.56014  0.20190  0.92340  Biso   1.000  C
  C101     1.0000 0.75263  0.98985  0.09770  Biso   1.000  C
  C102     1.0000 0.71735  0.96645  0.10670  Biso   1.000  C
  H56      1.0000 0.69520  0.98260  0.11880  Biso   1.000  H
  C103     1.0000 0.71370  0.91832  0.09790  Biso   1.000  C
  C104     1.0000 0.74721  0.89496  0.08120  Biso   1.000  C
  H57      1.0000 0.74550  0.86350  0.07550  Biso   1.000  H
  C105     1.0000 0.78367  0.91777  0.07270  Biso   1.000  C
  C106     1.0000 0.78584  0.96490  0.08070  Biso   1.000  C
  H58      1.0000 0.81000  0.98020  0.07460  Biso   1.000  H
  C107     1.0000 0.81852  0.89259  0.05000  Biso   1.000  C
  C108     1.0000 0.88570  0.84600  0.01190  Biso   1.000  C
  C109     1.0000 0.92073  0.81910  0.99190  Biso   1.000  C
  C110     1.0000 0.67541  0.89410  0.10890  Biso   1.000  C
  C111     1.0000 0.65934  0.85552  0.06480  Biso   1.000  C
  H59      1.0000 0.67320  0.84530  0.02940  Biso   1.000  H
  C112     1.0000 0.62362  0.83300  0.07360  Biso   1.000  C
  H60      1.0000 0.61300  0.80820  0.04330  Biso   1.000  H
  C113     1.0000 0.60323  0.84713  0.12770  Biso   1.000  C
  C114     1.0000 0.61952  0.88396  0.17250  Biso   1.000  C
  H61      1.0000 0.60700  0.89280  0.21050  Biso   1.000  H
  C115     1.0000 0.65408  0.90734  0.16090  Biso   1.000  C
  H62      1.0000 0.66340  0.93320  0.18940  Biso   1.000  H
  C116     1.0000 0.56527  0.82094  0.14050  Biso   1.000  C
  C117     1.0000 0.88600  0.88640  0.02210  Biso   1.000  C
  H63      1.0000 0.90900  0.90310  0.01450  Biso   1.000  H
  C118     1.0000 0.81830  0.85060  0.04530  Biso   1.000  C
  H64      1.0000 0.80030  0.83300  0.06620  Biso   1.000  H
  C119     1.0000 0.84850  0.82840  0.00430  Biso   1.000  C
  H65      1.0000 0.84030  0.80280  0.97460  Biso   1.000  H
  C120     1.0000 0.85370  0.90980  0.04460  Biso   1.000  C
  H66      1.0000 0.85840  0.94050  0.05670  Biso   1.000  H
  Er4      1.0000 0.48564  0.72832  0.45377  Biso   1.000  Er
  O25      1.0000 0.46308  0.70545  0.33640  Biso   1.000  O
  O26      1.0000 0.45475  0.74637  0.23220  Biso   1.000  O
  O27      1.0000 0.03909  0.68313  0.86390  Biso   1.000  O
  O28      1.0000 0.04776  0.73387  0.95400  Biso   1.000  O
  O29      1.0000 0.41823  0.27806  0.98120  Biso   1.000  O
  O30      1.0000 0.45317  0.33988  0.98450  Biso   1.000  O
  O31      1.0000 0.04740  0.29307  0.09110  Biso   1.000  O
  O32      1.0000 0.05388  0.32973  0.19720  Biso   1.000  O
  C121     1.0000 0.25418  0.53994  0.10150  Biso   1.000  C
  C122     1.0000 0.29145  0.56385  0.13280  Biso   1.000  C
  H67      1.0000 0.31630  0.54790  0.15430  Biso   1.000  H
  C123     1.0000 0.29215  0.61092  0.13260  Biso   1.000  C
  C124     1.0000 0.25542  0.63549  0.09790  Biso   1.000  C
  H68      1.0000 0.25590  0.66720  0.09750  Biso   1.000  H
  C125     1.0000 0.21816  0.61221  0.06400  Biso   1.000  C
  C126     1.0000 0.21806  0.56445  0.06670  Biso   1.000  C
  H69      1.0000 0.19310  0.54880  0.04460  Biso   1.000  H
  C127     1.0000 0.33233  0.63716  0.17030  Biso   1.000  C
  C128     1.0000 0.34545  0.67325  0.13360  Biso   1.000  C
  H70      1.0000 0.32940  0.68100  0.08630  Biso   1.000  H
  C129     1.0000 0.38146  0.69800  0.16490  Biso   1.000  C
  H71      1.0000 0.38960  0.72220  0.13900  Biso   1.000  H
  C130     1.0000 0.40556  0.68650  0.23540  Biso   1.000  C
  C131     1.0000 0.39336  0.65034  0.27280  Biso   1.000  C
  H72      1.0000 0.40920  0.64290  0.32040  Biso   1.000  H
  C132     1.0000 0.35759  0.62505  0.23970  Biso   1.000  C
  H73      1.0000 0.35040  0.59970  0.26420  Biso   1.000  H
  C133     1.0000 0.44425  0.71519  0.27040  Biso   1.000  C
  C134     1.0000 0.17860  0.63725  0.02750  Biso   1.000  C
  C135     1.0000 0.15243  0.62020  0.96190  Biso   1.000  C
  H74      1.0000 0.16050  0.59410  0.94050  Biso   1.000  H
  C136     1.0000 0.11462  0.64160  0.92830  Biso   1.000  C
  H75      1.0000 0.09750  0.62990  0.88440  Biso   1.000  H
  C137     1.0000 0.10216  0.68030  0.95950  Biso   1.000  C
  C138     1.0000 0.12851  0.69813  0.02290  Biso   1.000  C
  H76      1.0000 0.12080  0.72480  0.04320  Biso   1.000  H
  C139     1.0000 0.16642  0.67684  0.05680  Biso   1.000  C
  H77      1.0000 0.18390  0.68930  0.09980  Biso   1.000  H
  C140     1.0000 0.06014  0.70190  0.92340  Biso   1.000  C
  C141     1.0000 0.25263  0.48985  0.09770  Biso   1.000  C
  C142     1.0000 0.21735  0.46645  0.10670  Biso   1.000  C
  H78      1.0000 0.19520  0.48260  0.11880  Biso   1.000  H
  C143     1.0000 0.21370  0.41832  0.09790  Biso   1.000  C
  C144     1.0000 0.24721  0.39496  0.08120  Biso   1.000  C
  H79      1.0000 0.24550  0.36350  0.07550  Biso   1.000  H
  C145     1.0000 0.28367  0.41777  0.07270  Biso   1.000  C
  C146     1.0000 0.28584  0.46490  0.08070  Biso   1.000  C
  H80      1.0000 0.31000  0.48020  0.07460  Biso   1.000  H
  C147     1.0000 0.31852  0.39259  0.05000  Biso   1.000  C
  C148     1.0000 0.38570  0.34600  0.01190  Biso   1.000  C
  C149     1.0000 0.42073  0.31910  0.99190  Biso   1.000  C
  C150     1.0000 0.17541  0.39410  0.10890  Biso   1.000  C
  C151     1.0000 0.15934  0.35552  0.06480  Biso   1.000  C
  H81      1.0000 0.17320  0.34530  0.02940  Biso   1.000  H
  C152     1.0000 0.12362  0.33300  0.07360  Biso   1.000  C
  H82      1.0000 0.11300  0.30820  0.04330  Biso   1.000  H
  C153     1.0000 0.10323  0.34713  0.12770  Biso   1.000  C
  C154     1.0000 0.11952  0.38396  0.17250  Biso   1.000  C
  H83      1.0000 0.10700  0.39280  0.21050  Biso   1.000  H
  C155     1.0000 0.15408  0.40734  0.16090  Biso   1.000  C
  H84      1.0000 0.16340  0.43320  0.18940  Biso   1.000  H
  C156     1.0000 0.06527  0.32094  0.14050  Biso   1.000  C
  C157     1.0000 0.38600  0.38640  0.02210  Biso   1.000  C
  H85      1.0000 0.40900  0.40310  0.01450  Biso   1.000  H
  C158     1.0000 0.31830  0.35060  0.04530  Biso   1.000  C
  H86      1.0000 0.30030  0.33300  0.06620  Biso   1.000  H
  C159     1.0000 0.34850  0.32840  0.00430  Biso   1.000  C
  H87      1.0000 0.34030  0.30280  0.97460  Biso   1.000  H
  C160     1.0000 0.35370  0.40980  0.04460  Biso   1.000  C
  H88      1.0000 0.35840  0.44050  0.05670  Biso   1.000  H
  Er5      1.0000 0.98564  0.77168  0.95377  Biso   1.000  Er
  O33      1.0000 0.96308  0.79455  0.83640  Biso   1.000  O
  O34      1.0000 0.95475  0.75363  0.73220  Biso   1.000  O
  O35      1.0000 0.53909  0.81687  0.36390  Biso   1.000  O
  O36      1.0000 0.54776  0.76613  0.45400  Biso   1.000  O
  O37      1.0000 0.91823  0.22194  0.48120  Biso   1.000  O
  O38      1.0000 0.95317  0.16012  0.48450  Biso   1.000  O
  O39      1.0000 0.54740  0.20693  0.59110  Biso   1.000  O
  O40      1.0000 0.55388  0.17027  0.69720  Biso   1.000  O
  C161     1.0000 0.75418  0.96006  0.60150  Biso   1.000  C
  C162     1.0000 0.79145  0.93615  0.63280  Biso   1.000  C
  H89      1.0000 0.81630  0.95210  0.65430  Biso   1.000  H
  C163     1.0000 0.79215  0.88908  0.63260  Biso   1.000  C
  C164     1.0000 0.75542  0.86451  0.59790  Biso   1.000  C
  H90      1.0000 0.75590  0.83280  0.59750  Biso   1.000  H
  C165     1.0000 0.71816  0.88779  0.56400  Biso   1.000  C
  C166     1.0000 0.71806  0.93555  0.56670  Biso   1.000  C
  H91      1.0000 0.69310  0.95120  0.54460  Biso   1.000  H
  C167     1.0000 0.83233  0.86284  0.67030  Biso   1.000  C
  C168     1.0000 0.84545  0.82675  0.63360  Biso   1.000  C
  H92      1.0000 0.82940  0.81900  0.58630  Biso   1.000  H
  C169     1.0000 0.88146  0.80200  0.66490  Biso   1.000  C
  H93      1.0000 0.88960  0.77780  0.63900  Biso   1.000  H
  C170     1.0000 0.90556  0.81350  0.73540  Biso   1.000  C
  C171     1.0000 0.89336  0.84966  0.77280  Biso   1.000  C
  H94      1.0000 0.90920  0.85710  0.82040  Biso   1.000  H
  C172     1.0000 0.85759  0.87495  0.73970  Biso   1.000  C
  H95      1.0000 0.85040  0.90030  0.76420  Biso   1.000  H
  C173     1.0000 0.94425  0.78481  0.77040  Biso   1.000  C
  C174     1.0000 0.67860  0.86275  0.52750  Biso   1.000  C
  C175     1.0000 0.65243  0.87980  0.46190  Biso   1.000  C
  H96      1.0000 0.66050  0.90590  0.44050  Biso   1.000  H
  C176     1.0000 0.61462  0.85840  0.42830  Biso   1.000  C
  H97      1.0000 0.59750  0.87010  0.38440  Biso   1.000  H
  C177     1.0000 0.60216  0.81970  0.45950  Biso   1.000  C
  C178     1.0000 0.62851  0.80187  0.52290  Biso   1.000  C
  H98      1.0000 0.62080  0.77520  0.54320  Biso   1.000  H
  C179     1.0000 0.66642  0.82316  0.55680  Biso   1.000  C
  H99      1.0000 0.68390  0.81070  0.59980  Biso   1.000  H
  C180     1.0000 0.56014  0.79810  0.42340  Biso   1.000  C
  C181     1.0000 0.75263  0.01015  0.59770  Biso   1.000  C
  C182     1.0000 0.71735  0.03355  0.60670  Biso   1.000  C
  H100     1.0000 0.69520  0.01740  0.61880  Biso   1.000  H
  C183     1.0000 0.71370  0.08168  0.59790  Biso   1.000  C
  C184     1.0000 0.74721  0.10504  0.58120  Biso   1.000  C
  H101     1.0000 0.74550  0.13650  0.57550  Biso   1.000  H
  C185     1.0000 0.78367  0.08223  0.57270  Biso   1.000  C
  C186     1.0000 0.78584  0.03510  0.58070  Biso   1.000  C
  H102     1.0000 0.81000  0.01980  0.57460  Biso   1.000  H
  C187     1.0000 0.81852  0.10741  0.55000  Biso   1.000  C
  C188     1.0000 0.88570  0.15400  0.51190  Biso   1.000  C
  C189     1.0000 0.92073  0.18090  0.49190  Biso   1.000  C
  C190     1.0000 0.67541  0.10590  0.60890  Biso   1.000  C
  C191     1.0000 0.65934  0.14448  0.56480  Biso   1.000  C
  H103     1.0000 0.67320  0.15470  0.52940  Biso   1.000  H
  C192     1.0000 0.62362  0.16700  0.57360  Biso   1.000  C
  H104     1.0000 0.61300  0.19180  0.54330  Biso   1.000  H
  C193     1.0000 0.60323  0.15287  0.62770  Biso   1.000  C
  C194     1.0000 0.61952  0.11604  0.67250  Biso   1.000  C
  H105     1.0000 0.60700  0.10720  0.71050  Biso   1.000  H
  C195     1.0000 0.65408  0.09266  0.66090  Biso   1.000  C
  H106     1.0000 0.66340  0.06680  0.68940  Biso   1.000  H
  C196     1.0000 0.56527  0.17906  0.64050  Biso   1.000  C
  C197     1.0000 0.88600  0.11360  0.52210  Biso   1.000  C
  H107     1.0000 0.90900  0.09690  0.51450  Biso   1.000  H
  C198     1.0000 0.81830  0.14940  0.54530  Biso   1.000  C
  H108     1.0000 0.80030  0.16700  0.56620  Biso   1.000  H
  C199     1.0000 0.84850  0.17160  0.50430  Biso   1.000  C
  H109     1.0000 0.84030  0.19720  0.47460  Biso   1.000  H
  C200     1.0000 0.85370  0.09020  0.54460  Biso   1.000  C
  H110     1.0000 0.85840  0.05950  0.55670  Biso   1.000  H
  Er6      1.0000 0.48564  0.27168  0.95377  Biso   1.000  Er
  O41      1.0000 0.46308  0.29455  0.83640  Biso   1.000  O
  O42      1.0000 0.45475  0.25363  0.73220  Biso   1.000  O
  O43      1.0000 0.03909  0.31687  0.36390  Biso   1.000  O
  O44      1.0000 0.04776  0.26613  0.45400  Biso   1.000  O
  O45      1.0000 0.41823  0.72194  0.48120  Biso   1.000  O
  O46      1.0000 0.45317  0.66012  0.48450  Biso   1.000  O
  O47      1.0000 0.04740  0.70693  0.59110  Biso   1.000  O
  O48      1.0000 0.05388  0.67027  0.69720  Biso   1.000  O
  C201     1.0000 0.25418  0.46006  0.60150  Biso   1.000  C
  C202     1.0000 0.29145  0.43615  0.63280  Biso   1.000  C
  H111     1.0000 0.31630  0.45210  0.65430  Biso   1.000  H
  C203     1.0000 0.29215  0.38908  0.63260  Biso   1.000  C
  C204     1.0000 0.25542  0.36451  0.59790  Biso   1.000  C
  H112     1.0000 0.25590  0.33280  0.59750  Biso   1.000  H
  C205     1.0000 0.21816  0.38779  0.56400  Biso   1.000  C
  C206     1.0000 0.21806  0.43555  0.56670  Biso   1.000  C
  H113     1.0000 0.19310  0.45120  0.54460  Biso   1.000  H
  C207     1.0000 0.33233  0.36284  0.67030  Biso   1.000  C
  C208     1.0000 0.34545  0.32675  0.63360  Biso   1.000  C
  H114     1.0000 0.32940  0.31900  0.58630  Biso   1.000  H
  C209     1.0000 0.38146  0.30200  0.66490  Biso   1.000  C
  H115     1.0000 0.38960  0.27780  0.63900  Biso   1.000  H
  C210     1.0000 0.40556  0.31350  0.73540  Biso   1.000  C
  C211     1.0000 0.39336  0.34966  0.77280  Biso   1.000  C
  H116     1.0000 0.40920  0.35710  0.82040  Biso   1.000  H
  C212     1.0000 0.35759  0.37495  0.73970  Biso   1.000  C
  H117     1.0000 0.35040  0.40030  0.76420  Biso   1.000  H
  C213     1.0000 0.44425  0.28481  0.77040  Biso   1.000  C
  C214     1.0000 0.17860  0.36275  0.52750  Biso   1.000  C
  C215     1.0000 0.15243  0.37980  0.46190  Biso   1.000  C
  H118     1.0000 0.16050  0.40590  0.44050  Biso   1.000  H
  C216     1.0000 0.11462  0.35840  0.42830  Biso   1.000  C
  H119     1.0000 0.09750  0.37010  0.38440  Biso   1.000  H
  C217     1.0000 0.10216  0.31970  0.45950  Biso   1.000  C
  C218     1.0000 0.12851  0.30187  0.52290  Biso   1.000  C
  H120     1.0000 0.12080  0.27520  0.54320  Biso   1.000  H
  C219     1.0000 0.16642  0.32316  0.55680  Biso   1.000  C
  H121     1.0000 0.18390  0.31070  0.59980  Biso   1.000  H
  C220     1.0000 0.06014  0.29810  0.42340  Biso   1.000  C
  C221     1.0000 0.25263  0.51015  0.59770  Biso   1.000  C
  C222     1.0000 0.21735  0.53355  0.60670  Biso   1.000  C
  H122     1.0000 0.19520  0.51740  0.61880  Biso   1.000  H
  C223     1.0000 0.21370  0.58168  0.59790  Biso   1.000  C
  C224     1.0000 0.24721  0.60504  0.58120  Biso   1.000  C
  H123     1.0000 0.24550  0.63650  0.57550  Biso   1.000  H
  C225     1.0000 0.28367  0.58223  0.57270  Biso   1.000  C
  C226     1.0000 0.28584  0.53510  0.58070  Biso   1.000  C
  H124     1.0000 0.31000  0.51980  0.57460  Biso   1.000  H
  C227     1.0000 0.31852  0.60741  0.55000  Biso   1.000  C
  C228     1.0000 0.38570  0.65400  0.51190  Biso   1.000  C
  C229     1.0000 0.42073  0.68090  0.49190  Biso   1.000  C
  C230     1.0000 0.17541  0.60590  0.60890  Biso   1.000  C
  C231     1.0000 0.15934  0.64448  0.56480  Biso   1.000  C
  H125     1.0000 0.17320  0.65470  0.52940  Biso   1.000  H
  C232     1.0000 0.12362  0.66700  0.57360  Biso   1.000  C
  H126     1.0000 0.11300  0.69180  0.54330  Biso   1.000  H
  C233     1.0000 0.10323  0.65287  0.62770  Biso   1.000  C
  C234     1.0000 0.11952  0.61604  0.67250  Biso   1.000  C
  H127     1.0000 0.10700  0.60720  0.71050  Biso   1.000  H
  C235     1.0000 0.15408  0.59266  0.66090  Biso   1.000  C
  H128     1.0000 0.16340  0.56680  0.68940  Biso   1.000  H
  C236     1.0000 0.06527  0.67906  0.64050  Biso   1.000  C
  C237     1.0000 0.38600  0.61360  0.52210  Biso   1.000  C
  H129     1.0000 0.40900  0.59690  0.51450  Biso   1.000  H
  C238     1.0000 0.31830  0.64940  0.54530  Biso   1.000  C
  H130     1.0000 0.30030  0.66700  0.56620  Biso   1.000  H
  C239     1.0000 0.34850  0.67160  0.50430  Biso   1.000  C
  H131     1.0000 0.34030  0.69720  0.47460  Biso   1.000  H
  C240     1.0000 0.35370  0.59020  0.54460  Biso   1.000  C
  H132     1.0000 0.35840  0.55950  0.55670  Biso   1.000  H
  Er7      1.0000 0.01436  0.77168  0.54623  Biso   1.000  Er
  O49      1.0000 0.03692  0.79455  0.66360  Biso   1.000  O
  O50      1.0000 0.04525  0.75363  0.76780  Biso   1.000  O
  O51      1.0000 0.46091  0.81687  0.13610  Biso   1.000  O
  O52      1.0000 0.45224  0.76613  0.04600  Biso   1.000  O
  O53      1.0000 0.08177  0.22194  0.01880  Biso   1.000  O
  O54      1.0000 0.04683  0.16012  0.01550  Biso   1.000  O
  O55      1.0000 0.45260  0.20693  0.90890  Biso   1.000  O
  O56      1.0000 0.44612  0.17027  0.80280  Biso   1.000  O
  C241     1.0000 0.24582  0.96006  0.89850  Biso   1.000  C
  C242     1.0000 0.20855  0.93615  0.86720  Biso   1.000  C
  H133     1.0000 0.18370  0.95210  0.84570  Biso   1.000  H
  C243     1.0000 0.20785  0.88908  0.86740  Biso   1.000  C
  C244     1.0000 0.24458  0.86451  0.90210  Biso   1.000  C
  H134     1.0000 0.24410  0.83280  0.90250  Biso   1.000  H
  C245     1.0000 0.28184  0.88779  0.93600  Biso   1.000  C
  C246     1.0000 0.28194  0.93555  0.93330  Biso   1.000  C
  H135     1.0000 0.30690  0.95120  0.95540  Biso   1.000  H
  C247     1.0000 0.16767  0.86284  0.82970  Biso   1.000  C
  C248     1.0000 0.15455  0.82675  0.86640  Biso   1.000  C
  H136     1.0000 0.17060  0.81900  0.91370  Biso   1.000  H
  C249     1.0000 0.11854  0.80200  0.83510  Biso   1.000  C
  H137     1.0000 0.11040  0.77780  0.86100  Biso   1.000  H
  C250     1.0000 0.09444  0.81350  0.76460  Biso   1.000  C
  C251     1.0000 0.10664  0.84966  0.72720  Biso   1.000  C
  H138     1.0000 0.09080  0.85710  0.67960  Biso   1.000  H
  C252     1.0000 0.14241  0.87495  0.76030  Biso   1.000  C
  H139     1.0000 0.14960  0.90030  0.73580  Biso   1.000  H
  C253     1.0000 0.05575  0.78481  0.72960  Biso   1.000  C
  C254     1.0000 0.32140  0.86275  0.97250  Biso   1.000  C
  C255     1.0000 0.34757  0.87980  0.03810  Biso   1.000  C
  H140     1.0000 0.33950  0.90590  0.05950  Biso   1.000  H
  C256     1.0000 0.38538  0.85840  0.07170  Biso   1.000  C
  H141     1.0000 0.40250  0.87010  0.11560  Biso   1.000  H
  C257     1.0000 0.39784  0.81970  0.04050  Biso   1.000  C
  C258     1.0000 0.37149  0.80187  0.97710  Biso   1.000  C
  H142     1.0000 0.37920  0.77520  0.95680  Biso   1.000  H
  C259     1.0000 0.33358  0.82316  0.94320  Biso   1.000  C
  H143     1.0000 0.31610  0.81070  0.90020  Biso   1.000  H
  C260     1.0000 0.43986  0.79810  0.07660  Biso   1.000  C
  C261     1.0000 0.24737  0.01015  0.90230  Biso   1.000  C
  C262     1.0000 0.28265  0.03355  0.89330  Biso   1.000  C
  H144     1.0000 0.30480  0.01740  0.88120  Biso   1.000  H
  C263     1.0000 0.28630  0.08168  0.90210  Biso   1.000  C
  C264     1.0000 0.25279  0.10504  0.91880  Biso   1.000  C
  H145     1.0000 0.25450  0.13650  0.92450  Biso   1.000  H
  C265     1.0000 0.21633  0.08223  0.92730  Biso   1.000  C
  C266     1.0000 0.21416  0.03510  0.91930  Biso   1.000  C
  H146     1.0000 0.19000  0.01980  0.92540  Biso   1.000  H
  C267     1.0000 0.18148  0.10741  0.95000  Biso   1.000  C
  C268     1.0000 0.11430  0.15400  0.98810  Biso   1.000  C
  C269     1.0000 0.07927  0.18090  0.00810  Biso   1.000  C
  C270     1.0000 0.32459  0.10590  0.89110  Biso   1.000  C
  C271     1.0000 0.34066  0.14448  0.93520  Biso   1.000  C
  H147     1.0000 0.32680  0.15470  0.97060  Biso   1.000  H
  C272     1.0000 0.37638  0.16700  0.92640  Biso   1.000  C
  H148     1.0000 0.38700  0.19180  0.95670  Biso   1.000  H
  C273     1.0000 0.39677  0.15287  0.87230  Biso   1.000  C
  C274     1.0000 0.38048  0.11604  0.82750  Biso   1.000  C
  H149     1.0000 0.39300  0.10720  0.78950  Biso   1.000  H
  C275     1.0000 0.34592  0.09266  0.83910  Biso   1.000  C
  H150     1.0000 0.33660  0.06680  0.81060  Biso   1.000  H
  C276     1.0000 0.43473  0.17906  0.85950  Biso   1.000  C
  C277     1.0000 0.11400  0.11360  0.97790  Biso   1.000  C
  H151     1.0000 0.09100  0.09690  0.98550  Biso   1.000  H
  C278     1.0000 0.18170  0.14940  0.95470  Biso   1.000  C
  H152     1.0000 0.19970  0.16700  0.93380  Biso   1.000  H
  C279     1.0000 0.15150  0.17160  0.99570  Biso   1.000  C
  H153     1.0000 0.15970  0.19720  0.02540  Biso   1.000  H
  C280     1.0000 0.14630  0.09020  0.95540  Biso   1.000  C
  H154     1.0000 0.14160  0.05950  0.94330  Biso   1.000  H
  Er8      1.0000 0.51436  0.27168  0.54623  Biso   1.000  Er
  O57      1.0000 0.53692  0.29455  0.66360  Biso   1.000  O
  O58      1.0000 0.54525  0.25363  0.76780  Biso   1.000  O
  O59      1.0000 0.96091  0.31687  0.13610  Biso   1.000  O
  O60      1.0000 0.95224  0.26613  0.04600  Biso   1.000  O
  O61      1.0000 0.58177  0.72194  0.01880  Biso   1.000  O
  O62      1.0000 0.54683  0.66012  0.01550  Biso   1.000  O
  O63      1.0000 0.95260  0.70693  0.90890  Biso   1.000  O
  O64      1.0000 0.94612  0.67027  0.80280  Biso   1.000  O
  C281     1.0000 0.74582  0.46006  0.89850  Biso   1.000  C
  C282     1.0000 0.70855  0.43615  0.86720  Biso   1.000  C
  H155     1.0000 0.68370  0.45210  0.84570  Biso   1.000  H
  C283     1.0000 0.70785  0.38908  0.86740  Biso   1.000  C
  C284     1.0000 0.74458  0.36451  0.90210  Biso   1.000  C
  H156     1.0000 0.74410  0.33280  0.90250  Biso   1.000  H
  C285     1.0000 0.78184  0.38779  0.93600  Biso   1.000  C
  C286     1.0000 0.78194  0.43555  0.93330  Biso   1.000  C
  H157     1.0000 0.80690  0.45120  0.95540  Biso   1.000  H
  C287     1.0000 0.66767  0.36284  0.82970  Biso   1.000  C
  C288     1.0000 0.65455  0.32675  0.86640  Biso   1.000  C
  H158     1.0000 0.67060  0.31900  0.91370  Biso   1.000  H
  C289     1.0000 0.61854  0.30200  0.83510  Biso   1.000  C
  H159     1.0000 0.61040  0.27780  0.86100  Biso   1.000  H
  C290     1.0000 0.59444  0.31350  0.76460  Biso   1.000  C
  C291     1.0000 0.60664  0.34966  0.72720  Biso   1.000  C
  H160     1.0000 0.59080  0.35710  0.67960  Biso   1.000  H
  C292     1.0000 0.64241  0.37495  0.76030  Biso   1.000  C
  H161     1.0000 0.64960  0.40030  0.73580  Biso   1.000  H
  C293     1.0000 0.55575  0.28481  0.72960  Biso   1.000  C
  C294     1.0000 0.82140  0.36275  0.97250  Biso   1.000  C
  C295     1.0000 0.84757  0.37980  0.03810  Biso   1.000  C
  H162     1.0000 0.83950  0.40590  0.05950  Biso   1.000  H
  C296     1.0000 0.88538  0.35840  0.07170  Biso   1.000  C
  H163     1.0000 0.90250  0.37010  0.11560  Biso   1.000  H
  C297     1.0000 0.89784  0.31970  0.04050  Biso   1.000  C
  C298     1.0000 0.87149  0.30187  0.97710  Biso   1.000  C
  H164     1.0000 0.87920  0.27520  0.95680  Biso   1.000  H
  C299     1.0000 0.83358  0.32316  0.94320  Biso   1.000  C
  H165     1.0000 0.81610  0.31070  0.90020  Biso   1.000  H
  C300     1.0000 0.93986  0.29810  0.07660  Biso   1.000  C
  C301     1.0000 0.74737  0.51015  0.90230  Biso   1.000  C
  C302     1.0000 0.78265  0.53355  0.89330  Biso   1.000  C
  H166     1.0000 0.80480  0.51740  0.88120  Biso   1.000  H
  C303     1.0000 0.78630  0.58168  0.90210  Biso   1.000  C
  C304     1.0000 0.75279  0.60504  0.91880  Biso   1.000  C
  H167     1.0000 0.75450  0.63650  0.92450  Biso   1.000  H
  C305     1.0000 0.71633  0.58223  0.92730  Biso   1.000  C
  C306     1.0000 0.71416  0.53510  0.91930  Biso   1.000  C
  H168     1.0000 0.69000  0.51980  0.92540  Biso   1.000  H
  C307     1.0000 0.68148  0.60741  0.95000  Biso   1.000  C
  C308     1.0000 0.61430  0.65400  0.98810  Biso   1.000  C
  C309     1.0000 0.57927  0.68090  0.00810  Biso   1.000  C
  C310     1.0000 0.82459  0.60590  0.89110  Biso   1.000  C
  C311     1.0000 0.84066  0.64448  0.93520  Biso   1.000  C
  H169     1.0000 0.82680  0.65470  0.97060  Biso   1.000  H
  C312     1.0000 0.87638  0.66700  0.92640  Biso   1.000  C
  H170     1.0000 0.88700  0.69180  0.95670  Biso   1.000  H
  C313     1.0000 0.89677  0.65287  0.87230  Biso   1.000  C
  C314     1.0000 0.88048  0.61604  0.82750  Biso   1.000  C
  H171     1.0000 0.89300  0.60720  0.78950  Biso   1.000  H
  C315     1.0000 0.84592  0.59266  0.83910  Biso   1.000  C
  H172     1.0000 0.83660  0.56680  0.81060  Biso   1.000  H
  C316     1.0000 0.93473  0.67906  0.85950  Biso   1.000  C
  C317     1.0000 0.61400  0.61360  0.97790  Biso   1.000  C
  H173     1.0000 0.59100  0.59690  0.98550  Biso   1.000  H
  C318     1.0000 0.68170  0.64940  0.95470  Biso   1.000  C
  H174     1.0000 0.69970  0.66700  0.93380  Biso   1.000  H
  C319     1.0000 0.65150  0.67160  0.99570  Biso   1.000  C
  H175     1.0000 0.65970  0.69720  0.02540  Biso   1.000  H
  C320     1.0000 0.64630  0.59020  0.95540  Biso   1.000  C
  H176     1.0000 0.64160  0.55950  0.94330  Biso   1.000  H
  Er9      1.0000 0.00000  0.30618  0.25000  Biso   1.000  Er
  Er10     1.0000 0.50000  0.80618  0.25000  Biso   1.000  Er
  Er11     1.0000 0.00000  0.69382  0.75000  Biso   1.000  Er
  Er12     1.0000 0.50000  0.19382  0.75000  Biso   1.000  Er
