data_image0
_cell_length_a       11.688
_cell_length_b       10.2438
_cell_length_c       18.753
_cell_angle_alpha    90
_cell_angle_beta     127.408
_cell_angle_gamma    90

_symmetry_space_group_name_H-M    "P 1"
_symmetry_int_tables_number       1

loop_
  _symmetry_equiv_pos_as_xyz
  'x, y, z'

loop_
  _atom_site_label
  _atom_site_occupancy
  _atom_site_fract_x
  _atom_site_fract_y
  _atom_site_fract_z
  _atom_site_thermal_displace_type
  _atom_site_B_iso_or_equiv
  _atom_site_type_symbol
  Mn1      1.0000 0.37545  0.08643  0.12980  Biso   1.000  Mn
  Mn2      1.0000 0.57461  0.89962  0.31488  Biso   1.000  Mn
  O1       1.0000 0.44320  0.20820  0.24617  Biso   1.000  O
  O2       1.0000 0.55900  0.07740  0.36620  Biso   1.000  O
  O3       1.0000 0.59000  0.99830  0.21870  Biso   1.000  O
  O4       1.0000 0.67720  0.00150  0.14160  Biso   1.000  O
  O5       1.0000 0.45680  0.26280  0.10820  Biso   1.000  O
  O6       1.0000 0.47850  0.20640  0.00230  Biso   1.000  O
  O7       1.0000 0.34520  0.92870  0.19800  Biso   1.000  O
  O8       1.0000 0.11010  0.90120  0.12740  Biso   1.000  O
  O9       1.0000 0.33650  0.97200  0.02170  Biso   1.000  O
  O10      1.0000 0.11880  0.89680  0.96660  Biso   1.000  O
  O11      1.0000 0.15770  0.16140  0.05780  Biso   1.000  O
  O12      1.0000 0.20190  0.37390  0.09080  Biso   1.000  O
  C1       1.0000 0.50750  0.18510  0.32890  Biso   1.000  C
  C2       1.0000 0.69240  0.99080  0.21210  Biso   1.000  C
  C3       1.0000 0.48180  0.28560  0.05220  Biso   1.000  C
  C4       1.0000 0.23870  0.88100  0.19040  Biso   1.000  C
  C5       1.0000 0.22520  0.90030  0.96780  Biso   1.000  C
  C6       1.0000 0.11970  0.28010  0.05040  Biso   1.000  C
  C7       1.0000 0.83100  0.98500  0.28400  Biso   1.000  C
  C8       1.0000 0.56900  0.40050  0.06240  Biso   1.000  C
  C9       1.0000 0.97600  0.33000  0.99100  Biso   1.000  C
  Mn3      1.0000 0.62455  0.58643  0.37020  Biso   1.000  Mn
  Mn4      1.0000 0.42539  0.39962  0.18512  Biso   1.000  Mn
  O13      1.0000 0.55680  0.70820  0.25383  Biso   1.000  O
  O14      1.0000 0.44100  0.57740  0.13380  Biso   1.000  O
  O15      1.0000 0.41000  0.49830  0.28130  Biso   1.000  O
  O16      1.0000 0.32280  0.50150  0.35840  Biso   1.000  O
  O17      1.0000 0.54320  0.76280  0.39180  Biso   1.000  O
  O18      1.0000 0.52150  0.70640  0.49770  Biso   1.000  O
  O19      1.0000 0.65480  0.42870  0.30200  Biso   1.000  O
  O20      1.0000 0.88990  0.40120  0.37260  Biso   1.000  O
  O21      1.0000 0.66350  0.47200  0.47830  Biso   1.000  O
  O22      1.0000 0.88120  0.39680  0.53340  Biso   1.000  O
  O23      1.0000 0.84230  0.66140  0.44220  Biso   1.000  O
  O24      1.0000 0.79810  0.87390  0.40920  Biso   1.000  O
  C10      1.0000 0.49250  0.68510  0.17110  Biso   1.000  C
  C11      1.0000 0.30760  0.49080  0.28790  Biso   1.000  C
  C12      1.0000 0.51820  0.78560  0.44780  Biso   1.000  C
  C13      1.0000 0.76130  0.38100  0.30960  Biso   1.000  C
  C14      1.0000 0.77480  0.40030  0.53220  Biso   1.000  C
  C15      1.0000 0.88030  0.78010  0.44960  Biso   1.000  C
  C16      1.0000 0.16900  0.48500  0.21600  Biso   1.000  C
  C17      1.0000 0.43100  0.90050  0.43760  Biso   1.000  C
  C18      1.0000 0.02400  0.83000  0.50900  Biso   1.000  C
  Mn5      1.0000 0.62455  0.91357  0.87020  Biso   1.000  Mn
  Mn6      1.0000 0.42539  0.10038  0.68512  Biso   1.000  Mn
  O25      1.0000 0.55680  0.79180  0.75383  Biso   1.000  O
  O26      1.0000 0.44100  0.92260  0.63380  Biso   1.000  O
  O27      1.0000 0.41000  0.00170  0.78130  Biso   1.000  O
  O28      1.0000 0.32280  0.99850  0.85840  Biso   1.000  O
  O29      1.0000 0.54320  0.73720  0.89180  Biso   1.000  O
  O30      1.0000 0.52150  0.79360  0.99770  Biso   1.000  O
  O31      1.0000 0.65480  0.07130  0.80200  Biso   1.000  O
  O32      1.0000 0.88990  0.09880  0.87260  Biso   1.000  O
  O33      1.0000 0.66350  0.02800  0.97830  Biso   1.000  O
  O34      1.0000 0.88120  0.10320  0.03340  Biso   1.000  O
  O35      1.0000 0.84230  0.83860  0.94220  Biso   1.000  O
  O36      1.0000 0.79810  0.62610  0.90920  Biso   1.000  O
  C19      1.0000 0.49250  0.81490  0.67110  Biso   1.000  C
  C20      1.0000 0.30760  0.00920  0.78790  Biso   1.000  C
  C21      1.0000 0.51820  0.71440  0.94780  Biso   1.000  C
  C22      1.0000 0.76130  0.11900  0.80960  Biso   1.000  C
  C23      1.0000 0.77480  0.09970  0.03220  Biso   1.000  C
  C24      1.0000 0.88030  0.71990  0.94960  Biso   1.000  C
  C25      1.0000 0.16900  0.01500  0.71600  Biso   1.000  C
  C26      1.0000 0.43100  0.59950  0.93760  Biso   1.000  C
  C27      1.0000 0.02400  0.67000  0.00900  Biso   1.000  C
  Mn7      1.0000 0.37545  0.41357  0.62980  Biso   1.000  Mn
  Mn8      1.0000 0.57461  0.60038  0.81488  Biso   1.000  Mn
  O37      1.0000 0.44320  0.29180  0.74617  Biso   1.000  O
  O38      1.0000 0.55900  0.42260  0.86620  Biso   1.000  O
  O39      1.0000 0.59000  0.50170  0.71870  Biso   1.000  O
  O40      1.0000 0.67720  0.49850  0.64160  Biso   1.000  O
  O41      1.0000 0.45680  0.23720  0.60820  Biso   1.000  O
  O42      1.0000 0.47850  0.29360  0.50230  Biso   1.000  O
  O43      1.0000 0.34520  0.57130  0.69800  Biso   1.000  O
  O44      1.0000 0.11010  0.59880  0.62740  Biso   1.000  O
  O45      1.0000 0.33650  0.52800  0.52170  Biso   1.000  O
  O46      1.0000 0.11880  0.60320  0.46660  Biso   1.000  O
  O47      1.0000 0.15770  0.33860  0.55780  Biso   1.000  O
  O48      1.0000 0.20190  0.12610  0.59080  Biso   1.000  O
  C28      1.0000 0.50750  0.31490  0.82890  Biso   1.000  C
  C29      1.0000 0.69240  0.50920  0.71210  Biso   1.000  C
  C30      1.0000 0.48180  0.21440  0.55220  Biso   1.000  C
  C31      1.0000 0.23870  0.61900  0.69040  Biso   1.000  C
  C32      1.0000 0.22520  0.59970  0.46780  Biso   1.000  C
  C33      1.0000 0.11970  0.21990  0.55040  Biso   1.000  C
  C34      1.0000 0.83100  0.51500  0.78400  Biso   1.000  C
  C35      1.0000 0.56900  0.09950  0.56240  Biso   1.000  C
  C36      1.0000 0.97600  0.17000  0.49100  Biso   1.000  C
  Mn9      1.0000 0.50000  0.00000  0.00000  Biso   1.000  Mn
  Mn10     1.0000 0.50000  0.50000  0.50000  Biso   1.000  Mn
  Mn11     1.0000 0.00000  0.00000  0.00000  Biso   1.000  Mn
  Mn12     1.0000 0.00000  0.50000  0.50000  Biso   1.000  Mn
