data_image0
_cell_length_a       26.2911
_cell_length_b       13.5761
_cell_length_c       6.762
_cell_angle_alpha    90
_cell_angle_beta     92.443
_cell_angle_gamma    90

_symmetry_space_group_name_H-M    "P 1"
_symmetry_int_tables_number       1

loop_
  _symmetry_equiv_pos_as_xyz
  'x, y, z'

loop_
  _atom_site_label
  _atom_site_occupancy
  _atom_site_fract_x
  _atom_site_fract_y
  _atom_site_fract_z
  _atom_site_thermal_displace_type
  _atom_site_B_iso_or_equiv
  _atom_site_type_symbol
  Tb1      1.0000 0.89641  0.19315  0.98843  Biso   1.000  Tb
  C1       1.0000 0.82160  0.54710  0.93090  Biso   1.000  C
  H1       1.0000 0.85690  0.55100  0.94830  Biso   1.000  H
  C2       1.0000 0.79950  0.45480  0.93310  Biso   1.000  C
  C3       1.0000 0.74660  0.44870  0.91070  Biso   1.000  C
  H2       1.0000 0.73030  0.38790  0.91040  Biso   1.000  H
  C4       1.0000 0.71864  0.53550  0.88880  Biso   1.000  C
  C5       1.0000 0.74490  0.62430  0.88460  Biso   1.000  C
  H3       1.0000 0.72620  0.68200  0.86630  Biso   1.000  H
  C6       1.0000 0.83220  0.36460  0.95500  Biso   1.000  C
  C7       1.0000 0.66140  0.53620  0.86460  Biso   1.000  C
  N1       1.0000 0.79571  0.63120  0.90560  Biso   1.000  N
  O1       1.0000 0.87857  0.37530  0.00730  Biso   1.000  O
  O2       1.0000 0.81320  0.28080  0.92280  Biso   1.000  O
  O3       1.0000 0.63805  0.45970  0.90410  Biso   1.000  O
  O4       1.0000 0.64042  0.61550  0.80910  Biso   1.000  O
  O5       1.0000 0.95545  0.13980  0.29070  Biso   1.000  O
  O6       1.0000 0.98452  0.26050  0.07810  Biso   1.000  O
  Tb2      1.0000 0.39641  0.69315  0.98843  Biso   1.000  Tb
  C8       1.0000 0.32160  0.04710  0.93090  Biso   1.000  C
  H4       1.0000 0.35690  0.05100  0.94830  Biso   1.000  H
  C9       1.0000 0.29950  0.95480  0.93310  Biso   1.000  C
  C10      1.0000 0.24660  0.94870  0.91070  Biso   1.000  C
  H5       1.0000 0.23030  0.88790  0.91040  Biso   1.000  H
  C11      1.0000 0.21864  0.03550  0.88880  Biso   1.000  C
  C12      1.0000 0.24490  0.12430  0.88460  Biso   1.000  C
  H6       1.0000 0.22620  0.18200  0.86630  Biso   1.000  H
  C13      1.0000 0.33220  0.86460  0.95500  Biso   1.000  C
  C14      1.0000 0.16140  0.03620  0.86460  Biso   1.000  C
  N2       1.0000 0.29571  0.13120  0.90560  Biso   1.000  N
  O7       1.0000 0.37857  0.87530  0.00730  Biso   1.000  O
  O8       1.0000 0.31320  0.78080  0.92280  Biso   1.000  O
  O9       1.0000 0.13805  0.95970  0.90410  Biso   1.000  O
  O10      1.0000 0.14042  0.11550  0.80910  Biso   1.000  O
  O11      1.0000 0.45545  0.63980  0.29070  Biso   1.000  O
  O12      1.0000 0.48452  0.76050  0.07810  Biso   1.000  O
  Tb3      1.0000 0.10359  0.19315  0.51157  Biso   1.000  Tb
  C15      1.0000 0.17840  0.54710  0.56910  Biso   1.000  C
  H7       1.0000 0.14310  0.55100  0.55170  Biso   1.000  H
  C16      1.0000 0.20050  0.45480  0.56690  Biso   1.000  C
  C17      1.0000 0.25340  0.44870  0.58930  Biso   1.000  C
  H8       1.0000 0.26970  0.38790  0.58960  Biso   1.000  H
  C18      1.0000 0.28136  0.53550  0.61120  Biso   1.000  C
  C19      1.0000 0.25510  0.62430  0.61540  Biso   1.000  C
  H9       1.0000 0.27380  0.68200  0.63370  Biso   1.000  H
  C20      1.0000 0.16780  0.36460  0.54500  Biso   1.000  C
  C21      1.0000 0.33860  0.53620  0.63540  Biso   1.000  C
  N3       1.0000 0.20429  0.63120  0.59440  Biso   1.000  N
  O13      1.0000 0.12143  0.37530  0.49270  Biso   1.000  O
  O14      1.0000 0.18680  0.28080  0.57720  Biso   1.000  O
  O15      1.0000 0.36195  0.45970  0.59590  Biso   1.000  O
  O16      1.0000 0.35958  0.61550  0.69090  Biso   1.000  O
  O17      1.0000 0.04455  0.13980  0.20930  Biso   1.000  O
  O18      1.0000 0.01548  0.26050  0.42190  Biso   1.000  O
  Tb4      1.0000 0.60359  0.69315  0.51157  Biso   1.000  Tb
  C22      1.0000 0.67840  0.04710  0.56910  Biso   1.000  C
  H10      1.0000 0.64310  0.05100  0.55170  Biso   1.000  H
  C23      1.0000 0.70050  0.95480  0.56690  Biso   1.000  C
  C24      1.0000 0.75340  0.94870  0.58930  Biso   1.000  C
  H11      1.0000 0.76970  0.88790  0.58960  Biso   1.000  H
  C25      1.0000 0.78136  0.03550  0.61120  Biso   1.000  C
  C26      1.0000 0.75510  0.12430  0.61540  Biso   1.000  C
  H12      1.0000 0.77380  0.18200  0.63370  Biso   1.000  H
  C27      1.0000 0.66780  0.86460  0.54500  Biso   1.000  C
  C28      1.0000 0.83860  0.03620  0.63540  Biso   1.000  C
  N4       1.0000 0.70429  0.13120  0.59440  Biso   1.000  N
  O19      1.0000 0.62143  0.87530  0.49270  Biso   1.000  O
  O20      1.0000 0.68680  0.78080  0.57720  Biso   1.000  O
  O21      1.0000 0.86195  0.95970  0.59590  Biso   1.000  O
  O22      1.0000 0.85958  0.11550  0.69090  Biso   1.000  O
  O23      1.0000 0.54455  0.63980  0.20930  Biso   1.000  O
  O24      1.0000 0.51548  0.76050  0.42190  Biso   1.000  O
  Tb5      1.0000 0.10359  0.80685  0.01157  Biso   1.000  Tb
  C29      1.0000 0.17840  0.45290  0.06910  Biso   1.000  C
  H13      1.0000 0.14310  0.44900  0.05170  Biso   1.000  H
  C30      1.0000 0.20050  0.54520  0.06690  Biso   1.000  C
  C31      1.0000 0.25340  0.55130  0.08930  Biso   1.000  C
  H14      1.0000 0.26970  0.61210  0.08960  Biso   1.000  H
  C32      1.0000 0.28136  0.46450  0.11120  Biso   1.000  C
  C33      1.0000 0.25510  0.37570  0.11540  Biso   1.000  C
  H15      1.0000 0.27380  0.31800  0.13370  Biso   1.000  H
  C34      1.0000 0.16780  0.63540  0.04500  Biso   1.000  C
  C35      1.0000 0.33860  0.46380  0.13540  Biso   1.000  C
  N5       1.0000 0.20429  0.36880  0.09440  Biso   1.000  N
  O25      1.0000 0.12143  0.62470  0.99270  Biso   1.000  O
  O26      1.0000 0.18680  0.71920  0.07720  Biso   1.000  O
  O27      1.0000 0.36195  0.54030  0.09590  Biso   1.000  O
  O28      1.0000 0.35958  0.38450  0.19090  Biso   1.000  O
  O29      1.0000 0.04455  0.86020  0.70930  Biso   1.000  O
  O30      1.0000 0.01548  0.73950  0.92190  Biso   1.000  O
  Tb6      1.0000 0.60359  0.30685  0.01157  Biso   1.000  Tb
  C36      1.0000 0.67840  0.95290  0.06910  Biso   1.000  C
  H16      1.0000 0.64310  0.94900  0.05170  Biso   1.000  H
  C37      1.0000 0.70050  0.04520  0.06690  Biso   1.000  C
  C38      1.0000 0.75340  0.05130  0.08930  Biso   1.000  C
  H17      1.0000 0.76970  0.11210  0.08960  Biso   1.000  H
  C39      1.0000 0.78136  0.96450  0.11120  Biso   1.000  C
  C40      1.0000 0.75510  0.87570  0.11540  Biso   1.000  C
  H18      1.0000 0.77380  0.81800  0.13370  Biso   1.000  H
  C41      1.0000 0.66780  0.13540  0.04500  Biso   1.000  C
  C42      1.0000 0.83860  0.96380  0.13540  Biso   1.000  C
  N6       1.0000 0.70429  0.86880  0.09440  Biso   1.000  N
  O31      1.0000 0.62143  0.12470  0.99270  Biso   1.000  O
  O32      1.0000 0.68680  0.21920  0.07720  Biso   1.000  O
  O33      1.0000 0.86195  0.04030  0.09590  Biso   1.000  O
  O34      1.0000 0.85958  0.88450  0.19090  Biso   1.000  O
  O35      1.0000 0.54455  0.36020  0.70930  Biso   1.000  O
  O36      1.0000 0.51548  0.23950  0.92190  Biso   1.000  O
  Tb7      1.0000 0.89641  0.80685  0.48843  Biso   1.000  Tb
  C43      1.0000 0.82160  0.45290  0.43090  Biso   1.000  C
  H19      1.0000 0.85690  0.44900  0.44830  Biso   1.000  H
  C44      1.0000 0.79950  0.54520  0.43310  Biso   1.000  C
  C45      1.0000 0.74660  0.55130  0.41070  Biso   1.000  C
  H20      1.0000 0.73030  0.61210  0.41040  Biso   1.000  H
  C46      1.0000 0.71864  0.46450  0.38880  Biso   1.000  C
  C47      1.0000 0.74490  0.37570  0.38460  Biso   1.000  C
  H21      1.0000 0.72620  0.31800  0.36630  Biso   1.000  H
  C48      1.0000 0.83220  0.63540  0.45500  Biso   1.000  C
  C49      1.0000 0.66140  0.46380  0.36460  Biso   1.000  C
  N7       1.0000 0.79571  0.36880  0.40560  Biso   1.000  N
  O37      1.0000 0.87857  0.62470  0.50730  Biso   1.000  O
  O38      1.0000 0.81320  0.71920  0.42280  Biso   1.000  O
  O39      1.0000 0.63805  0.54030  0.40410  Biso   1.000  O
  O40      1.0000 0.64042  0.38450  0.30910  Biso   1.000  O
  O41      1.0000 0.95545  0.86020  0.79070  Biso   1.000  O
  O42      1.0000 0.98452  0.73950  0.57810  Biso   1.000  O
  Tb8      1.0000 0.39641  0.30685  0.48843  Biso   1.000  Tb
  C50      1.0000 0.32160  0.95290  0.43090  Biso   1.000  C
  H22      1.0000 0.35690  0.94900  0.44830  Biso   1.000  H
  C51      1.0000 0.29950  0.04520  0.43310  Biso   1.000  C
  C52      1.0000 0.24660  0.05130  0.41070  Biso   1.000  C
  H23      1.0000 0.23030  0.11210  0.41040  Biso   1.000  H
  C53      1.0000 0.21864  0.96450  0.38880  Biso   1.000  C
  C54      1.0000 0.24490  0.87570  0.38460  Biso   1.000  C
  H24      1.0000 0.22620  0.81800  0.36630  Biso   1.000  H
  C55      1.0000 0.33220  0.13540  0.45500  Biso   1.000  C
  C56      1.0000 0.16140  0.96380  0.36460  Biso   1.000  C
  N8       1.0000 0.29571  0.86880  0.40560  Biso   1.000  N
  O43      1.0000 0.37857  0.12470  0.50730  Biso   1.000  O
  O44      1.0000 0.31320  0.21920  0.42280  Biso   1.000  O
  O45      1.0000 0.13805  0.04030  0.40410  Biso   1.000  O
  O46      1.0000 0.14042  0.88450  0.30910  Biso   1.000  O
  O47      1.0000 0.45545  0.36020  0.79070  Biso   1.000  O
  O48      1.0000 0.48452  0.23950  0.57810  Biso   1.000  O
  S1       1.0000 0.00000  0.20132  0.25000  Biso   1.000  S
  S2       1.0000 0.50000  0.70132  0.25000  Biso   1.000  S
  S3       1.0000 0.00000  0.79868  0.75000  Biso   1.000  S
  S4       1.0000 0.50000  0.29868  0.75000  Biso   1.000  S
