data_image0
_cell_length_a       8.3219
_cell_length_b       15.4318
_cell_length_c       28.647
_cell_angle_alpha    90
_cell_angle_beta     93.449
_cell_angle_gamma    90

_symmetry_space_group_name_H-M    "P 1"
_symmetry_int_tables_number       1

loop_
  _symmetry_equiv_pos_as_xyz
  'x, y, z'

loop_
  _atom_site_label
  _atom_site_occupancy
  _atom_site_fract_x
  _atom_site_fract_y
  _atom_site_fract_z
  _atom_site_thermal_displace_type
  _atom_site_B_iso_or_equiv
  _atom_site_type_symbol
  Tb1      1.0000 0.77314  0.01306  0.71417  Biso   1.000  Tb
  O1       1.0000 0.65630  0.93510  0.64960  Biso   1.000  O
  O2       1.0000 0.60040  0.88570  0.71910  Biso   1.000  O
  O3       1.0000 0.38630  0.53600  0.29060  Biso   1.000  O
  O4       1.0000 0.17040  0.45550  0.28890  Biso   1.000  O
  O5       1.0000 0.86420  0.09370  0.64730  Biso   1.000  O
  O6       1.0000 0.93050  0.14900  0.71770  Biso   1.000  O
  N1       1.0000 0.31170  0.58130  0.53440  Biso   1.000  N
  N2       1.0000 0.19100  0.44170  0.53290  Biso   1.000  N
  N3       1.0000 0.24050  0.51570  0.60620  Biso   1.000  N
  C1       1.0000 0.58900  0.87840  0.67660  Biso   1.000  C
  C2       1.0000 0.51600  0.80190  0.65090  Biso   1.000  C
  C3       1.0000 0.50800  0.79490  0.60300  Biso   1.000  C
  H1       1.0000 0.55120  0.84050  0.58530  Biso   1.000  H
  C4       1.0000 0.44000  0.72380  0.57920  Biso   1.000  C
  H2       1.0000 0.43730  0.72010  0.54610  Biso   1.000  H
  C5       1.0000 0.37300  0.65590  0.60700  Biso   1.000  C
  C6       1.0000 0.38200  0.66290  0.65370  Biso   1.000  C
  H3       1.0000 0.33640  0.61730  0.67080  Biso   1.000  H
  C7       1.0000 0.45400  0.73160  0.67970  Biso   1.000  C
  H4       1.0000 0.46190  0.73260  0.71290  Biso   1.000  H
  C8       1.0000 0.30600  0.58050  0.58000  Biso   1.000  C
  C9       1.0000 0.25600  0.50900  0.51120  Biso   1.000  C
  C10      1.0000 0.18300  0.44800  0.57920  Biso   1.000  C
  C11      1.0000 0.26500  0.50440  0.46110  Biso   1.000  C
  C12      1.0000 0.36400  0.56100  0.43820  Biso   1.000  C
  H5       1.0000 0.42740  0.60240  0.45570  Biso   1.000  H
  C13      1.0000 0.37100  0.55690  0.38860  Biso   1.000  C
  H6       1.0000 0.44040  0.59430  0.37290  Biso   1.000  H
  C14      1.0000 0.27200  0.49580  0.36270  Biso   1.000  C
  C15      1.0000 0.17900  0.44100  0.38640  Biso   1.000  C
  H7       1.0000 0.11460  0.39990  0.36920  Biso   1.000  H
  C16      1.0000 0.17400  0.44210  0.43480  Biso   1.000  C
  H8       1.0000 0.11050  0.40120  0.45010  Biso   1.000  H
  C17      1.0000 0.27800  0.49350  0.31190  Biso   1.000  C
  C18      1.0000 0.12100  0.37320  0.60530  Biso   1.000  C
  C19      1.0000 0.10300  0.29350  0.58180  Biso   1.000  C
  H9       1.0000 0.13410  0.28760  0.55060  Biso   1.000  H
  C20      1.0000 0.03800  0.22210  0.60520  Biso   1.000  C
  H10      1.0000 0.02840  0.16780  0.58970  Biso   1.000  H
  C21      1.0000 0.98800  0.22940  0.64910  Biso   1.000  C
  C22      1.0000 0.00600  0.31110  0.67350  Biso   1.000  C
  H11      1.0000 0.97630  0.31680  0.70490  Biso   1.000  H
  C23      1.0000 0.06600  0.38070  0.65000  Biso   1.000  C
  H12      1.0000 0.07040  0.43580  0.66480  Biso   1.000  H
  C24      1.0000 0.92800  0.15250  0.67350  Biso   1.000  C
  Tb2      1.0000 0.27314  0.48694  0.21417  Biso   1.000  Tb
  O7       1.0000 0.15630  0.56490  0.14960  Biso   1.000  O
  O8       1.0000 0.10040  0.61430  0.21910  Biso   1.000  O
  O9       1.0000 0.88630  0.96400  0.79060  Biso   1.000  O
  O10      1.0000 0.67040  0.04450  0.78890  Biso   1.000  O
  O11      1.0000 0.36420  0.40630  0.14730  Biso   1.000  O
  O12      1.0000 0.43050  0.35100  0.21770  Biso   1.000  O
  N4       1.0000 0.81170  0.91870  0.03440  Biso   1.000  N
  N5       1.0000 0.69100  0.05830  0.03290  Biso   1.000  N
  N6       1.0000 0.74050  0.98430  0.10620  Biso   1.000  N
  C25      1.0000 0.08900  0.62160  0.17660  Biso   1.000  C
  C26      1.0000 0.01600  0.69810  0.15090  Biso   1.000  C
  C27      1.0000 0.00800  0.70510  0.10300  Biso   1.000  C
  H13      1.0000 0.05120  0.65950  0.08530  Biso   1.000  H
  C28      1.0000 0.94000  0.77620  0.07920  Biso   1.000  C
  H14      1.0000 0.93730  0.77990  0.04610  Biso   1.000  H
  C29      1.0000 0.87300  0.84410  0.10700  Biso   1.000  C
  C30      1.0000 0.88200  0.83710  0.15370  Biso   1.000  C
  H15      1.0000 0.83640  0.88270  0.17080  Biso   1.000  H
  C31      1.0000 0.95400  0.76840  0.17970  Biso   1.000  C
  H16      1.0000 0.96190  0.76740  0.21290  Biso   1.000  H
  C32      1.0000 0.80600  0.91950  0.08000  Biso   1.000  C
  C33      1.0000 0.75600  0.99100  0.01120  Biso   1.000  C
  C34      1.0000 0.68300  0.05200  0.07920  Biso   1.000  C
  C35      1.0000 0.76500  0.99560  0.96110  Biso   1.000  C
  C36      1.0000 0.86400  0.93900  0.93820  Biso   1.000  C
  H17      1.0000 0.92740  0.89760  0.95570  Biso   1.000  H
  C37      1.0000 0.87100  0.94310  0.88860  Biso   1.000  C
  H18      1.0000 0.94040  0.90570  0.87290  Biso   1.000  H
  C38      1.0000 0.77200  0.00420  0.86270  Biso   1.000  C
  C39      1.0000 0.67900  0.05900  0.88640  Biso   1.000  C
  H19      1.0000 0.61460  0.10010  0.86920  Biso   1.000  H
  C40      1.0000 0.67400  0.05790  0.93480  Biso   1.000  C
  H20      1.0000 0.61050  0.09880  0.95010  Biso   1.000  H
  C41      1.0000 0.77800  0.00650  0.81190  Biso   1.000  C
  C42      1.0000 0.62100  0.12680  0.10530  Biso   1.000  C
  C43      1.0000 0.60300  0.20650  0.08180  Biso   1.000  C
  H21      1.0000 0.63410  0.21240  0.05060  Biso   1.000  H
  C44      1.0000 0.53800  0.27790  0.10520  Biso   1.000  C
  H22      1.0000 0.52840  0.33220  0.08970  Biso   1.000  H
  C45      1.0000 0.48800  0.27060  0.14910  Biso   1.000  C
  C46      1.0000 0.50600  0.18890  0.17350  Biso   1.000  C
  H23      1.0000 0.47630  0.18320  0.20490  Biso   1.000  H
  C47      1.0000 0.56600  0.11930  0.15000  Biso   1.000  C
  H24      1.0000 0.57040  0.06420  0.16480  Biso   1.000  H
  C48      1.0000 0.42800  0.34750  0.17350  Biso   1.000  C
  Tb3      1.0000 0.72686  0.51306  0.78583  Biso   1.000  Tb
  O13      1.0000 0.84370  0.43510  0.85040  Biso   1.000  O
  O14      1.0000 0.89960  0.38570  0.78090  Biso   1.000  O
  O15      1.0000 0.11370  0.03600  0.20940  Biso   1.000  O
  O16      1.0000 0.32960  0.95550  0.21110  Biso   1.000  O
  O17      1.0000 0.63580  0.59370  0.85270  Biso   1.000  O
  O18      1.0000 0.56950  0.64900  0.78230  Biso   1.000  O
  N7       1.0000 0.18830  0.08130  0.96560  Biso   1.000  N
  N8       1.0000 0.30900  0.94170  0.96710  Biso   1.000  N
  N9       1.0000 0.25950  0.01570  0.89380  Biso   1.000  N
  C49      1.0000 0.91100  0.37840  0.82340  Biso   1.000  C
  C50      1.0000 0.98400  0.30190  0.84910  Biso   1.000  C
  C51      1.0000 0.99200  0.29490  0.89700  Biso   1.000  C
  H25      1.0000 0.94880  0.34050  0.91470  Biso   1.000  H
  C52      1.0000 0.06000  0.22380  0.92080  Biso   1.000  C
  H26      1.0000 0.06270  0.22010  0.95390  Biso   1.000  H
  C53      1.0000 0.12700  0.15590  0.89300  Biso   1.000  C
  C54      1.0000 0.11800  0.16290  0.84630  Biso   1.000  C
  H27      1.0000 0.16360  0.11730  0.82920  Biso   1.000  H
  C55      1.0000 0.04600  0.23160  0.82030  Biso   1.000  C
  H28      1.0000 0.03810  0.23260  0.78710  Biso   1.000  H
  C56      1.0000 0.19400  0.08050  0.92000  Biso   1.000  C
  C57      1.0000 0.24400  0.00900  0.98880  Biso   1.000  C
  C58      1.0000 0.31700  0.94800  0.92080  Biso   1.000  C
  C59      1.0000 0.23500  0.00440  0.03890  Biso   1.000  C
  C60      1.0000 0.13600  0.06100  0.06180  Biso   1.000  C
  H29      1.0000 0.07260  0.10240  0.04430  Biso   1.000  H
  C61      1.0000 0.12900  0.05690  0.11140  Biso   1.000  C
  H30      1.0000 0.05960  0.09430  0.12710  Biso   1.000  H
  C62      1.0000 0.22800  0.99580  0.13730  Biso   1.000  C
  C63      1.0000 0.32100  0.94100  0.11360  Biso   1.000  C
  H31      1.0000 0.38540  0.89990  0.13080  Biso   1.000  H
  C64      1.0000 0.32600  0.94210  0.06520  Biso   1.000  C
  H32      1.0000 0.38950  0.90120  0.04990  Biso   1.000  H
  C65      1.0000 0.22200  0.99350  0.18810  Biso   1.000  C
  C66      1.0000 0.37900  0.87320  0.89470  Biso   1.000  C
  C67      1.0000 0.39700  0.79350  0.91820  Biso   1.000  C
  H33      1.0000 0.36590  0.78760  0.94940  Biso   1.000  H
  C68      1.0000 0.46200  0.72210  0.89480  Biso   1.000  C
  H34      1.0000 0.47160  0.66780  0.91030  Biso   1.000  H
  C69      1.0000 0.51200  0.72940  0.85090  Biso   1.000  C
  C70      1.0000 0.49400  0.81110  0.82650  Biso   1.000  C
  H35      1.0000 0.52370  0.81680  0.79510  Biso   1.000  H
  C71      1.0000 0.43400  0.88070  0.85000  Biso   1.000  C
  H36      1.0000 0.42960  0.93580  0.83520  Biso   1.000  H
  C72      1.0000 0.57200  0.65250  0.82650  Biso   1.000  C
  Tb4      1.0000 0.22686  0.98694  0.28583  Biso   1.000  Tb
  O19      1.0000 0.34370  0.06490  0.35040  Biso   1.000  O
  O20      1.0000 0.39960  0.11430  0.28090  Biso   1.000  O
  O21      1.0000 0.61370  0.46400  0.70940  Biso   1.000  O
  O22      1.0000 0.82960  0.54450  0.71110  Biso   1.000  O
  O23      1.0000 0.13580  0.90630  0.35270  Biso   1.000  O
  O24      1.0000 0.06950  0.85100  0.28230  Biso   1.000  O
  N10      1.0000 0.68830  0.41870  0.46560  Biso   1.000  N
  N11      1.0000 0.80900  0.55830  0.46710  Biso   1.000  N
  N12      1.0000 0.75950  0.48430  0.39380  Biso   1.000  N
  C73      1.0000 0.41100  0.12160  0.32340  Biso   1.000  C
  C74      1.0000 0.48400  0.19810  0.34910  Biso   1.000  C
  C75      1.0000 0.49200  0.20510  0.39700  Biso   1.000  C
  H37      1.0000 0.44880  0.15950  0.41470  Biso   1.000  H
  C76      1.0000 0.56000  0.27620  0.42080  Biso   1.000  C
  H38      1.0000 0.56270  0.27990  0.45390  Biso   1.000  H
  C77      1.0000 0.62700  0.34410  0.39300  Biso   1.000  C
  C78      1.0000 0.61800  0.33710  0.34630  Biso   1.000  C
  H39      1.0000 0.66360  0.38270  0.32920  Biso   1.000  H
  C79      1.0000 0.54600  0.26840  0.32030  Biso   1.000  C
  H40      1.0000 0.53810  0.26740  0.28710  Biso   1.000  H
  C80      1.0000 0.69400  0.41950  0.42000  Biso   1.000  C
  C81      1.0000 0.74400  0.49100  0.48880  Biso   1.000  C
  C82      1.0000 0.81700  0.55200  0.42080  Biso   1.000  C
  C83      1.0000 0.73500  0.49560  0.53890  Biso   1.000  C
  C84      1.0000 0.63600  0.43900  0.56180  Biso   1.000  C
  H41      1.0000 0.57260  0.39760  0.54430  Biso   1.000  H
  C85      1.0000 0.62900  0.44310  0.61140  Biso   1.000  C
  H42      1.0000 0.55960  0.40570  0.62710  Biso   1.000  H
  C86      1.0000 0.72800  0.50420  0.63730  Biso   1.000  C
  C87      1.0000 0.82100  0.55900  0.61360  Biso   1.000  C
  H43      1.0000 0.88540  0.60010  0.63080  Biso   1.000  H
  C88      1.0000 0.82600  0.55790  0.56520  Biso   1.000  C
  H44      1.0000 0.88950  0.59880  0.54990  Biso   1.000  H
  C89      1.0000 0.72200  0.50650  0.68810  Biso   1.000  C
  C90      1.0000 0.87900  0.62680  0.39470  Biso   1.000  C
  C91      1.0000 0.89700  0.70650  0.41820  Biso   1.000  C
  H45      1.0000 0.86590  0.71240  0.44940  Biso   1.000  H
  C92      1.0000 0.96200  0.77790  0.39480  Biso   1.000  C
  H46      1.0000 0.97160  0.83220  0.41030  Biso   1.000  H
  C93      1.0000 0.01200  0.77060  0.35090  Biso   1.000  C
  C94      1.0000 0.99400  0.68890  0.32650  Biso   1.000  C
  H47      1.0000 0.02370  0.68320  0.29510  Biso   1.000  H
  C95      1.0000 0.93400  0.61930  0.35000  Biso   1.000  C
  H48      1.0000 0.92960  0.56420  0.33520  Biso   1.000  H
  C96      1.0000 0.07200  0.84750  0.32650  Biso   1.000  C
