data_ATOWIQ_clean
_audit_creation_date              2014-07-02
_audit_creation_method            'Materials Studio'
_symmetry_space_group_name_H-M    'P1'
_symmetry_Int_Tables_number       1
_symmetry_cell_setting            triclinic
loop_
_symmetry_equiv_pos_as_xyz
  x,y,z
_cell_length_a                    13.8224
_cell_length_b                    13.8224
_cell_length_c                    14.3760
_cell_angle_alpha                 61.9182
_cell_angle_beta                  61.9182
_cell_angle_gamma                 79.7099
loop_
_atom_site_label
_atom_site_type_symbol
_atom_site_fract_x
_atom_site_fract_y
_atom_site_fract_z
_atom_site_U_iso_or_equiv
_atom_site_adp_type
_atom_site_occupancy
Zn1    Zn    0.10439   0.89561   0.50000   0.01267  Uiso   1.00
Zn2    Zn    0.89561   0.10439   0.50000   0.01267  Uiso   1.00
Zn3    Zn    0.01934   0.01934   0.08497   0.01267  Uiso   1.00
Zn4    Zn    0.98066   0.98066   0.91503   0.01267  Uiso   1.00
H1     H     0.92590   0.74250   0.54100   0.01267  Uiso   1.00
H2     H     0.06930   0.37770   0.88470   0.01267  Uiso   1.00
H3     H     0.07410   0.56390   0.77150   0.01267  Uiso   1.00
H4     H     0.95840   0.51100   0.59630   0.01267  Uiso   1.00
H5     H     0.95950   0.32590   0.70220   0.01267  Uiso   1.00
H6     H     0.18440   0.85080   0.69360   0.01267  Uiso   1.00
H7     H     0.11160   0.82920   0.82500   0.01267  Uiso   1.00
H8     H     0.08640   0.76220   0.77550   0.01267  Uiso   1.00
H9     H     0.25750   0.07410   0.45900   0.01267  Uiso   1.00
H10    H     0.62230   0.93070   0.11530   0.01267  Uiso   1.00
H11    H     0.43610   0.92590   0.22850   0.01267  Uiso   1.00
H12    H     0.48900   0.04160   0.40370   0.01267  Uiso   1.00
H13    H     0.67410   0.04050   0.29780   0.01267  Uiso   1.00
H14    H     0.14920   0.81560   0.30640   0.01267  Uiso   1.00
H15    H     0.17080   0.88840   0.17500   0.01267  Uiso   1.00
H16    H     0.23780   0.91360   0.22450   0.01267  Uiso   1.00
H17    H     0.07410   0.25750   0.45900   0.01267  Uiso   1.00
H18    H     0.93070   0.62230   0.11530   0.01267  Uiso   1.00
H19    H     0.92590   0.43610   0.22850   0.01267  Uiso   1.00
H20    H     0.04160   0.48900   0.40370   0.01267  Uiso   1.00
H21    H     0.04050   0.67410   0.29780   0.01267  Uiso   1.00
H22    H     0.81560   0.14920   0.30640   0.01267  Uiso   1.00
H23    H     0.88840   0.17080   0.17500   0.01267  Uiso   1.00
H24    H     0.91360   0.23780   0.22450   0.01267  Uiso   1.00
H25    H     0.74250   0.92590   0.54100   0.01267  Uiso   1.00
H26    H     0.37770   0.06930   0.88470   0.01267  Uiso   1.00
H27    H     0.56390   0.07410   0.77150   0.01267  Uiso   1.00
H28    H     0.51100   0.95840   0.59630   0.01267  Uiso   1.00
H29    H     0.32590   0.95950   0.70220   0.01267  Uiso   1.00
H30    H     0.85080   0.18440   0.69360   0.01267  Uiso   1.00
H31    H     0.82920   0.11160   0.82500   0.01267  Uiso   1.00
H32    H     0.76220   0.08640   0.77550   0.01267  Uiso   1.00
C1     C     0.00750   0.20910   0.88250   0.01267  Uiso   1.00
C2     C     0.01440   0.33180   0.80670   0.01267  Uiso   1.00
C3     C     0.04850   0.40350   0.82450   0.01267  Uiso   1.00
C4     C     0.05360   0.51600   0.75440   0.01267  Uiso   1.00
C5     C     0.02980   0.55700   0.66380   0.01267  Uiso   1.00
C6     C     0.98610   0.48410   0.65110   0.01267  Uiso   1.00
C7     C     0.98300   0.37360   0.71730   0.01267  Uiso   1.00
C8     C     0.03850   0.67830   0.58510   0.01267  Uiso   1.00
C9     C     0.03690   0.91730   0.72100   0.01267  Uiso   1.00
C10    C     0.11140   0.83240   0.75690   0.01267  Uiso   1.00
C11    C     0.79090   0.99250   0.11750   0.01267  Uiso   1.00
C12    C     0.66820   0.98560   0.19330   0.01267  Uiso   1.00
C13    C     0.59650   0.95150   0.17550   0.01267  Uiso   1.00
C14    C     0.48400   0.94640   0.24560   0.01267  Uiso   1.00
C15    C     0.44300   0.97020   0.33620   0.01267  Uiso   1.00
C16    C     0.51590   0.01390   0.34890   0.01267  Uiso   1.00
C17    C     0.62640   0.01700   0.28270   0.01267  Uiso   1.00
C18    C     0.32170   0.96150   0.41490   0.01267  Uiso   1.00
C19    C     0.08270   0.96310   0.27900   0.01267  Uiso   1.00
C20    C     0.16760   0.88860   0.24310   0.01267  Uiso   1.00
C21    C     0.99250   0.79090   0.11750   0.01267  Uiso   1.00
C22    C     0.98560   0.66820   0.19330   0.01267  Uiso   1.00
C23    C     0.95150   0.59650   0.17550   0.01267  Uiso   1.00
C24    C     0.94640   0.48400   0.24560   0.01267  Uiso   1.00
C25    C     0.97020   0.44300   0.33620   0.01267  Uiso   1.00
C26    C     0.01390   0.51590   0.34890   0.01267  Uiso   1.00
C27    C     0.01700   0.62640   0.28270   0.01267  Uiso   1.00
C28    C     0.96150   0.32170   0.41490   0.01267  Uiso   1.00
C29    C     0.96310   0.08270   0.27900   0.01267  Uiso   1.00
C30    C     0.88860   0.16760   0.24310   0.01267  Uiso   1.00
C31    C     0.20910   0.00750   0.88250   0.01267  Uiso   1.00
C32    C     0.33180   0.01440   0.80670   0.01267  Uiso   1.00
C33    C     0.40350   0.04850   0.82450   0.01267  Uiso   1.00
C34    C     0.51600   0.05360   0.75440   0.01267  Uiso   1.00
C35    C     0.55700   0.02980   0.66380   0.01267  Uiso   1.00
C36    C     0.48410   0.98610   0.65110   0.01267  Uiso   1.00
C37    C     0.37360   0.98300   0.71730   0.01267  Uiso   1.00
C38    C     0.67830   0.03850   0.58510   0.01267  Uiso   1.00
C39    C     0.91730   0.03690   0.72100   0.01267  Uiso   1.00
C40    C     0.83240   0.11140   0.75690   0.01267  Uiso   1.00
N1     N     0.02500   0.94900   0.62410   0.01267  Uiso   1.00
N2     N     0.05100   0.97500   0.37590   0.01267  Uiso   1.00
N3     N     0.97500   0.05100   0.37590   0.01267  Uiso   1.00
N4     N     0.94900   0.02500   0.62410   0.01267  Uiso   1.00
N5     N     0.97220   0.97220   0.78230   0.01267  Uiso   1.00
N6     N     0.02780   0.02780   0.21770   0.01267  Uiso   1.00
O1     O     0.02210   0.17750   0.97180   0.01267  Uiso   1.00
O2     O     0.98790   0.14770   0.85090   0.01267  Uiso   1.00
O3     O     0.08270   0.73670   0.59240   0.01267  Uiso   1.00
O4     O     0.98910   0.71430   0.52320   0.01267  Uiso   1.00
O5     O     0.82250   0.97790   0.02820   0.01267  Uiso   1.00
O6     O     0.85230   0.01210   0.14910   0.01267  Uiso   1.00
O7     O     0.26330   0.91730   0.40760   0.01267  Uiso   1.00
O8     O     0.28570   0.01090   0.47680   0.01267  Uiso   1.00
O9     O     0.97790   0.82250   0.02820   0.01267  Uiso   1.00
O10    O     0.01210   0.85230   0.14910   0.01267  Uiso   1.00
O11    O     0.91730   0.26330   0.40760   0.01267  Uiso   1.00
O12    O     0.01090   0.28570   0.47680   0.01267  Uiso   1.00
O13    O     0.17750   0.02210   0.97180   0.01267  Uiso   1.00
O14    O     0.14770   0.98790   0.85090   0.01267  Uiso   1.00
O15    O     0.73670   0.08270   0.59240   0.01267  Uiso   1.00
O16    O     0.71430   0.98910   0.52320   0.01267  Uiso   1.00
