data_image0
_cell_length_a       15.9827
_cell_length_b       16.3994
_cell_length_c       6.2418
_cell_angle_alpha    90
_cell_angle_beta     90
_cell_angle_gamma    90

_symmetry_space_group_name_H-M    "P 1"
_symmetry_int_tables_number       1

loop_
  _symmetry_equiv_pos_as_xyz
  'x, y, z'

loop_
  _atom_site_label
  _atom_site_occupancy
  _atom_site_fract_x
  _atom_site_fract_y
  _atom_site_fract_z
  _atom_site_thermal_displace_type
  _atom_site_B_iso_or_equiv
  _atom_site_type_symbol
  Zn1      1.0000 0.89522  0.64911  0.95446  Biso   1.000  Zn
  Zn2      1.0000 0.84513  0.59721  0.45540  Biso   1.000  Zn
  O1       1.0000 0.92960  0.60448  0.23350  Biso   1.000  O
  O2       1.0000 0.23670  0.84740  0.39050  Biso   1.000  O
  O3       1.0000 0.26130  0.89156  0.06090  Biso   1.000  O
  O4       1.0000 0.89376  0.56608  0.73460  Biso   1.000  O
  O5       1.0000 0.66730  0.25050  0.88590  Biso   1.000  O
  O6       1.0000 0.61890  0.22806  0.55780  Biso   1.000  O
  N1       1.0000 0.01468  0.70583  0.97870  Biso   1.000  N
  N2       1.0000 0.79597  0.47756  0.47880  Biso   1.000  N
  C1       1.0000 0.01100  0.62370  0.30120  Biso   1.000  C
  H1       1.0000 0.04600  0.57560  0.28890  Biso   1.000  H
  H2       1.0000 0.00960  0.63960  0.45090  Biso   1.000  H
  C2       1.0000 0.04870  0.69220  0.17020  Biso   1.000  C
  C3       1.0000 0.11610  0.73890  0.24460  Biso   1.000  C
  H3       1.0000 0.13800  0.73000  0.38060  Biso   1.000  H
  C4       1.0000 0.14930  0.79800  0.11410  Biso   1.000  C
  C5       1.0000 0.11690  0.80860  0.90860  Biso   1.000  C
  H4       1.0000 0.14100  0.84550  0.81370  Biso   1.000  H
  C6       1.0000 0.04820  0.76300  0.85020  Biso   1.000  C
  H5       1.0000 0.02410  0.77210  0.71670  Biso   1.000  H
  C7       1.0000 0.22140  0.85030  0.19160  Biso   1.000  C
  C8       1.0000 0.88010  0.48500  0.80130  Biso   1.000  C
  H6       1.0000 0.86380  0.48470  0.95100  Biso   1.000  H
  H7       1.0000 0.93190  0.45450  0.78840  Biso   1.000  H
  C9       1.0000 0.81320  0.44390  0.67030  Biso   1.000  C
  C10      1.0000 0.77150  0.37420  0.74020  Biso   1.000  C
  H8       1.0000 0.78340  0.35190  0.87360  Biso   1.000  H
  C11      1.0000 0.71240  0.33890  0.60930  Biso   1.000  C
  C12      1.0000 0.69730  0.37180  0.40710  Biso   1.000  C
  H9       1.0000 0.65950  0.34730  0.31350  Biso   1.000  H
  C13      1.0000 0.73990  0.44160  0.35000  Biso   1.000  C
  H10      1.0000 0.72930  0.46470  0.21670  Biso   1.000  H
  C14      1.0000 0.66260  0.26610  0.68740  Biso   1.000  C
  Zn3      1.0000 0.10478  0.35089  0.95446  Biso   1.000  Zn
  Zn4      1.0000 0.15487  0.40279  0.45540  Biso   1.000  Zn
  O7       1.0000 0.07040  0.39552  0.23350  Biso   1.000  O
  O8       1.0000 0.76330  0.15260  0.39050  Biso   1.000  O
  O9       1.0000 0.73870  0.10844  0.06090  Biso   1.000  O
  O10      1.0000 0.10624  0.43392  0.73460  Biso   1.000  O
  O11      1.0000 0.33270  0.74950  0.88590  Biso   1.000  O
  O12      1.0000 0.38110  0.77194  0.55780  Biso   1.000  O
  N3       1.0000 0.98532  0.29417  0.97870  Biso   1.000  N
  N4       1.0000 0.20403  0.52244  0.47880  Biso   1.000  N
  C15      1.0000 0.98900  0.37630  0.30120  Biso   1.000  C
  H11      1.0000 0.95400  0.42440  0.28890  Biso   1.000  H
  H12      1.0000 0.99040  0.36040  0.45090  Biso   1.000  H
  C16      1.0000 0.95130  0.30780  0.17020  Biso   1.000  C
  C17      1.0000 0.88390  0.26110  0.24460  Biso   1.000  C
  H13      1.0000 0.86200  0.27000  0.38060  Biso   1.000  H
  C18      1.0000 0.85070  0.20200  0.11410  Biso   1.000  C
  C19      1.0000 0.88310  0.19140  0.90860  Biso   1.000  C
  H14      1.0000 0.85900  0.15450  0.81370  Biso   1.000  H
  C20      1.0000 0.95180  0.23700  0.85020  Biso   1.000  C
  H15      1.0000 0.97590  0.22790  0.71670  Biso   1.000  H
  C21      1.0000 0.77860  0.14970  0.19160  Biso   1.000  C
  C22      1.0000 0.11990  0.51500  0.80130  Biso   1.000  C
  H16      1.0000 0.13620  0.51530  0.95100  Biso   1.000  H
  H17      1.0000 0.06810  0.54550  0.78840  Biso   1.000  H
  C23      1.0000 0.18680  0.55610  0.67030  Biso   1.000  C
  C24      1.0000 0.22850  0.62580  0.74020  Biso   1.000  C
  H18      1.0000 0.21660  0.64810  0.87360  Biso   1.000  H
  C25      1.0000 0.28760  0.66110  0.60930  Biso   1.000  C
  C26      1.0000 0.30270  0.62820  0.40710  Biso   1.000  C
  H19      1.0000 0.34050  0.65270  0.31350  Biso   1.000  H
  C27      1.0000 0.26010  0.55840  0.35000  Biso   1.000  C
  H20      1.0000 0.27070  0.53530  0.21670  Biso   1.000  H
  C28      1.0000 0.33740  0.73390  0.68740  Biso   1.000  C
  Zn5      1.0000 0.39522  0.85089  0.95446  Biso   1.000  Zn
  Zn6      1.0000 0.34513  0.90279  0.45540  Biso   1.000  Zn
  O13      1.0000 0.42960  0.89552  0.23350  Biso   1.000  O
  O14      1.0000 0.73670  0.65260  0.39050  Biso   1.000  O
  O15      1.0000 0.76130  0.60844  0.06090  Biso   1.000  O
  O16      1.0000 0.39376  0.93392  0.73460  Biso   1.000  O
  O17      1.0000 0.16730  0.24950  0.88590  Biso   1.000  O
  O18      1.0000 0.11890  0.27194  0.55780  Biso   1.000  O
  N5       1.0000 0.51468  0.79417  0.97870  Biso   1.000  N
  N6       1.0000 0.29597  0.02244  0.47880  Biso   1.000  N
  C29      1.0000 0.51100  0.87630  0.30120  Biso   1.000  C
  H21      1.0000 0.54600  0.92440  0.28890  Biso   1.000  H
  H22      1.0000 0.50960  0.86040  0.45090  Biso   1.000  H
  C30      1.0000 0.54870  0.80780  0.17020  Biso   1.000  C
  C31      1.0000 0.61610  0.76110  0.24460  Biso   1.000  C
  H23      1.0000 0.63800  0.77000  0.38060  Biso   1.000  H
  C32      1.0000 0.64930  0.70200  0.11410  Biso   1.000  C
  C33      1.0000 0.61690  0.69140  0.90860  Biso   1.000  C
  H24      1.0000 0.64100  0.65450  0.81370  Biso   1.000  H
  C34      1.0000 0.54820  0.73700  0.85020  Biso   1.000  C
  H25      1.0000 0.52410  0.72790  0.71670  Biso   1.000  H
  C35      1.0000 0.72140  0.64970  0.19160  Biso   1.000  C
  C36      1.0000 0.38010  0.01500  0.80130  Biso   1.000  C
  H26      1.0000 0.36380  0.01530  0.95100  Biso   1.000  H
  H27      1.0000 0.43190  0.04550  0.78840  Biso   1.000  H
  C37      1.0000 0.31320  0.05610  0.67030  Biso   1.000  C
  C38      1.0000 0.27150  0.12580  0.74020  Biso   1.000  C
  H28      1.0000 0.28340  0.14810  0.87360  Biso   1.000  H
  C39      1.0000 0.21240  0.16110  0.60930  Biso   1.000  C
  C40      1.0000 0.19730  0.12820  0.40710  Biso   1.000  C
  H29      1.0000 0.15950  0.15270  0.31350  Biso   1.000  H
  C41      1.0000 0.23990  0.05840  0.35000  Biso   1.000  C
  H30      1.0000 0.22930  0.03530  0.21670  Biso   1.000  H
  C42      1.0000 0.16260  0.23390  0.68740  Biso   1.000  C
  Zn7      1.0000 0.60478  0.14911  0.95446  Biso   1.000  Zn
  Zn8      1.0000 0.65487  0.09721  0.45540  Biso   1.000  Zn
  O19      1.0000 0.57040  0.10448  0.23350  Biso   1.000  O
  O20      1.0000 0.26330  0.34740  0.39050  Biso   1.000  O
  O21      1.0000 0.23870  0.39156  0.06090  Biso   1.000  O
  O22      1.0000 0.60624  0.06608  0.73460  Biso   1.000  O
  O23      1.0000 0.83270  0.75050  0.88590  Biso   1.000  O
  O24      1.0000 0.88110  0.72806  0.55780  Biso   1.000  O
  N7       1.0000 0.48532  0.20583  0.97870  Biso   1.000  N
  N8       1.0000 0.70403  0.97756  0.47880  Biso   1.000  N
  C43      1.0000 0.48900  0.12370  0.30120  Biso   1.000  C
  H31      1.0000 0.45400  0.07560  0.28890  Biso   1.000  H
  H32      1.0000 0.49040  0.13960  0.45090  Biso   1.000  H
  C44      1.0000 0.45130  0.19220  0.17020  Biso   1.000  C
  C45      1.0000 0.38390  0.23890  0.24460  Biso   1.000  C
  H33      1.0000 0.36200  0.23000  0.38060  Biso   1.000  H
  C46      1.0000 0.35070  0.29800  0.11410  Biso   1.000  C
  C47      1.0000 0.38310  0.30860  0.90860  Biso   1.000  C
  H34      1.0000 0.35900  0.34550  0.81370  Biso   1.000  H
  C48      1.0000 0.45180  0.26300  0.85020  Biso   1.000  C
  H35      1.0000 0.47590  0.27210  0.71670  Biso   1.000  H
  C49      1.0000 0.27860  0.35030  0.19160  Biso   1.000  C
  C50      1.0000 0.61990  0.98500  0.80130  Biso   1.000  C
  H36      1.0000 0.63620  0.98470  0.95100  Biso   1.000  H
  H37      1.0000 0.56810  0.95450  0.78840  Biso   1.000  H
  C51      1.0000 0.68680  0.94390  0.67030  Biso   1.000  C
  C52      1.0000 0.72850  0.87420  0.74020  Biso   1.000  C
  H38      1.0000 0.71660  0.85190  0.87360  Biso   1.000  H
  C53      1.0000 0.78760  0.83890  0.60930  Biso   1.000  C
  C54      1.0000 0.80270  0.87180  0.40710  Biso   1.000  C
  H39      1.0000 0.84050  0.84730  0.31350  Biso   1.000  H
  C55      1.0000 0.76010  0.94160  0.35000  Biso   1.000  C
  H40      1.0000 0.77070  0.96470  0.21670  Biso   1.000  H
  C56      1.0000 0.83740  0.76610  0.68740  Biso   1.000  C
