data_image0
_cell_length_a       11.072
_cell_length_b       12.676
_cell_length_c       16.022
_cell_angle_alpha    100.291
_cell_angle_beta     105.884
_cell_angle_gamma    95.927

_symmetry_space_group_name_H-M    "P 1"
_symmetry_int_tables_number       1

loop_
  _symmetry_equiv_pos_as_xyz
  'x, y, z'

loop_
  _atom_site_label
  _atom_site_occupancy
  _atom_site_fract_x
  _atom_site_fract_y
  _atom_site_fract_z
  _atom_site_thermal_displace_type
  _atom_site_B_iso_or_equiv
  _atom_site_type_symbol
  Eu1      1.0000 0.00183  0.75874  0.38251  Biso   1.000  Eu
  Eu2      1.0000 0.44208  0.25877  0.87204  Biso   1.000  Eu
  O1       1.0000 0.08890  0.12050  0.10030  Biso   1.000  O
  O2       1.0000 0.90450  0.92450  0.32960  Biso   1.000  O
  O3       1.0000 0.11230  0.93670  0.37620  Biso   1.000  O
  O4       1.0000 0.00690  0.29770  0.47460  Biso   1.000  O
  O5       1.0000 0.01190  0.12330  0.47950  Biso   1.000  O
  O6       1.0000 0.62530  0.18140  0.82950  Biso   1.000  O
  O7       1.0000 0.65310  0.24380  0.97150  Biso   1.000  O
  O8       1.0000 0.23070  0.27680  0.87330  Biso   1.000  O
  O9       1.0000 0.05500  0.28350  0.77010  Biso   1.000  O
  O10      1.0000 0.63570  0.61560  0.60990  Biso   1.000  O
  O11      1.0000 0.40380  0.43760  0.82850  Biso   1.000  O
  O12      1.0000 0.60390  0.41760  0.87010  Biso   1.000  O
  O13      1.0000 0.53610  0.62360  0.98270  Biso   1.000  O
  O14      1.0000 0.57740  0.79860  0.99110  Biso   1.000  O
  O15      1.0000 0.22080  0.77680  0.48770  Biso   1.000  O
  O16      1.0000 0.20220  0.72460  0.34620  Biso   1.000  O
  O17      1.0000 0.78560  0.71200  0.36440  Biso   1.000  O
  O18      1.0000 0.62720  0.77670  0.28370  Biso   1.000  O
  C1       1.0000 0.06060  0.14110  0.17950  Biso   1.000  C
  C2       1.0000 0.04640  0.05620  0.21980  Biso   1.000  C
  H1       1.0000 0.04660  0.98580  0.19080  Biso   1.000  H
  C3       1.0000 0.03180  0.07570  0.30430  Biso   1.000  C
  C4       1.0000 0.02840  0.17750  0.34710  Biso   1.000  C
  C5       1.0000 0.03650  0.26360  0.30440  Biso   1.000  C
  H2       1.0000 0.02930  0.33270  0.33220  Biso   1.000  H
  C6       1.0000 0.05530  0.24750  0.21940  Biso   1.000  C
  H3       1.0000 0.06380  0.30490  0.19140  Biso   1.000  H
  C7       1.0000 0.01660  0.97500  0.34090  Biso   1.000  C
  C8       1.0000 0.01330  0.20170  0.43840  Biso   1.000  C
  C9       1.0000 0.02620  0.16210  0.02860  Biso   1.000  C
  C10      1.0000 0.89730  0.16680  0.00810  Biso   1.000  C
  H4       1.0000 0.85220  0.14980  0.04640  Biso   1.000  H
  C11      1.0000 0.83540  0.19720  0.93010  Biso   1.000  C
  C12      1.0000 0.90470  0.22740  0.87440  Biso   1.000  C
  H5       1.0000 0.86410  0.24710  0.82180  Biso   1.000  H
  C13      1.0000 0.03480  0.22730  0.89920  Biso   1.000  C
  C14      1.0000 0.09580  0.19410  0.97730  Biso   1.000  C
  H6       1.0000 0.18320  0.19410  0.99350  Biso   1.000  H
  C15      1.0000 0.69540  0.20540  0.90860  Biso   1.000  C
  C16      1.0000 0.11270  0.26390  0.84290  Biso   1.000  C
  C17      1.0000 0.60830  0.64000  0.69060  Biso   1.000  C
  C18      1.0000 0.57450  0.55360  0.72460  Biso   1.000  C
  H7       1.0000 0.56420  0.48300  0.69210  Biso   1.000  H
  C19      1.0000 0.55580  0.57240  0.80790  Biso   1.000  C
  C20      1.0000 0.56980  0.67950  0.85660  Biso   1.000  C
  C21      1.0000 0.60370  0.76450  0.81970  Biso   1.000  C
  H8       1.0000 0.61580  0.83520  0.85230  Biso   1.000  H
  C22      1.0000 0.62050  0.74840  0.73570  Biso   1.000  C
  H9       1.0000 0.63880  0.80640  0.71050  Biso   1.000  H
  C23      1.0000 0.52430  0.47240  0.83970  Biso   1.000  C
  C24      1.0000 0.56030  0.70040  0.94720  Biso   1.000  C
  C25      1.0000 0.57990  0.66090  0.54090  Biso   1.000  C
  C26      1.0000 0.45760  0.68490  0.52330  Biso   1.000  C
  H10      1.0000 0.41190  0.67730  0.56330  Biso   1.000  H
  C27      1.0000 0.40250  0.72010  0.44650  Biso   1.000  C
  C28      1.0000 0.47230  0.73630  0.38880  Biso   1.000  C
  H11      1.0000 0.43590  0.76090  0.33780  Biso   1.000  H
  C29      1.0000 0.59630  0.71600  0.40720  Biso   1.000  C
  C30      1.0000 0.65070  0.67640  0.48220  Biso   1.000  C
  H12      1.0000 0.73300  0.66030  0.49330  Biso   1.000  H
  C31      1.0000 0.26810  0.74190  0.42780  Biso   1.000  C
  C32      1.0000 0.67560  0.73800  0.34750  Biso   1.000  C
  K1       1.0000 0.23160  0.00900  0.55780  Biso   1.000  K
  K2       1.0000 0.71770  0.47800  0.05510  Biso   1.000  K
  O19      1.0000 0.44400  0.99800  0.49600  Biso   1.000  O
  Eu3      1.0000 0.99817  0.24126  0.61749  Biso   1.000  Eu
  Eu4      1.0000 0.55792  0.74123  0.12796  Biso   1.000  Eu
  O20      1.0000 0.91110  0.87950  0.89970  Biso   1.000  O
  O21      1.0000 0.09550  0.07550  0.67040  Biso   1.000  O
  O22      1.0000 0.88770  0.06330  0.62380  Biso   1.000  O
  O23      1.0000 0.99310  0.70230  0.52540  Biso   1.000  O
  O24      1.0000 0.98810  0.87670  0.52050  Biso   1.000  O
  O25      1.0000 0.37470  0.81860  0.17050  Biso   1.000  O
  O26      1.0000 0.34690  0.75620  0.02850  Biso   1.000  O
  O27      1.0000 0.76930  0.72320  0.12670  Biso   1.000  O
  O28      1.0000 0.94500  0.71650  0.22990  Biso   1.000  O
  O29      1.0000 0.36430  0.38440  0.39010  Biso   1.000  O
  O30      1.0000 0.59620  0.56240  0.17150  Biso   1.000  O
  O31      1.0000 0.39610  0.58240  0.12990  Biso   1.000  O
  O32      1.0000 0.46390  0.37640  0.01730  Biso   1.000  O
  O33      1.0000 0.42260  0.20140  0.00890  Biso   1.000  O
  O34      1.0000 0.77920  0.22320  0.51230  Biso   1.000  O
  O35      1.0000 0.79780  0.27540  0.65380  Biso   1.000  O
  O36      1.0000 0.21440  0.28800  0.63560  Biso   1.000  O
  O37      1.0000 0.37280  0.22330  0.71630  Biso   1.000  O
  C33      1.0000 0.93940  0.85890  0.82050  Biso   1.000  C
  C34      1.0000 0.95360  0.94380  0.78020  Biso   1.000  C
  H13      1.0000 0.95340  0.01420  0.80920  Biso   1.000  H
  C35      1.0000 0.96820  0.92430  0.69570  Biso   1.000  C
  C36      1.0000 0.97160  0.82250  0.65290  Biso   1.000  C
  C37      1.0000 0.96350  0.73640  0.69560  Biso   1.000  C
  H14      1.0000 0.97070  0.66730  0.66780  Biso   1.000  H
  C38      1.0000 0.94470  0.75250  0.78060  Biso   1.000  C
  H15      1.0000 0.93620  0.69510  0.80860  Biso   1.000  H
  C39      1.0000 0.98340  0.02500  0.65910  Biso   1.000  C
  C40      1.0000 0.98670  0.79830  0.56160  Biso   1.000  C
  C41      1.0000 0.97380  0.83790  0.97140  Biso   1.000  C
  C42      1.0000 0.10270  0.83320  0.99190  Biso   1.000  C
  H16      1.0000 0.14780  0.85020  0.95360  Biso   1.000  H
  C43      1.0000 0.16460  0.80280  0.06990  Biso   1.000  C
  C44      1.0000 0.09530  0.77260  0.12560  Biso   1.000  C
  H17      1.0000 0.13590  0.75290  0.17820  Biso   1.000  H
  C45      1.0000 0.96520  0.77270  0.10080  Biso   1.000  C
  C46      1.0000 0.90420  0.80590  0.02270  Biso   1.000  C
  H18      1.0000 0.81680  0.80590  0.00650  Biso   1.000  H
  C47      1.0000 0.30460  0.79460  0.09140  Biso   1.000  C
  C48      1.0000 0.88730  0.73610  0.15710  Biso   1.000  C
  C49      1.0000 0.39170  0.36000  0.30940  Biso   1.000  C
  C50      1.0000 0.42550  0.44640  0.27540  Biso   1.000  C
  H19      1.0000 0.43580  0.51700  0.30790  Biso   1.000  H
  C51      1.0000 0.44420  0.42760  0.19210  Biso   1.000  C
  C52      1.0000 0.43020  0.32050  0.14340  Biso   1.000  C
  C53      1.0000 0.39630  0.23550  0.18030  Biso   1.000  C
  H20      1.0000 0.38420  0.16480  0.14770  Biso   1.000  H
  C54      1.0000 0.37950  0.25160  0.26430  Biso   1.000  C
  H21      1.0000 0.36120  0.19360  0.28950  Biso   1.000  H
  C55      1.0000 0.47570  0.52760  0.16030  Biso   1.000  C
  C56      1.0000 0.43970  0.29960  0.05280  Biso   1.000  C
  C57      1.0000 0.42010  0.33910  0.45910  Biso   1.000  C
  C58      1.0000 0.54240  0.31510  0.47670  Biso   1.000  C
  H22      1.0000 0.58810  0.32270  0.43670  Biso   1.000  H
  C59      1.0000 0.59750  0.27990  0.55350  Biso   1.000  C
  C60      1.0000 0.52770  0.26370  0.61120  Biso   1.000  C
  H23      1.0000 0.56410  0.23910  0.66220  Biso   1.000  H
  C61      1.0000 0.40370  0.28400  0.59280  Biso   1.000  C
  C62      1.0000 0.34930  0.32360  0.51780  Biso   1.000  C
  H24      1.0000 0.26700  0.33970  0.50670  Biso   1.000  H
  C63      1.0000 0.73190  0.25810  0.57220  Biso   1.000  C
  C64      1.0000 0.32440  0.26200  0.65250  Biso   1.000  C
  K3       1.0000 0.76840  0.99100  0.44220  Biso   1.000  K
  K4       1.0000 0.28230  0.52200  0.94490  Biso   1.000  K
  O38      1.0000 0.55600  0.00200  0.50400  Biso   1.000  O
