data_image0
_cell_length_a       23.0599
_cell_length_b       11.005
_cell_length_c       20.9497
_cell_angle_alpha    90
_cell_angle_beta     106.369
_cell_angle_gamma    90

_symmetry_space_group_name_H-M    "P 1"
_symmetry_int_tables_number       1

loop_
  _symmetry_equiv_pos_as_xyz
  'x, y, z'

loop_
  _atom_site_label
  _atom_site_occupancy
  _atom_site_fract_x
  _atom_site_fract_y
  _atom_site_fract_z
  _atom_site_thermal_displace_type
  _atom_site_B_iso_or_equiv
  _atom_site_type_symbol
  Eu1      1.0000 0.64038  0.82025  0.85820  Biso   1.000  Eu
  O1       1.0000 0.81540  0.39140  0.97030  Biso   1.000  O
  O2       1.0000 0.90730  0.23190  0.75790  Biso   1.000  O
  O3       1.0000 0.88030  0.42150  0.75230  Biso   1.000  O
  O4       1.0000 0.07600  0.32330  0.93380  Biso   1.000  O
  O5       1.0000 0.02590  0.30930  0.82800  Biso   1.000  O
  O6       1.0000 0.61610  0.03560  0.86830  Biso   1.000  O
  O7       1.0000 0.71160  0.99160  0.87740  Biso   1.000  O
  O8       1.0000 0.56880  0.47810  0.79230  Biso   1.000  O
  O9       1.0000 0.61970  0.61180  0.86710  Biso   1.000  O
  O10      1.0000 0.70910  0.77360  0.96060  Biso   1.000  O
  C1       1.0000 0.86480  0.36770  0.94740  Biso   1.000  C
  C2       1.0000 0.85940  0.35550  0.88080  Biso   1.000  C
  H1       1.0000 0.82070  0.35760  0.84920  Biso   1.000  H
  C3       1.0000 0.91210  0.33960  0.85970  Biso   1.000  C
  C4       1.0000 0.96890  0.33420  0.90590  Biso   1.000  C
  C5       1.0000 0.97080  0.35410  0.97360  Biso   1.000  C
  H2       1.0000 0.00930  0.35720  0.00560  Biso   1.000  H
  C6       1.0000 0.92060  0.36910  0.99540  Biso   1.000  C
  H3       1.0000 0.92360  0.37990  0.04120  Biso   1.000  H
  C7       1.0000 0.90030  0.33200  0.78530  Biso   1.000  C
  C8       1.0000 0.02660  0.32080  0.88930  Biso   1.000  C
  C9       1.0000 0.75840  0.35570  0.93020  Biso   1.000  C
  C10      1.0000 0.74500  0.23570  0.91940  Biso   1.000  C
  H4       1.0000 0.77580  0.17650  0.93450  Biso   1.000  H
  C11      1.0000 0.68620  0.19920  0.88640  Biso   1.000  C
  C12      1.0000 0.64280  0.28720  0.86220  Biso   1.000  C
  H5       1.0000 0.60250  0.26440  0.83950  Biso   1.000  H
  C13      1.0000 0.65870  0.41090  0.87150  Biso   1.000  C
  C14      1.0000 0.71600  0.44500  0.90770  Biso   1.000  C
  H6       1.0000 0.72590  0.52820  0.91690  Biso   1.000  H
  C15      1.0000 0.67070  0.07010  0.87830  Biso   1.000  C
  C16      1.0000 0.61240  0.50790  0.84230  Biso   1.000  C
  C17      1.0000 0.76670  0.77630  0.98160  Biso   1.000  C
  H7       1.0000 0.79120  0.81310  0.95670  Biso   1.000  H
  Eu2      1.0000 0.14038  0.32025  0.85820  Biso   1.000  Eu
  O11      1.0000 0.31540  0.89140  0.97030  Biso   1.000  O
  O12      1.0000 0.40730  0.73190  0.75790  Biso   1.000  O
  O13      1.0000 0.38030  0.92150  0.75230  Biso   1.000  O
  O14      1.0000 0.57600  0.82330  0.93380  Biso   1.000  O
  O15      1.0000 0.52590  0.80930  0.82800  Biso   1.000  O
  O16      1.0000 0.11610  0.53560  0.86830  Biso   1.000  O
  O17      1.0000 0.21160  0.49160  0.87740  Biso   1.000  O
  O18      1.0000 0.06880  0.97810  0.79230  Biso   1.000  O
  O19      1.0000 0.11970  0.11180  0.86710  Biso   1.000  O
  O20      1.0000 0.20910  0.27360  0.96060  Biso   1.000  O
  C18      1.0000 0.36480  0.86770  0.94740  Biso   1.000  C
  C19      1.0000 0.35940  0.85550  0.88080  Biso   1.000  C
  H8       1.0000 0.32070  0.85760  0.84920  Biso   1.000  H
  C20      1.0000 0.41210  0.83960  0.85970  Biso   1.000  C
  C21      1.0000 0.46890  0.83420  0.90590  Biso   1.000  C
  C22      1.0000 0.47080  0.85410  0.97360  Biso   1.000  C
  H9       1.0000 0.50930  0.85720  0.00560  Biso   1.000  H
  C23      1.0000 0.42060  0.86910  0.99540  Biso   1.000  C
  H10      1.0000 0.42360  0.87990  0.04120  Biso   1.000  H
  C24      1.0000 0.40030  0.83200  0.78530  Biso   1.000  C
  C25      1.0000 0.52660  0.82080  0.88930  Biso   1.000  C
  C26      1.0000 0.25840  0.85570  0.93020  Biso   1.000  C
  C27      1.0000 0.24500  0.73570  0.91940  Biso   1.000  C
  H11      1.0000 0.27580  0.67650  0.93450  Biso   1.000  H
  C28      1.0000 0.18620  0.69920  0.88640  Biso   1.000  C
  C29      1.0000 0.14280  0.78720  0.86220  Biso   1.000  C
  H12      1.0000 0.10250  0.76440  0.83950  Biso   1.000  H
  C30      1.0000 0.15870  0.91090  0.87150  Biso   1.000  C
  C31      1.0000 0.21600  0.94500  0.90770  Biso   1.000  C
  H13      1.0000 0.22590  0.02820  0.91690  Biso   1.000  H
  C32      1.0000 0.17070  0.57010  0.87830  Biso   1.000  C
  C33      1.0000 0.11240  0.00790  0.84230  Biso   1.000  C
  C34      1.0000 0.26670  0.27630  0.98160  Biso   1.000  C
  H14      1.0000 0.29120  0.31310  0.95670  Biso   1.000  H
  Eu3      1.0000 0.35962  0.82025  0.64180  Biso   1.000  Eu
  O21      1.0000 0.18460  0.39140  0.52970  Biso   1.000  O
  O22      1.0000 0.09270  0.23190  0.74210  Biso   1.000  O
  O23      1.0000 0.11970  0.42150  0.74770  Biso   1.000  O
  O24      1.0000 0.92400  0.32330  0.56620  Biso   1.000  O
  O25      1.0000 0.97410  0.30930  0.67200  Biso   1.000  O
  O26      1.0000 0.38390  0.03560  0.63170  Biso   1.000  O
  O27      1.0000 0.28840  0.99160  0.62260  Biso   1.000  O
  O28      1.0000 0.43120  0.47810  0.70770  Biso   1.000  O
  O29      1.0000 0.38030  0.61180  0.63290  Biso   1.000  O
  O30      1.0000 0.29090  0.77360  0.53940  Biso   1.000  O
  C35      1.0000 0.13520  0.36770  0.55260  Biso   1.000  C
  C36      1.0000 0.14060  0.35550  0.61920  Biso   1.000  C
  H15      1.0000 0.17930  0.35760  0.65080  Biso   1.000  H
  C37      1.0000 0.08790  0.33960  0.64030  Biso   1.000  C
  C38      1.0000 0.03110  0.33420  0.59410  Biso   1.000  C
  C39      1.0000 0.02920  0.35410  0.52640  Biso   1.000  C
  H16      1.0000 0.99070  0.35720  0.49440  Biso   1.000  H
  C40      1.0000 0.07940  0.36910  0.50460  Biso   1.000  C
  H17      1.0000 0.07640  0.37990  0.45880  Biso   1.000  H
  C41      1.0000 0.09970  0.33200  0.71470  Biso   1.000  C
  C42      1.0000 0.97340  0.32080  0.61070  Biso   1.000  C
  C43      1.0000 0.24160  0.35570  0.56980  Biso   1.000  C
  C44      1.0000 0.25500  0.23570  0.58060  Biso   1.000  C
  H18      1.0000 0.22420  0.17650  0.56550  Biso   1.000  H
  C45      1.0000 0.31380  0.19920  0.61360  Biso   1.000  C
  C46      1.0000 0.35720  0.28720  0.63780  Biso   1.000  C
  H19      1.0000 0.39750  0.26440  0.66050  Biso   1.000  H
  C47      1.0000 0.34130  0.41090  0.62850  Biso   1.000  C
  C48      1.0000 0.28400  0.44500  0.59230  Biso   1.000  C
  H20      1.0000 0.27410  0.52820  0.58310  Biso   1.000  H
  C49      1.0000 0.32930  0.07010  0.62170  Biso   1.000  C
  C50      1.0000 0.38760  0.50790  0.65770  Biso   1.000  C
  C51      1.0000 0.23330  0.77630  0.51840  Biso   1.000  C
  H21      1.0000 0.20880  0.81310  0.54330  Biso   1.000  H
  Eu4      1.0000 0.85962  0.32025  0.64180  Biso   1.000  Eu
  O31      1.0000 0.68460  0.89140  0.52970  Biso   1.000  O
  O32      1.0000 0.59270  0.73190  0.74210  Biso   1.000  O
  O33      1.0000 0.61970  0.92150  0.74770  Biso   1.000  O
  O34      1.0000 0.42400  0.82330  0.56620  Biso   1.000  O
  O35      1.0000 0.47410  0.80930  0.67200  Biso   1.000  O
  O36      1.0000 0.88390  0.53560  0.63170  Biso   1.000  O
  O37      1.0000 0.78840  0.49160  0.62260  Biso   1.000  O
  O38      1.0000 0.93120  0.97810  0.70770  Biso   1.000  O
  O39      1.0000 0.88030  0.11180  0.63290  Biso   1.000  O
  O40      1.0000 0.79090  0.27360  0.53940  Biso   1.000  O
  C52      1.0000 0.63520  0.86770  0.55260  Biso   1.000  C
  C53      1.0000 0.64060  0.85550  0.61920  Biso   1.000  C
  H22      1.0000 0.67930  0.85760  0.65080  Biso   1.000  H
  C54      1.0000 0.58790  0.83960  0.64030  Biso   1.000  C
  C55      1.0000 0.53110  0.83420  0.59410  Biso   1.000  C
  C56      1.0000 0.52920  0.85410  0.52640  Biso   1.000  C
  H23      1.0000 0.49070  0.85720  0.49440  Biso   1.000  H
  C57      1.0000 0.57940  0.86910  0.50460  Biso   1.000  C
  H24      1.0000 0.57640  0.87990  0.45880  Biso   1.000  H
  C58      1.0000 0.59970  0.83200  0.71470  Biso   1.000  C
  C59      1.0000 0.47340  0.82080  0.61070  Biso   1.000  C
  C60      1.0000 0.74160  0.85570  0.56980  Biso   1.000  C
  C61      1.0000 0.75500  0.73570  0.58060  Biso   1.000  C
  H25      1.0000 0.72420  0.67650  0.56550  Biso   1.000  H
  C62      1.0000 0.81380  0.69920  0.61360  Biso   1.000  C
  C63      1.0000 0.85720  0.78720  0.63780  Biso   1.000  C
  H26      1.0000 0.89750  0.76440  0.66050  Biso   1.000  H
  C64      1.0000 0.84130  0.91090  0.62850  Biso   1.000  C
  C65      1.0000 0.78400  0.94500  0.59230  Biso   1.000  C
  H27      1.0000 0.77410  0.02820  0.58310  Biso   1.000  H
  C66      1.0000 0.82930  0.57010  0.62170  Biso   1.000  C
  C67      1.0000 0.88760  0.00790  0.65770  Biso   1.000  C
  C68      1.0000 0.73330  0.27630  0.51840  Biso   1.000  C
  H28      1.0000 0.70880  0.31310  0.54330  Biso   1.000  H
  Eu5      1.0000 0.35962  0.17975  0.14180  Biso   1.000  Eu
  O41      1.0000 0.18460  0.60860  0.02970  Biso   1.000  O
  O42      1.0000 0.09270  0.76810  0.24210  Biso   1.000  O
  O43      1.0000 0.11970  0.57850  0.24770  Biso   1.000  O
  O44      1.0000 0.92400  0.67670  0.06620  Biso   1.000  O
  O45      1.0000 0.97410  0.69070  0.17200  Biso   1.000  O
  O46      1.0000 0.38390  0.96440  0.13170  Biso   1.000  O
  O47      1.0000 0.28840  0.00840  0.12260  Biso   1.000  O
  O48      1.0000 0.43120  0.52190  0.20770  Biso   1.000  O
  O49      1.0000 0.38030  0.38820  0.13290  Biso   1.000  O
  O50      1.0000 0.29090  0.22640  0.03940  Biso   1.000  O
  C69      1.0000 0.13520  0.63230  0.05260  Biso   1.000  C
  C70      1.0000 0.14060  0.64450  0.11920  Biso   1.000  C
  H29      1.0000 0.17930  0.64240  0.15080  Biso   1.000  H
  C71      1.0000 0.08790  0.66040  0.14030  Biso   1.000  C
  C72      1.0000 0.03110  0.66580  0.09410  Biso   1.000  C
  C73      1.0000 0.02920  0.64590  0.02640  Biso   1.000  C
  H30      1.0000 0.99070  0.64280  0.99440  Biso   1.000  H
  C74      1.0000 0.07940  0.63090  0.00460  Biso   1.000  C
  H31      1.0000 0.07640  0.62010  0.95880  Biso   1.000  H
  C75      1.0000 0.09970  0.66800  0.21470  Biso   1.000  C
  C76      1.0000 0.97340  0.67920  0.11070  Biso   1.000  C
  C77      1.0000 0.24160  0.64430  0.06980  Biso   1.000  C
  C78      1.0000 0.25500  0.76430  0.08060  Biso   1.000  C
  H32      1.0000 0.22420  0.82350  0.06550  Biso   1.000  H
  C79      1.0000 0.31380  0.80080  0.11360  Biso   1.000  C
  C80      1.0000 0.35720  0.71280  0.13780  Biso   1.000  C
  H33      1.0000 0.39750  0.73560  0.16050  Biso   1.000  H
  C81      1.0000 0.34130  0.58910  0.12850  Biso   1.000  C
  C82      1.0000 0.28400  0.55500  0.09230  Biso   1.000  C
  H34      1.0000 0.27410  0.47180  0.08310  Biso   1.000  H
  C83      1.0000 0.32930  0.92990  0.12170  Biso   1.000  C
  C84      1.0000 0.38760  0.49210  0.15770  Biso   1.000  C
  C85      1.0000 0.23330  0.22370  0.01840  Biso   1.000  C
  H35      1.0000 0.20880  0.18690  0.04330  Biso   1.000  H
  Eu6      1.0000 0.85962  0.67975  0.14180  Biso   1.000  Eu
  O51      1.0000 0.68460  0.10860  0.02970  Biso   1.000  O
  O52      1.0000 0.59270  0.26810  0.24210  Biso   1.000  O
  O53      1.0000 0.61970  0.07850  0.24770  Biso   1.000  O
  O54      1.0000 0.42400  0.17670  0.06620  Biso   1.000  O
  O55      1.0000 0.47410  0.19070  0.17200  Biso   1.000  O
  O56      1.0000 0.88390  0.46440  0.13170  Biso   1.000  O
  O57      1.0000 0.78840  0.50840  0.12260  Biso   1.000  O
  O58      1.0000 0.93120  0.02190  0.20770  Biso   1.000  O
  O59      1.0000 0.88030  0.88820  0.13290  Biso   1.000  O
  O60      1.0000 0.79090  0.72640  0.03940  Biso   1.000  O
  C86      1.0000 0.63520  0.13230  0.05260  Biso   1.000  C
  C87      1.0000 0.64060  0.14450  0.11920  Biso   1.000  C
  H36      1.0000 0.67930  0.14240  0.15080  Biso   1.000  H
  C88      1.0000 0.58790  0.16040  0.14030  Biso   1.000  C
  C89      1.0000 0.53110  0.16580  0.09410  Biso   1.000  C
  C90      1.0000 0.52920  0.14590  0.02640  Biso   1.000  C
  H37      1.0000 0.49070  0.14280  0.99440  Biso   1.000  H
  C91      1.0000 0.57940  0.13090  0.00460  Biso   1.000  C
  H38      1.0000 0.57640  0.12010  0.95880  Biso   1.000  H
  C92      1.0000 0.59970  0.16800  0.21470  Biso   1.000  C
  C93      1.0000 0.47340  0.17920  0.11070  Biso   1.000  C
  C94      1.0000 0.74160  0.14430  0.06980  Biso   1.000  C
  C95      1.0000 0.75500  0.26430  0.08060  Biso   1.000  C
  H39      1.0000 0.72420  0.32350  0.06550  Biso   1.000  H
  C96      1.0000 0.81380  0.30080  0.11360  Biso   1.000  C
  C97      1.0000 0.85720  0.21280  0.13780  Biso   1.000  C
  H40      1.0000 0.89750  0.23560  0.16050  Biso   1.000  H
  C98      1.0000 0.84130  0.08910  0.12850  Biso   1.000  C
  C99      1.0000 0.78400  0.05500  0.09230  Biso   1.000  C
  H41      1.0000 0.77410  0.97180  0.08310  Biso   1.000  H
  C100     1.0000 0.82930  0.42990  0.12170  Biso   1.000  C
  C101     1.0000 0.88760  0.99210  0.15770  Biso   1.000  C
  C102     1.0000 0.73330  0.72370  0.01840  Biso   1.000  C
  H42      1.0000 0.70880  0.68690  0.04330  Biso   1.000  H
  Eu7      1.0000 0.64038  0.17975  0.35820  Biso   1.000  Eu
  O61      1.0000 0.81540  0.60860  0.47030  Biso   1.000  O
  O62      1.0000 0.90730  0.76810  0.25790  Biso   1.000  O
  O63      1.0000 0.88030  0.57850  0.25230  Biso   1.000  O
  O64      1.0000 0.07600  0.67670  0.43380  Biso   1.000  O
  O65      1.0000 0.02590  0.69070  0.32800  Biso   1.000  O
  O66      1.0000 0.61610  0.96440  0.36830  Biso   1.000  O
  O67      1.0000 0.71160  0.00840  0.37740  Biso   1.000  O
  O68      1.0000 0.56880  0.52190  0.29230  Biso   1.000  O
  O69      1.0000 0.61970  0.38820  0.36710  Biso   1.000  O
  O70      1.0000 0.70910  0.22640  0.46060  Biso   1.000  O
  C103     1.0000 0.86480  0.63230  0.44740  Biso   1.000  C
  C104     1.0000 0.85940  0.64450  0.38080  Biso   1.000  C
  H43      1.0000 0.82070  0.64240  0.34920  Biso   1.000  H
  C105     1.0000 0.91210  0.66040  0.35970  Biso   1.000  C
  C106     1.0000 0.96890  0.66580  0.40590  Biso   1.000  C
  C107     1.0000 0.97080  0.64590  0.47360  Biso   1.000  C
  H44      1.0000 0.00930  0.64280  0.50560  Biso   1.000  H
  C108     1.0000 0.92060  0.63090  0.49540  Biso   1.000  C
  H45      1.0000 0.92360  0.62010  0.54120  Biso   1.000  H
  C109     1.0000 0.90030  0.66800  0.28530  Biso   1.000  C
  C110     1.0000 0.02660  0.67920  0.38930  Biso   1.000  C
  C111     1.0000 0.75840  0.64430  0.43020  Biso   1.000  C
  C112     1.0000 0.74500  0.76430  0.41940  Biso   1.000  C
  H46      1.0000 0.77580  0.82350  0.43450  Biso   1.000  H
  C113     1.0000 0.68620  0.80080  0.38640  Biso   1.000  C
  C114     1.0000 0.64280  0.71280  0.36220  Biso   1.000  C
  H47      1.0000 0.60250  0.73560  0.33950  Biso   1.000  H
  C115     1.0000 0.65870  0.58910  0.37150  Biso   1.000  C
  C116     1.0000 0.71600  0.55500  0.40770  Biso   1.000  C
  H48      1.0000 0.72590  0.47180  0.41690  Biso   1.000  H
  C117     1.0000 0.67070  0.92990  0.37830  Biso   1.000  C
  C118     1.0000 0.61240  0.49210  0.34230  Biso   1.000  C
  C119     1.0000 0.76670  0.22370  0.48160  Biso   1.000  C
  H49      1.0000 0.79120  0.18690  0.45670  Biso   1.000  H
  Eu8      1.0000 0.14038  0.67975  0.35820  Biso   1.000  Eu
  O71      1.0000 0.31540  0.10860  0.47030  Biso   1.000  O
  O72      1.0000 0.40730  0.26810  0.25790  Biso   1.000  O
  O73      1.0000 0.38030  0.07850  0.25230  Biso   1.000  O
  O74      1.0000 0.57600  0.17670  0.43380  Biso   1.000  O
  O75      1.0000 0.52590  0.19070  0.32800  Biso   1.000  O
  O76      1.0000 0.11610  0.46440  0.36830  Biso   1.000  O
  O77      1.0000 0.21160  0.50840  0.37740  Biso   1.000  O
  O78      1.0000 0.06880  0.02190  0.29230  Biso   1.000  O
  O79      1.0000 0.11970  0.88820  0.36710  Biso   1.000  O
  O80      1.0000 0.20910  0.72640  0.46060  Biso   1.000  O
  C120     1.0000 0.36480  0.13230  0.44740  Biso   1.000  C
  C121     1.0000 0.35940  0.14450  0.38080  Biso   1.000  C
  H50      1.0000 0.32070  0.14240  0.34920  Biso   1.000  H
  C122     1.0000 0.41210  0.16040  0.35970  Biso   1.000  C
  C123     1.0000 0.46890  0.16580  0.40590  Biso   1.000  C
  C124     1.0000 0.47080  0.14590  0.47360  Biso   1.000  C
  H51      1.0000 0.50930  0.14280  0.50560  Biso   1.000  H
  C125     1.0000 0.42060  0.13090  0.49540  Biso   1.000  C
  H52      1.0000 0.42360  0.12010  0.54120  Biso   1.000  H
  C126     1.0000 0.40030  0.16800  0.28530  Biso   1.000  C
  C127     1.0000 0.52660  0.17920  0.38930  Biso   1.000  C
  C128     1.0000 0.25840  0.14430  0.43020  Biso   1.000  C
  C129     1.0000 0.24500  0.26430  0.41940  Biso   1.000  C
  H53      1.0000 0.27580  0.32350  0.43450  Biso   1.000  H
  C130     1.0000 0.18620  0.30080  0.38640  Biso   1.000  C
  C131     1.0000 0.14280  0.21280  0.36220  Biso   1.000  C
  H54      1.0000 0.10250  0.23560  0.33950  Biso   1.000  H
  C132     1.0000 0.15870  0.08910  0.37150  Biso   1.000  C
  C133     1.0000 0.21600  0.05500  0.40770  Biso   1.000  C
  H55      1.0000 0.22590  0.97180  0.41690  Biso   1.000  H
  C134     1.0000 0.17070  0.42990  0.37830  Biso   1.000  C
  C135     1.0000 0.11240  0.99210  0.34230  Biso   1.000  C
  C136     1.0000 0.26670  0.72370  0.48160  Biso   1.000  C
  H56      1.0000 0.29120  0.68690  0.45670  Biso   1.000  H
  Eu9      1.0000 0.50000  0.63879  0.75000  Biso   1.000  Eu
  Eu10     1.0000 0.00000  0.13879  0.75000  Biso   1.000  Eu
  Eu11     1.0000 0.50000  0.36121  0.25000  Biso   1.000  Eu
  Eu12     1.0000 0.00000  0.86121  0.25000  Biso   1.000  Eu
