data_image0
_cell_length_a       11.0252
_cell_length_b       12.6045
_cell_length_c       16.008
_cell_angle_alpha    100.237
_cell_angle_beta     106.07
_cell_angle_gamma    95.725

_symmetry_space_group_name_H-M    "P 1"
_symmetry_int_tables_number       1

loop_
  _symmetry_equiv_pos_as_xyz
  'x, y, z'

loop_
  _atom_site_label
  _atom_site_occupancy
  _atom_site_fract_x
  _atom_site_fract_y
  _atom_site_fract_z
  _atom_site_thermal_displace_type
  _atom_site_B_iso_or_equiv
  _atom_site_type_symbol
  Tb1      1.0000 0.05916  0.24040  0.62800  Biso   1.000  Tb
  Tb2      1.0000 0.50248  0.25910  0.88275  Biso   1.000  Tb
  O1       1.0000 0.41200  0.38030  0.40000  Biso   1.000  O
  O2       1.0000 0.59650  0.57660  0.17040  Biso   1.000  O
  O3       1.0000 0.38690  0.56430  0.12300  Biso   1.000  O
  O4       1.0000 0.49300  0.20280  0.02380  Biso   1.000  O
  O5       1.0000 0.48690  0.37560  0.01880  Biso   1.000  O
  O6       1.0000 0.87810  0.32070  0.67070  Biso   1.000  O
  O7       1.0000 0.84890  0.25560  0.52920  Biso   1.000  O
  O8       1.0000 0.26900  0.22380  0.62780  Biso   1.000  O
  O9       1.0000 0.44700  0.21730  0.73090  Biso   1.000  O
  O10      1.0000 0.13780  0.11550  0.11090  Biso   1.000  O
  O11      1.0000 0.10590  0.91660  0.37070  Biso   1.000  O
  O12      1.0000 0.90390  0.93800  0.32920  Biso   1.000  O
  O13      1.0000 0.03800  0.12250  0.48460  Biso   1.000  O
  O14      1.0000 0.07880  0.29940  0.49190  Biso   1.000  O
  O15      1.0000 0.12700  0.27570  0.78130  Biso   1.000  O
  O16      1.0000 0.28780  0.21110  0.86530  Biso   1.000  O
  O17      1.0000 0.70070  0.22430  0.84520  Biso   1.000  O
  O18      1.0000 0.72190  0.27750  0.98720  Biso   1.000  O
  C1       1.0000 0.44070  0.35670  0.32030  Biso   1.000  C
  C2       1.0000 0.45320  0.44310  0.28020  Biso   1.000  C
  H1       1.0000 0.45070  0.51330  0.30930  Biso   1.000  H
  C3       1.0000 0.46980  0.42560  0.19530  Biso   1.000  C
  C4       1.0000 0.47380  0.32090  0.15240  Biso   1.000  C
  C5       1.0000 0.46190  0.23510  0.19540  Biso   1.000  C
  H2       1.0000 0.46460  0.16470  0.16700  Biso   1.000  H
  C6       1.0000 0.44630  0.25180  0.27870  Biso   1.000  C
  H3       1.0000 0.43960  0.19380  0.30670  Biso   1.000  H
  C7       1.0000 0.48670  0.52690  0.15930  Biso   1.000  C
  C8       1.0000 0.48600  0.29770  0.06020  Biso   1.000  C
  C9       1.0000 0.47660  0.33810  0.47150  Biso   1.000  C
  C10      1.0000 0.60480  0.33280  0.49180  Biso   1.000  C
  H4       1.0000 0.65050  0.34980  0.45370  Biso   1.000  H
  C11      1.0000 0.66580  0.30160  0.57030  Biso   1.000  C
  C12      1.0000 0.59640  0.27340  0.62560  Biso   1.000  C
  H5       1.0000 0.63760  0.25470  0.67880  Biso   1.000  H
  C13      1.0000 0.46540  0.27320  0.60120  Biso   1.000  C
  C14      1.0000 0.40490  0.30670  0.52390  Biso   1.000  C
  H6       1.0000 0.31730  0.30800  0.50780  Biso   1.000  H
  C15      1.0000 0.80620  0.29320  0.59170  Biso   1.000  C
  C16      1.0000 0.38710  0.23610  0.65760  Biso   1.000  C
  C17      1.0000 0.10820  0.14130  0.18990  Biso   1.000  C
  C18      1.0000 0.07540  0.05410  0.22470  Biso   1.000  C
  H7       1.0000 0.06530  0.98310  0.19240  Biso   1.000  H
  C19      1.0000 0.05740  0.07290  0.30920  Biso   1.000  C
  C20      1.0000 0.07180  0.17900  0.35690  Biso   1.000  C
  C21      1.0000 0.10320  0.26590  0.31880  Biso   1.000  C
  H8       1.0000 0.11210  0.33720  0.35020  Biso   1.000  H
  C22      1.0000 0.12110  0.24750  0.23560  Biso   1.000  C
  H9       1.0000 0.14150  0.30570  0.21090  Biso   1.000  H
  C23      1.0000 0.02060  0.97080  0.34030  Biso   1.000  C
  C24      1.0000 0.06100  0.20330  0.44950  Biso   1.000  C
  C25      1.0000 0.08120  0.16180  0.04010  Biso   1.000  C
  C26      1.0000 0.15220  0.17620  0.98340  Biso   1.000  C
  H10      1.0000 0.23520  0.16050  0.99580  Biso   1.000  H
  C27      1.0000 0.09780  0.21480  0.90650  Biso   1.000  C
  C28      1.0000 0.97270  0.23570  0.88770  Biso   1.000  C
  H11      1.0000 0.93530  0.25880  0.83590  Biso   1.000  H
  C29      1.0000 0.90370  0.22190  0.94660  Biso   1.000  C
  C30      1.0000 0.95810  0.18530  0.02400  Biso   1.000  C
  H12      1.0000 0.91230  0.17680  0.06390  Biso   1.000  H
  C31      1.0000 0.17700  0.23450  0.84620  Biso   1.000  C
  C32      1.0000 0.76790  0.24310  0.92530  Biso   1.000  C
  K1       1.0000 0.73197  0.50936  0.05690  Biso   1.000  K
  K2       1.0000 0.78170  0.02368  0.44521  Biso   1.000  K
  O19      1.0000 0.94200  0.50800  0.00000  Biso   1.000  O
  Tb3      1.0000 0.94084  0.75960  0.37200  Biso   1.000  Tb
  Tb4      1.0000 0.49752  0.74090  0.11725  Biso   1.000  Tb
  O20      1.0000 0.58800  0.61970  0.60000  Biso   1.000  O
  O21      1.0000 0.40350  0.42340  0.82960  Biso   1.000  O
  O22      1.0000 0.61310  0.43570  0.87700  Biso   1.000  O
  O23      1.0000 0.50700  0.79720  0.97620  Biso   1.000  O
  O24      1.0000 0.51310  0.62440  0.98120  Biso   1.000  O
  O25      1.0000 0.12190  0.67930  0.32930  Biso   1.000  O
  O26      1.0000 0.15110  0.74440  0.47080  Biso   1.000  O
  O27      1.0000 0.73100  0.77620  0.37220  Biso   1.000  O
  O28      1.0000 0.55300  0.78270  0.26910  Biso   1.000  O
  O29      1.0000 0.86220  0.88450  0.88910  Biso   1.000  O
  O30      1.0000 0.89410  0.08340  0.62930  Biso   1.000  O
  O31      1.0000 0.09610  0.06200  0.67080  Biso   1.000  O
  O32      1.0000 0.96200  0.87750  0.51540  Biso   1.000  O
  O33      1.0000 0.92120  0.70060  0.50810  Biso   1.000  O
  O34      1.0000 0.87300  0.72430  0.21870  Biso   1.000  O
  O35      1.0000 0.71220  0.78890  0.13470  Biso   1.000  O
  O36      1.0000 0.29930  0.77570  0.15480  Biso   1.000  O
  O37      1.0000 0.27810  0.72250  0.01280  Biso   1.000  O
  C33      1.0000 0.55930  0.64330  0.67970  Biso   1.000  C
  C34      1.0000 0.54680  0.55690  0.71980  Biso   1.000  C
  H13      1.0000 0.54930  0.48670  0.69070  Biso   1.000  H
  C35      1.0000 0.53020  0.57440  0.80470  Biso   1.000  C
  C36      1.0000 0.52620  0.67910  0.84760  Biso   1.000  C
  C37      1.0000 0.53810  0.76490  0.80460  Biso   1.000  C
  H14      1.0000 0.53540  0.83530  0.83300  Biso   1.000  H
  C38      1.0000 0.55370  0.74820  0.72130  Biso   1.000  C
  H15      1.0000 0.56040  0.80620  0.69330  Biso   1.000  H
  C39      1.0000 0.51330  0.47310  0.84070  Biso   1.000  C
  C40      1.0000 0.51400  0.70230  0.93980  Biso   1.000  C
  C41      1.0000 0.52340  0.66190  0.52850  Biso   1.000  C
  C42      1.0000 0.39520  0.66720  0.50820  Biso   1.000  C
  H16      1.0000 0.34950  0.65020  0.54630  Biso   1.000  H
  C43      1.0000 0.33420  0.69840  0.42970  Biso   1.000  C
  C44      1.0000 0.40360  0.72660  0.37440  Biso   1.000  C
  H17      1.0000 0.36240  0.74530  0.32120  Biso   1.000  H
  C45      1.0000 0.53460  0.72680  0.39880  Biso   1.000  C
  C46      1.0000 0.59510  0.69330  0.47610  Biso   1.000  C
  H18      1.0000 0.68270  0.69200  0.49220  Biso   1.000  H
  C47      1.0000 0.19380  0.70680  0.40830  Biso   1.000  C
  C48      1.0000 0.61290  0.76390  0.34240  Biso   1.000  C
  C49      1.0000 0.89180  0.85870  0.81010  Biso   1.000  C
  C50      1.0000 0.92460  0.94590  0.77530  Biso   1.000  C
  H19      1.0000 0.93470  0.01690  0.80760  Biso   1.000  H
  C51      1.0000 0.94260  0.92710  0.69080  Biso   1.000  C
  C52      1.0000 0.92820  0.82100  0.64310  Biso   1.000  C
  C53      1.0000 0.89680  0.73410  0.68120  Biso   1.000  C
  H20      1.0000 0.88790  0.66280  0.64980  Biso   1.000  H
  C54      1.0000 0.87890  0.75250  0.76440  Biso   1.000  C
  H21      1.0000 0.85850  0.69430  0.78910  Biso   1.000  H
  C55      1.0000 0.97940  0.02920  0.65970  Biso   1.000  C
  C56      1.0000 0.93900  0.79670  0.55050  Biso   1.000  C
  C57      1.0000 0.91880  0.83820  0.95990  Biso   1.000  C
  C58      1.0000 0.84780  0.82380  0.01660  Biso   1.000  C
  H22      1.0000 0.76480  0.83950  0.00420  Biso   1.000  H
  C59      1.0000 0.90220  0.78520  0.09350  Biso   1.000  C
  C60      1.0000 0.02730  0.76430  0.11230  Biso   1.000  C
  H23      1.0000 0.06470  0.74120  0.16410  Biso   1.000  H
  C61      1.0000 0.09630  0.77810  0.05340  Biso   1.000  C
  C62      1.0000 0.04190  0.81470  0.97600  Biso   1.000  C
  H24      1.0000 0.08770  0.82320  0.93610  Biso   1.000  H
  C63      1.0000 0.82300  0.76550  0.15380  Biso   1.000  C
  C64      1.0000 0.23210  0.75690  0.07470  Biso   1.000  C
  K3       1.0000 0.26803  0.49064  0.94310  Biso   1.000  K
  K4       1.0000 0.21830  0.97632  0.55479  Biso   1.000  K
  O38      1.0000 0.05800  0.49200  0.00000  Biso   1.000  O
