data_image0
_cell_length_a       11.003
_cell_length_b       12.486
_cell_length_c       15.925
_cell_angle_alpha    100.091
_cell_angle_beta     106.028
_cell_angle_gamma    95.762

_symmetry_space_group_name_H-M    "P 1"
_symmetry_int_tables_number       1

loop_
  _symmetry_equiv_pos_as_xyz
  'x, y, z'

loop_
  _atom_site_label
  _atom_site_occupancy
  _atom_site_fract_x
  _atom_site_fract_y
  _atom_site_fract_z
  _atom_site_thermal_displace_type
  _atom_site_B_iso_or_equiv
  _atom_site_type_symbol
  Gd1      1.0000 0.05985  0.24120  0.62837  Biso   1.000  Gd
  Gd2      1.0000 0.49636  0.74142  0.11713  Biso   1.000  Gd
  O1       1.0000 0.86150  0.88620  0.88840  Biso   1.000  O
  O2       1.0000 0.89370  0.08350  0.62840  Biso   1.000  O
  O3       1.0000 0.09560  0.06130  0.67170  Biso   1.000  O
  O4       1.0000 0.96220  0.87770  0.51540  Biso   1.000  O
  O5       1.0000 0.91960  0.70030  0.50820  Biso   1.000  O
  O6       1.0000 0.29800  0.77660  0.15420  Biso   1.000  O
  O7       1.0000 0.27650  0.72310  0.01230  Biso   1.000  O
  O8       1.0000 0.71190  0.79100  0.13490  Biso   1.000  O
  O9       1.0000 0.87030  0.72130  0.21740  Biso   1.000  O
  O10      1.0000 0.41120  0.37880  0.39940  Biso   1.000  O
  O11      1.0000 0.59490  0.57640  0.17030  Biso   1.000  O
  O12      1.0000 0.38580  0.56420  0.12330  Biso   1.000  O
  O13      1.0000 0.48810  0.37540  0.01950  Biso   1.000  O
  O14      1.0000 0.49510  0.20290  0.02460  Biso   1.000  O
  O15      1.0000 0.87800  0.32120  0.67000  Biso   1.000  O
  O16      1.0000 0.84900  0.25670  0.52900  Biso   1.000  O
  O17      1.0000 0.44700  0.21420  0.72980  Biso   1.000  O
  O18      1.0000 0.27070  0.22320  0.62700  Biso   1.000  O
  C1       1.0000 0.89210  0.86200  0.81030  Biso   1.000  C
  C2       1.0000 0.92280  0.94490  0.77590  Biso   1.000  C
  H1       1.0000 0.93140  0.01670  0.80760  Biso   1.000  H
  C3       1.0000 0.94330  0.92570  0.69020  Biso   1.000  C
  C4       1.0000 0.92840  0.82050  0.64320  Biso   1.000  C
  C5       1.0000 0.89520  0.73370  0.68020  Biso   1.000  C
  H2       1.0000 0.88460  0.66170  0.64840  Biso   1.000  H
  C6       1.0000 0.87760  0.75270  0.76380  Biso   1.000  C
  H3       1.0000 0.85670  0.69430  0.78890  Biso   1.000  H
  C7       1.0000 0.97820  0.02940  0.65930  Biso   1.000  C
  C8       1.0000 0.93920  0.79840  0.55120  Biso   1.000  C
  C9       1.0000 0.91850  0.84030  0.95940  Biso   1.000  C
  C10      1.0000 0.04140  0.81590  0.97510  Biso   1.000  C
  H4       1.0000 0.08810  0.82510  0.93560  Biso   1.000  H
  C11      1.0000 0.09330  0.77700  0.05210  Biso   1.000  C
  C12      1.0000 0.02550  0.76430  0.11210  Biso   1.000  C
  H5       1.0000 0.06310  0.74120  0.16440  Biso   1.000  H
  C13      1.0000 0.90050  0.78640  0.09300  Biso   1.000  C
  C14      1.0000 0.84710  0.82530  0.01650  Biso   1.000  C
  H6       1.0000 0.76390  0.84110  0.00400  Biso   1.000  H
  C15      1.0000 0.22990  0.75810  0.07400  Biso   1.000  C
  C16      1.0000 0.82140  0.76550  0.15300  Biso   1.000  C
  C17      1.0000 0.44120  0.35770  0.32100  Biso   1.000  C
  C18      1.0000 0.45280  0.44400  0.28040  Biso   1.000  C
  H7       1.0000 0.45110  0.51520  0.30900  Biso   1.000  H
  C19      1.0000 0.46760  0.42320  0.19450  Biso   1.000  C
  C20      1.0000 0.47540  0.32140  0.15340  Biso   1.000  C
  C21      1.0000 0.46110  0.23310  0.19420  Biso   1.000  C
  H8       1.0000 0.46200  0.16220  0.16450  Biso   1.000  H
  C22      1.0000 0.44550  0.24990  0.27870  Biso   1.000  C
  H9       1.0000 0.43820  0.19140  0.30680  Biso   1.000  H
  C23      1.0000 0.48560  0.52630  0.15960  Biso   1.000  C
  C24      1.0000 0.48890  0.29880  0.06150  Biso   1.000  C
  C25      1.0000 0.47680  0.33770  0.47070  Biso   1.000  C
  C26      1.0000 0.60660  0.33560  0.49250  Biso   1.000  C
  H10      1.0000 0.65380  0.35720  0.45630  Biso   1.000  H
  C27      1.0000 0.66500  0.30080  0.56920  Biso   1.000  C
  C28      1.0000 0.59620  0.27230  0.62440  Biso   1.000  C
  H11      1.0000 0.63730  0.25220  0.67740  Biso   1.000  H
  C29      1.0000 0.46620  0.27360  0.60080  Biso   1.000  C
  C30      1.0000 0.40660  0.30730  0.52460  Biso   1.000  C
  H12      1.0000 0.31910  0.30970  0.50920  Biso   1.000  H
  C31      1.0000 0.80500  0.29480  0.59110  Biso   1.000  C
  C32      1.0000 0.38600  0.23410  0.65590  Biso   1.000  C
  K1       1.0000 0.78170  0.02420  0.44486  Biso   1.000  K
  K2       1.0000 0.26880  0.49040  0.94218  Biso   1.000  K
  Gd3      1.0000 0.94015  0.75880  0.37163  Biso   1.000  Gd
  Gd4      1.0000 0.50364  0.25858  0.88287  Biso   1.000  Gd
  O19      1.0000 0.13850  0.11380  0.11160  Biso   1.000  O
  O20      1.0000 0.10630  0.91650  0.37160  Biso   1.000  O
  O21      1.0000 0.90440  0.93870  0.32830  Biso   1.000  O
  O22      1.0000 0.03780  0.12230  0.48460  Biso   1.000  O
  O23      1.0000 0.08040  0.29970  0.49180  Biso   1.000  O
  O24      1.0000 0.70200  0.22340  0.84580  Biso   1.000  O
  O25      1.0000 0.72350  0.27690  0.98770  Biso   1.000  O
  O26      1.0000 0.28810  0.20900  0.86510  Biso   1.000  O
  O27      1.0000 0.12970  0.27870  0.78260  Biso   1.000  O
  O28      1.0000 0.58880  0.62120  0.60060  Biso   1.000  O
  O29      1.0000 0.40510  0.42360  0.82970  Biso   1.000  O
  O30      1.0000 0.61420  0.43580  0.87670  Biso   1.000  O
  O31      1.0000 0.51190  0.62460  0.98050  Biso   1.000  O
  O32      1.0000 0.50490  0.79710  0.97540  Biso   1.000  O
  O33      1.0000 0.12200  0.67880  0.33000  Biso   1.000  O
  O34      1.0000 0.15100  0.74330  0.47100  Biso   1.000  O
  O35      1.0000 0.55300  0.78580  0.27020  Biso   1.000  O
  O36      1.0000 0.72930  0.77680  0.37300  Biso   1.000  O
  C33      1.0000 0.10790  0.13800  0.18970  Biso   1.000  C
  C34      1.0000 0.07720  0.05510  0.22410  Biso   1.000  C
  H13      1.0000 0.06860  0.98330  0.19240  Biso   1.000  H
  C35      1.0000 0.05670  0.07430  0.30980  Biso   1.000  C
  C36      1.0000 0.07160  0.17950  0.35680  Biso   1.000  C
  C37      1.0000 0.10480  0.26630  0.31980  Biso   1.000  C
  H14      1.0000 0.11540  0.33830  0.35160  Biso   1.000  H
  C38      1.0000 0.12240  0.24730  0.23620  Biso   1.000  C
  H15      1.0000 0.14330  0.30570  0.21110  Biso   1.000  H
  C39      1.0000 0.02180  0.97060  0.34070  Biso   1.000  C
  C40      1.0000 0.06080  0.20160  0.44880  Biso   1.000  C
  C41      1.0000 0.08150  0.15970  0.04060  Biso   1.000  C
  C42      1.0000 0.95860  0.18410  0.02490  Biso   1.000  C
  H16      1.0000 0.91190  0.17490  0.06440  Biso   1.000  H
  C43      1.0000 0.90670  0.22300  0.94790  Biso   1.000  C
  C44      1.0000 0.97450  0.23570  0.88790  Biso   1.000  C
  H17      1.0000 0.93690  0.25880  0.83560  Biso   1.000  H
  C45      1.0000 0.09950  0.21360  0.90700  Biso   1.000  C
  C46      1.0000 0.15290  0.17470  0.98350  Biso   1.000  C
  H18      1.0000 0.23610  0.15890  0.99600  Biso   1.000  H
  C47      1.0000 0.77010  0.24190  0.92600  Biso   1.000  C
  C48      1.0000 0.17860  0.23450  0.84700  Biso   1.000  C
  C49      1.0000 0.55880  0.64230  0.67900  Biso   1.000  C
  C50      1.0000 0.54720  0.55600  0.71960  Biso   1.000  C
  H19      1.0000 0.54890  0.48480  0.69100  Biso   1.000  H
  C51      1.0000 0.53240  0.57680  0.80550  Biso   1.000  C
  C52      1.0000 0.52460  0.67860  0.84660  Biso   1.000  C
  C53      1.0000 0.53890  0.76690  0.80580  Biso   1.000  C
  H20      1.0000 0.53800  0.83780  0.83550  Biso   1.000  H
  C54      1.0000 0.55450  0.75010  0.72130  Biso   1.000  C
  H21      1.0000 0.56180  0.80860  0.69320  Biso   1.000  H
  C55      1.0000 0.51440  0.47370  0.84040  Biso   1.000  C
  C56      1.0000 0.51110  0.70120  0.93850  Biso   1.000  C
  C57      1.0000 0.52320  0.66230  0.52930  Biso   1.000  C
  C58      1.0000 0.39340  0.66440  0.50750  Biso   1.000  C
  H22      1.0000 0.34620  0.64280  0.54370  Biso   1.000  H
  C59      1.0000 0.33500  0.69920  0.43080  Biso   1.000  C
  C60      1.0000 0.40380  0.72770  0.37560  Biso   1.000  C
  H23      1.0000 0.36270  0.74780  0.32260  Biso   1.000  H
  C61      1.0000 0.53380  0.72640  0.39920  Biso   1.000  C
  C62      1.0000 0.59340  0.69270  0.47540  Biso   1.000  C
  H24      1.0000 0.68090  0.69030  0.49080  Biso   1.000  H
  C63      1.0000 0.19500  0.70520  0.40890  Biso   1.000  C
  C64      1.0000 0.61400  0.76590  0.34410  Biso   1.000  C
  K3       1.0000 0.21830  0.97580  0.55514  Biso   1.000  K
  K4       1.0000 0.73120  0.50960  0.05782  Biso   1.000  K
