data_image0
_cell_length_a       31.37
_cell_length_b       31.37
_cell_length_c       7.8467
_cell_angle_alpha    90
_cell_angle_beta     90
_cell_angle_gamma    90

_symmetry_space_group_name_H-M    "P 1"
_symmetry_int_tables_number       1

loop_
  _symmetry_equiv_pos_as_xyz
  'x, y, z'

loop_
  _atom_site_label
  _atom_site_occupancy
  _atom_site_fract_x
  _atom_site_fract_y
  _atom_site_fract_z
  _atom_site_thermal_displace_type
  _atom_site_B_iso_or_equiv
  _atom_site_type_symbol
  Ag1      1.0000 0.81390  0.79947  0.92353  Biso   1.000  Ag
  N1       1.0000 0.75126  0.72461  0.48620  Biso   1.000  N
  N2       1.0000 0.89850  0.73337  0.23170  Biso   1.000  N
  N3       1.0000 0.93303  0.75465  0.16820  Biso   1.000  N
  N4       1.0000 0.88425  0.80214  0.23150  Biso   1.000  N
  N5       1.0000 0.00853  0.88563  0.94320  Biso   1.000  N
  N6       1.0000 0.83095  0.84852  0.14080  Biso   1.000  N
  C1       1.0000 0.80955  0.71238  0.30030  Biso   1.000  C
  H1       1.0000 0.82280  0.69470  0.22140  Biso   1.000  H
  C2       1.0000 0.77243  0.70055  0.37290  Biso   1.000  C
  H2       1.0000 0.76090  0.67430  0.34290  Biso   1.000  H
  C3       1.0000 0.76859  0.76199  0.52500  Biso   1.000  C
  H3       1.0000 0.75420  0.77940  0.60180  Biso   1.000  H
  C4       1.0000 0.80637  0.77640  0.45870  Biso   1.000  C
  H4       1.0000 0.81730  0.80280  0.49070  Biso   1.000  H
  C5       1.0000 0.82787  0.75120  0.34400  Biso   1.000  C
  C6       1.0000 0.86923  0.76181  0.26950  Biso   1.000  C
  C7       1.0000 0.92423  0.79558  0.16690  Biso   1.000  C
  C8       1.0000 0.95247  0.82765  0.09380  Biso   1.000  C
  C9       1.0000 0.99610  0.82084  0.09640  Biso   1.000  C
  H5       1.0000 0.00730  0.79670  0.14900  Biso   1.000  H
  C10      1.0000 0.02266  0.84995  0.02070  Biso   1.000  C
  H6       1.0000 0.05190  0.84480  0.02290  Biso   1.000  H
  C11      1.0000 0.96662  0.89173  0.94140  Biso   1.000  C
  H7       1.0000 0.95620  0.91610  0.88840  Biso   1.000  H
  C12      1.0000 0.93771  0.86422  0.01300  Biso   1.000  C
  H8       1.0000 0.90870  0.87000  0.00750  Biso   1.000  H
  C13      1.0000 0.86215  0.84191  0.25030  Biso   1.000  C
  C14      1.0000 0.87489  0.87022  0.37250  Biso   1.000  C
  H9       1.0000 0.89730  0.86410  0.44630  Biso   1.000  H
  C15      1.0000 0.85297  0.90833  0.38140  Biso   1.000  C
  H10      1.0000 0.86010  0.92850  0.46350  Biso   1.000  H
  C16      1.0000 0.82096  0.91611  0.26960  Biso   1.000  C
  H11      1.0000 0.80630  0.94190  0.27270  Biso   1.000  H
  C17      1.0000 0.81049  0.88571  0.15260  Biso   1.000  C
  H12      1.0000 0.78810  0.89110  0.07790  Biso   1.000  H
  Ag2      1.0000 0.31390  0.29947  0.42353  Biso   1.000  Ag
  N7       1.0000 0.25126  0.22461  0.98620  Biso   1.000  N
  N8       1.0000 0.39850  0.23337  0.73170  Biso   1.000  N
  N9       1.0000 0.43303  0.25465  0.66820  Biso   1.000  N
  N10      1.0000 0.38425  0.30214  0.73150  Biso   1.000  N
  N11      1.0000 0.50853  0.38563  0.44320  Biso   1.000  N
  N12      1.0000 0.33095  0.34852  0.64080  Biso   1.000  N
  C18      1.0000 0.30955  0.21238  0.80030  Biso   1.000  C
  H13      1.0000 0.32280  0.19470  0.72140  Biso   1.000  H
  C19      1.0000 0.27243  0.20055  0.87290  Biso   1.000  C
  H14      1.0000 0.26090  0.17430  0.84290  Biso   1.000  H
  C20      1.0000 0.26859  0.26199  0.02500  Biso   1.000  C
  H15      1.0000 0.25420  0.27940  0.10180  Biso   1.000  H
  C21      1.0000 0.30637  0.27640  0.95870  Biso   1.000  C
  H16      1.0000 0.31730  0.30280  0.99070  Biso   1.000  H
  C22      1.0000 0.32787  0.25120  0.84400  Biso   1.000  C
  C23      1.0000 0.36923  0.26181  0.76950  Biso   1.000  C
  C24      1.0000 0.42423  0.29558  0.66690  Biso   1.000  C
  C25      1.0000 0.45247  0.32765  0.59380  Biso   1.000  C
  C26      1.0000 0.49610  0.32084  0.59640  Biso   1.000  C
  H17      1.0000 0.50730  0.29670  0.64900  Biso   1.000  H
  C27      1.0000 0.52266  0.34995  0.52070  Biso   1.000  C
  H18      1.0000 0.55190  0.34480  0.52290  Biso   1.000  H
  C28      1.0000 0.46662  0.39173  0.44140  Biso   1.000  C
  H19      1.0000 0.45620  0.41610  0.38840  Biso   1.000  H
  C29      1.0000 0.43771  0.36422  0.51300  Biso   1.000  C
  H20      1.0000 0.40870  0.37000  0.50750  Biso   1.000  H
  C30      1.0000 0.36215  0.34191  0.75030  Biso   1.000  C
  C31      1.0000 0.37489  0.37022  0.87250  Biso   1.000  C
  H21      1.0000 0.39730  0.36410  0.94630  Biso   1.000  H
  C32      1.0000 0.35297  0.40833  0.88140  Biso   1.000  C
  H22      1.0000 0.36010  0.42850  0.96350  Biso   1.000  H
  C33      1.0000 0.32096  0.41611  0.76960  Biso   1.000  C
  H23      1.0000 0.30630  0.44190  0.77270  Biso   1.000  H
  C34      1.0000 0.31049  0.38571  0.65260  Biso   1.000  C
  H24      1.0000 0.28810  0.39110  0.57790  Biso   1.000  H
  Ag3      1.0000 0.68610  0.20053  0.42353  Biso   1.000  Ag
  N13      1.0000 0.74874  0.27539  0.98620  Biso   1.000  N
  N14      1.0000 0.60150  0.26663  0.73170  Biso   1.000  N
  N15      1.0000 0.56697  0.24535  0.66820  Biso   1.000  N
  N16      1.0000 0.61575  0.19786  0.73150  Biso   1.000  N
  N17      1.0000 0.49147  0.11437  0.44320  Biso   1.000  N
  N18      1.0000 0.66905  0.15148  0.64080  Biso   1.000  N
  C35      1.0000 0.69045  0.28762  0.80030  Biso   1.000  C
  H25      1.0000 0.67720  0.30530  0.72140  Biso   1.000  H
  C36      1.0000 0.72757  0.29945  0.87290  Biso   1.000  C
  H26      1.0000 0.73910  0.32570  0.84290  Biso   1.000  H
  C37      1.0000 0.73141  0.23801  0.02500  Biso   1.000  C
  H27      1.0000 0.74580  0.22060  0.10180  Biso   1.000  H
  C38      1.0000 0.69363  0.22360  0.95870  Biso   1.000  C
  H28      1.0000 0.68270  0.19720  0.99070  Biso   1.000  H
  C39      1.0000 0.67213  0.24880  0.84400  Biso   1.000  C
  C40      1.0000 0.63077  0.23819  0.76950  Biso   1.000  C
  C41      1.0000 0.57577  0.20442  0.66690  Biso   1.000  C
  C42      1.0000 0.54753  0.17235  0.59380  Biso   1.000  C
  C43      1.0000 0.50390  0.17916  0.59640  Biso   1.000  C
  H29      1.0000 0.49270  0.20330  0.64900  Biso   1.000  H
  C44      1.0000 0.47734  0.15005  0.52070  Biso   1.000  C
  H30      1.0000 0.44810  0.15520  0.52290  Biso   1.000  H
  C45      1.0000 0.53338  0.10827  0.44140  Biso   1.000  C
  H31      1.0000 0.54380  0.08390  0.38840  Biso   1.000  H
  C46      1.0000 0.56229  0.13578  0.51300  Biso   1.000  C
  H32      1.0000 0.59130  0.13000  0.50750  Biso   1.000  H
  C47      1.0000 0.63785  0.15809  0.75030  Biso   1.000  C
  C48      1.0000 0.62511  0.12978  0.87250  Biso   1.000  C
  H33      1.0000 0.60270  0.13590  0.94630  Biso   1.000  H
  C49      1.0000 0.64703  0.09167  0.88140  Biso   1.000  C
  H34      1.0000 0.63990  0.07150  0.96350  Biso   1.000  H
  C50      1.0000 0.67904  0.08389  0.76960  Biso   1.000  C
  H35      1.0000 0.69370  0.05810  0.77270  Biso   1.000  H
  C51      1.0000 0.68951  0.11429  0.65260  Biso   1.000  C
  H36      1.0000 0.71190  0.10890  0.57790  Biso   1.000  H
  Ag4      1.0000 0.18610  0.70053  0.92353  Biso   1.000  Ag
  N19      1.0000 0.24874  0.77539  0.48620  Biso   1.000  N
  N20      1.0000 0.10150  0.76663  0.23170  Biso   1.000  N
  N21      1.0000 0.06697  0.74535  0.16820  Biso   1.000  N
  N22      1.0000 0.11575  0.69786  0.23150  Biso   1.000  N
  N23      1.0000 0.99147  0.61437  0.94320  Biso   1.000  N
  N24      1.0000 0.16905  0.65148  0.14080  Biso   1.000  N
  C52      1.0000 0.19045  0.78762  0.30030  Biso   1.000  C
  H37      1.0000 0.17720  0.80530  0.22140  Biso   1.000  H
  C53      1.0000 0.22757  0.79945  0.37290  Biso   1.000  C
  H38      1.0000 0.23910  0.82570  0.34290  Biso   1.000  H
  C54      1.0000 0.23141  0.73801  0.52500  Biso   1.000  C
  H39      1.0000 0.24580  0.72060  0.60180  Biso   1.000  H
  C55      1.0000 0.19363  0.72360  0.45870  Biso   1.000  C
  H40      1.0000 0.18270  0.69720  0.49070  Biso   1.000  H
  C56      1.0000 0.17213  0.74880  0.34400  Biso   1.000  C
  C57      1.0000 0.13077  0.73819  0.26950  Biso   1.000  C
  C58      1.0000 0.07577  0.70442  0.16690  Biso   1.000  C
  C59      1.0000 0.04753  0.67235  0.09380  Biso   1.000  C
  C60      1.0000 0.00390  0.67916  0.09640  Biso   1.000  C
  H41      1.0000 0.99270  0.70330  0.14900  Biso   1.000  H
  C61      1.0000 0.97734  0.65005  0.02070  Biso   1.000  C
  H42      1.0000 0.94810  0.65520  0.02290  Biso   1.000  H
  C62      1.0000 0.03338  0.60827  0.94140  Biso   1.000  C
  H43      1.0000 0.04380  0.58390  0.88840  Biso   1.000  H
  C63      1.0000 0.06229  0.63578  0.01300  Biso   1.000  C
  H44      1.0000 0.09130  0.63000  0.00750  Biso   1.000  H
  C64      1.0000 0.13785  0.65809  0.25030  Biso   1.000  C
  C65      1.0000 0.12511  0.62978  0.37250  Biso   1.000  C
  H45      1.0000 0.10270  0.63590  0.44630  Biso   1.000  H
  C66      1.0000 0.14703  0.59167  0.38140  Biso   1.000  C
  H46      1.0000 0.13990  0.57150  0.46350  Biso   1.000  H
  C67      1.0000 0.17904  0.58389  0.26960  Biso   1.000  C
  H47      1.0000 0.19370  0.55810  0.27270  Biso   1.000  H
  C68      1.0000 0.18951  0.61429  0.15260  Biso   1.000  C
  H48      1.0000 0.21190  0.60890  0.07790  Biso   1.000  H
  Ag5      1.0000 0.95053  0.06390  0.17353  Biso   1.000  Ag
  N25      1.0000 0.02539  0.00126  0.73620  Biso   1.000  N
  N26      1.0000 0.01663  0.14850  0.48170  Biso   1.000  N
  N27      1.0000 0.99535  0.18303  0.41820  Biso   1.000  N
  N28      1.0000 0.94786  0.13425  0.48150  Biso   1.000  N
  N29      1.0000 0.86437  0.25853  0.19320  Biso   1.000  N
  N30      1.0000 0.90148  0.08095  0.39080  Biso   1.000  N
  C69      1.0000 0.03762  0.05955  0.55030  Biso   1.000  C
  H49      1.0000 0.05530  0.07280  0.47140  Biso   1.000  H
  C70      1.0000 0.04945  0.02243  0.62290  Biso   1.000  C
  H50      1.0000 0.07570  0.01090  0.59290  Biso   1.000  H
  C71      1.0000 0.98801  0.01859  0.77500  Biso   1.000  C
  H51      1.0000 0.97060  0.00420  0.85180  Biso   1.000  H
  C72      1.0000 0.97360  0.05637  0.70870  Biso   1.000  C
  H52      1.0000 0.94720  0.06730  0.74070  Biso   1.000  H
  C73      1.0000 0.99880  0.07787  0.59400  Biso   1.000  C
  C74      1.0000 0.98819  0.11923  0.51950  Biso   1.000  C
  C75      1.0000 0.95442  0.17423  0.41690  Biso   1.000  C
  C76      1.0000 0.92235  0.20247  0.34380  Biso   1.000  C
  C77      1.0000 0.92916  0.24610  0.34640  Biso   1.000  C
  H53      1.0000 0.95330  0.25730  0.39900  Biso   1.000  H
  C78      1.0000 0.90005  0.27266  0.27070  Biso   1.000  C
  H54      1.0000 0.90520  0.30190  0.27290  Biso   1.000  H
  C79      1.0000 0.85827  0.21662  0.19140  Biso   1.000  C
  H55      1.0000 0.83390  0.20620  0.13840  Biso   1.000  H
  C80      1.0000 0.88578  0.18771  0.26300  Biso   1.000  C
  H56      1.0000 0.88000  0.15870  0.25750  Biso   1.000  H
  C81      1.0000 0.90809  0.11215  0.50030  Biso   1.000  C
  C82      1.0000 0.87978  0.12489  0.62250  Biso   1.000  C
  H57      1.0000 0.88590  0.14730  0.69630  Biso   1.000  H
  C83      1.0000 0.84167  0.10297  0.63140  Biso   1.000  C
  H58      1.0000 0.82150  0.11010  0.71350  Biso   1.000  H
  C84      1.0000 0.83389  0.07096  0.51960  Biso   1.000  C
  H59      1.0000 0.80810  0.05630  0.52270  Biso   1.000  H
  C85      1.0000 0.86429  0.06049  0.40260  Biso   1.000  C
  H60      1.0000 0.85890  0.03810  0.32790  Biso   1.000  H
  Ag6      1.0000 0.45053  0.56390  0.67353  Biso   1.000  Ag
  N31      1.0000 0.52539  0.50126  0.23620  Biso   1.000  N
  N32      1.0000 0.51663  0.64850  0.98170  Biso   1.000  N
  N33      1.0000 0.49535  0.68303  0.91820  Biso   1.000  N
  N34      1.0000 0.44786  0.63425  0.98150  Biso   1.000  N
  N35      1.0000 0.36437  0.75853  0.69320  Biso   1.000  N
  N36      1.0000 0.40148  0.58095  0.89080  Biso   1.000  N
  C86      1.0000 0.53762  0.55955  0.05030  Biso   1.000  C
  H61      1.0000 0.55530  0.57280  0.97140  Biso   1.000  H
  C87      1.0000 0.54945  0.52243  0.12290  Biso   1.000  C
  H62      1.0000 0.57570  0.51090  0.09290  Biso   1.000  H
  C88      1.0000 0.48801  0.51859  0.27500  Biso   1.000  C
  H63      1.0000 0.47060  0.50420  0.35180  Biso   1.000  H
  C89      1.0000 0.47360  0.55637  0.20870  Biso   1.000  C
  H64      1.0000 0.44720  0.56730  0.24070  Biso   1.000  H
  C90      1.0000 0.49880  0.57787  0.09400  Biso   1.000  C
  C91      1.0000 0.48819  0.61923  0.01950  Biso   1.000  C
  C92      1.0000 0.45442  0.67423  0.91690  Biso   1.000  C
  C93      1.0000 0.42235  0.70247  0.84380  Biso   1.000  C
  C94      1.0000 0.42916  0.74610  0.84640  Biso   1.000  C
  H65      1.0000 0.45330  0.75730  0.89900  Biso   1.000  H
  C95      1.0000 0.40005  0.77266  0.77070  Biso   1.000  C
  H66      1.0000 0.40520  0.80190  0.77290  Biso   1.000  H
  C96      1.0000 0.35827  0.71662  0.69140  Biso   1.000  C
  H67      1.0000 0.33390  0.70620  0.63840  Biso   1.000  H
  C97      1.0000 0.38578  0.68771  0.76300  Biso   1.000  C
  H68      1.0000 0.38000  0.65870  0.75750  Biso   1.000  H
  C98      1.0000 0.40809  0.61215  0.00030  Biso   1.000  C
  C99      1.0000 0.37978  0.62489  0.12250  Biso   1.000  C
  H69      1.0000 0.38590  0.64730  0.19630  Biso   1.000  H
  C100     1.0000 0.34167  0.60297  0.13140  Biso   1.000  C
  H70      1.0000 0.32150  0.61010  0.21350  Biso   1.000  H
  C101     1.0000 0.33389  0.57096  0.01960  Biso   1.000  C
  H71      1.0000 0.30810  0.55630  0.02270  Biso   1.000  H
  C102     1.0000 0.36429  0.56049  0.90260  Biso   1.000  C
  H72      1.0000 0.35890  0.53810  0.82790  Biso   1.000  H
  Ag7      1.0000 0.54947  0.93610  0.67353  Biso   1.000  Ag
  N37      1.0000 0.47461  0.99874  0.23620  Biso   1.000  N
  N38      1.0000 0.48337  0.85150  0.98170  Biso   1.000  N
  N39      1.0000 0.50465  0.81697  0.91820  Biso   1.000  N
  N40      1.0000 0.55214  0.86575  0.98150  Biso   1.000  N
  N41      1.0000 0.63563  0.74147  0.69320  Biso   1.000  N
  N42      1.0000 0.59852  0.91905  0.89080  Biso   1.000  N
  C103     1.0000 0.46238  0.94045  0.05030  Biso   1.000  C
  H73      1.0000 0.44470  0.92720  0.97140  Biso   1.000  H
  C104     1.0000 0.45055  0.97757  0.12290  Biso   1.000  C
  H74      1.0000 0.42430  0.98910  0.09290  Biso   1.000  H
  C105     1.0000 0.51199  0.98141  0.27500  Biso   1.000  C
  H75      1.0000 0.52940  0.99580  0.35180  Biso   1.000  H
  C106     1.0000 0.52640  0.94363  0.20870  Biso   1.000  C
  H76      1.0000 0.55280  0.93270  0.24070  Biso   1.000  H
  C107     1.0000 0.50120  0.92213  0.09400  Biso   1.000  C
  C108     1.0000 0.51181  0.88077  0.01950  Biso   1.000  C
  C109     1.0000 0.54558  0.82577  0.91690  Biso   1.000  C
  C110     1.0000 0.57765  0.79753  0.84380  Biso   1.000  C
  C111     1.0000 0.57084  0.75390  0.84640  Biso   1.000  C
  H77      1.0000 0.54670  0.74270  0.89900  Biso   1.000  H
  C112     1.0000 0.59995  0.72734  0.77070  Biso   1.000  C
  H78      1.0000 0.59480  0.69810  0.77290  Biso   1.000  H
  C113     1.0000 0.64173  0.78338  0.69140  Biso   1.000  C
  H79      1.0000 0.66610  0.79380  0.63840  Biso   1.000  H
  C114     1.0000 0.61422  0.81229  0.76300  Biso   1.000  C
  H80      1.0000 0.62000  0.84130  0.75750  Biso   1.000  H
  C115     1.0000 0.59191  0.88785  0.00030  Biso   1.000  C
  C116     1.0000 0.62022  0.87511  0.12250  Biso   1.000  C
  H81      1.0000 0.61410  0.85270  0.19630  Biso   1.000  H
  C117     1.0000 0.65833  0.89703  0.13140  Biso   1.000  C
  H82      1.0000 0.67850  0.88990  0.21350  Biso   1.000  H
  C118     1.0000 0.66611  0.92904  0.01960  Biso   1.000  C
  H83      1.0000 0.69190  0.94370  0.02270  Biso   1.000  H
  C119     1.0000 0.63571  0.93951  0.90260  Biso   1.000  C
  H84      1.0000 0.64110  0.96190  0.82790  Biso   1.000  H
  Ag8      1.0000 0.04947  0.43610  0.17353  Biso   1.000  Ag
  N43      1.0000 0.97461  0.49874  0.73620  Biso   1.000  N
  N44      1.0000 0.98337  0.35150  0.48170  Biso   1.000  N
  N45      1.0000 0.00465  0.31697  0.41820  Biso   1.000  N
  N46      1.0000 0.05214  0.36575  0.48150  Biso   1.000  N
  N47      1.0000 0.13563  0.24147  0.19320  Biso   1.000  N
  N48      1.0000 0.09852  0.41905  0.39080  Biso   1.000  N
  C120     1.0000 0.96238  0.44045  0.55030  Biso   1.000  C
  H85      1.0000 0.94470  0.42720  0.47140  Biso   1.000  H
  C121     1.0000 0.95055  0.47757  0.62290  Biso   1.000  C
  H86      1.0000 0.92430  0.48910  0.59290  Biso   1.000  H
  C122     1.0000 0.01199  0.48141  0.77500  Biso   1.000  C
  H87      1.0000 0.02940  0.49580  0.85180  Biso   1.000  H
  C123     1.0000 0.02640  0.44363  0.70870  Biso   1.000  C
  H88      1.0000 0.05280  0.43270  0.74070  Biso   1.000  H
  C124     1.0000 0.00120  0.42213  0.59400  Biso   1.000  C
  C125     1.0000 0.01181  0.38077  0.51950  Biso   1.000  C
  C126     1.0000 0.04558  0.32577  0.41690  Biso   1.000  C
  C127     1.0000 0.07765  0.29753  0.34380  Biso   1.000  C
  C128     1.0000 0.07084  0.25390  0.34640  Biso   1.000  C
  H89      1.0000 0.04670  0.24270  0.39900  Biso   1.000  H
  C129     1.0000 0.09995  0.22734  0.27070  Biso   1.000  C
  H90      1.0000 0.09480  0.19810  0.27290  Biso   1.000  H
  C130     1.0000 0.14173  0.28338  0.19140  Biso   1.000  C
  H91      1.0000 0.16610  0.29380  0.13840  Biso   1.000  H
  C131     1.0000 0.11422  0.31229  0.26300  Biso   1.000  C
  H92      1.0000 0.12000  0.34130  0.25750  Biso   1.000  H
  C132     1.0000 0.09191  0.38785  0.50030  Biso   1.000  C
  C133     1.0000 0.12022  0.37511  0.62250  Biso   1.000  C
  H93      1.0000 0.11410  0.35270  0.69630  Biso   1.000  H
  C134     1.0000 0.15833  0.39703  0.63140  Biso   1.000  C
  H94      1.0000 0.17850  0.38990  0.71350  Biso   1.000  H
  C135     1.0000 0.16611  0.42904  0.51960  Biso   1.000  C
  H95      1.0000 0.19190  0.44370  0.52270  Biso   1.000  H
  C136     1.0000 0.13571  0.43951  0.40260  Biso   1.000  C
  H96      1.0000 0.14110  0.46190  0.32790  Biso   1.000  H
  Ag9      1.0000 0.18610  0.20053  0.07647  Biso   1.000  Ag
  N49      1.0000 0.24874  0.27539  0.51380  Biso   1.000  N
  N50      1.0000 0.10150  0.26663  0.76830  Biso   1.000  N
  N51      1.0000 0.06697  0.24535  0.83180  Biso   1.000  N
  N52      1.0000 0.11575  0.19786  0.76850  Biso   1.000  N
  N53      1.0000 0.99147  0.11437  0.05680  Biso   1.000  N
  N54      1.0000 0.16905  0.15148  0.85920  Biso   1.000  N
  C137     1.0000 0.19045  0.28762  0.69970  Biso   1.000  C
  H97      1.0000 0.17720  0.30530  0.77860  Biso   1.000  H
  C138     1.0000 0.22757  0.29945  0.62710  Biso   1.000  C
  H98      1.0000 0.23910  0.32570  0.65710  Biso   1.000  H
  C139     1.0000 0.23141  0.23801  0.47500  Biso   1.000  C
  H99      1.0000 0.24580  0.22060  0.39820  Biso   1.000  H
  C140     1.0000 0.19363  0.22360  0.54130  Biso   1.000  C
  H100     1.0000 0.18270  0.19720  0.50930  Biso   1.000  H
  C141     1.0000 0.17213  0.24880  0.65600  Biso   1.000  C
  C142     1.0000 0.13077  0.23819  0.73050  Biso   1.000  C
  C143     1.0000 0.07577  0.20442  0.83310  Biso   1.000  C
  C144     1.0000 0.04753  0.17235  0.90620  Biso   1.000  C
  C145     1.0000 0.00390  0.17916  0.90360  Biso   1.000  C
  H101     1.0000 0.99270  0.20330  0.85100  Biso   1.000  H
  C146     1.0000 0.97734  0.15005  0.97930  Biso   1.000  C
  H102     1.0000 0.94810  0.15520  0.97710  Biso   1.000  H
  C147     1.0000 0.03338  0.10827  0.05860  Biso   1.000  C
  H103     1.0000 0.04380  0.08390  0.11160  Biso   1.000  H
  C148     1.0000 0.06229  0.13578  0.98700  Biso   1.000  C
  H104     1.0000 0.09130  0.13000  0.99250  Biso   1.000  H
  C149     1.0000 0.13785  0.15809  0.74970  Biso   1.000  C
  C150     1.0000 0.12511  0.12978  0.62750  Biso   1.000  C
  H105     1.0000 0.10270  0.13590  0.55370  Biso   1.000  H
  C151     1.0000 0.14703  0.09167  0.61860  Biso   1.000  C
  H106     1.0000 0.13990  0.07150  0.53650  Biso   1.000  H
  C152     1.0000 0.17904  0.08389  0.73040  Biso   1.000  C
  H107     1.0000 0.19370  0.05810  0.72730  Biso   1.000  H
  C153     1.0000 0.18951  0.11429  0.84740  Biso   1.000  C
  H108     1.0000 0.21190  0.10890  0.92210  Biso   1.000  H
  Ag10     1.0000 0.68610  0.70053  0.57647  Biso   1.000  Ag
  N55      1.0000 0.74874  0.77539  0.01380  Biso   1.000  N
  N56      1.0000 0.60150  0.76663  0.26830  Biso   1.000  N
  N57      1.0000 0.56697  0.74535  0.33180  Biso   1.000  N
  N58      1.0000 0.61575  0.69786  0.26850  Biso   1.000  N
  N59      1.0000 0.49147  0.61437  0.55680  Biso   1.000  N
  N60      1.0000 0.66905  0.65148  0.35920  Biso   1.000  N
  C154     1.0000 0.69045  0.78762  0.19970  Biso   1.000  C
  H109     1.0000 0.67720  0.80530  0.27860  Biso   1.000  H
  C155     1.0000 0.72757  0.79945  0.12710  Biso   1.000  C
  H110     1.0000 0.73910  0.82570  0.15710  Biso   1.000  H
  C156     1.0000 0.73141  0.73801  0.97500  Biso   1.000  C
  H111     1.0000 0.74580  0.72060  0.89820  Biso   1.000  H
  C157     1.0000 0.69363  0.72360  0.04130  Biso   1.000  C
  H112     1.0000 0.68270  0.69720  0.00930  Biso   1.000  H
  C158     1.0000 0.67213  0.74880  0.15600  Biso   1.000  C
  C159     1.0000 0.63077  0.73819  0.23050  Biso   1.000  C
  C160     1.0000 0.57577  0.70442  0.33310  Biso   1.000  C
  C161     1.0000 0.54753  0.67235  0.40620  Biso   1.000  C
  C162     1.0000 0.50390  0.67916  0.40360  Biso   1.000  C
  H113     1.0000 0.49270  0.70330  0.35100  Biso   1.000  H
  C163     1.0000 0.47734  0.65005  0.47930  Biso   1.000  C
  H114     1.0000 0.44810  0.65520  0.47710  Biso   1.000  H
  C164     1.0000 0.53338  0.60827  0.55860  Biso   1.000  C
  H115     1.0000 0.54380  0.58390  0.61160  Biso   1.000  H
  C165     1.0000 0.56229  0.63578  0.48700  Biso   1.000  C
  H116     1.0000 0.59130  0.63000  0.49250  Biso   1.000  H
  C166     1.0000 0.63785  0.65809  0.24970  Biso   1.000  C
  C167     1.0000 0.62511  0.62978  0.12750  Biso   1.000  C
  H117     1.0000 0.60270  0.63590  0.05370  Biso   1.000  H
  C168     1.0000 0.64703  0.59167  0.11860  Biso   1.000  C
  H118     1.0000 0.63990  0.57150  0.03650  Biso   1.000  H
  C169     1.0000 0.67904  0.58389  0.23040  Biso   1.000  C
  H119     1.0000 0.69370  0.55810  0.22730  Biso   1.000  H
  C170     1.0000 0.68951  0.61429  0.34740  Biso   1.000  C
  H120     1.0000 0.71190  0.60890  0.42210  Biso   1.000  H
  Ag11     1.0000 0.31390  0.79947  0.57647  Biso   1.000  Ag
  N61      1.0000 0.25126  0.72461  0.01380  Biso   1.000  N
  N62      1.0000 0.39850  0.73337  0.26830  Biso   1.000  N
  N63      1.0000 0.43303  0.75465  0.33180  Biso   1.000  N
  N64      1.0000 0.38425  0.80214  0.26850  Biso   1.000  N
  N65      1.0000 0.50853  0.88563  0.55680  Biso   1.000  N
  N66      1.0000 0.33095  0.84852  0.35920  Biso   1.000  N
  C171     1.0000 0.30955  0.71238  0.19970  Biso   1.000  C
  H121     1.0000 0.32280  0.69470  0.27860  Biso   1.000  H
  C172     1.0000 0.27243  0.70055  0.12710  Biso   1.000  C
  H122     1.0000 0.26090  0.67430  0.15710  Biso   1.000  H
  C173     1.0000 0.26859  0.76199  0.97500  Biso   1.000  C
  H123     1.0000 0.25420  0.77940  0.89820  Biso   1.000  H
  C174     1.0000 0.30637  0.77640  0.04130  Biso   1.000  C
  H124     1.0000 0.31730  0.80280  0.00930  Biso   1.000  H
  C175     1.0000 0.32787  0.75120  0.15600  Biso   1.000  C
  C176     1.0000 0.36923  0.76181  0.23050  Biso   1.000  C
  C177     1.0000 0.42423  0.79558  0.33310  Biso   1.000  C
  C178     1.0000 0.45247  0.82765  0.40620  Biso   1.000  C
  C179     1.0000 0.49610  0.82084  0.40360  Biso   1.000  C
  H125     1.0000 0.50730  0.79670  0.35100  Biso   1.000  H
  C180     1.0000 0.52266  0.84995  0.47930  Biso   1.000  C
  H126     1.0000 0.55190  0.84480  0.47710  Biso   1.000  H
  C181     1.0000 0.46662  0.89173  0.55860  Biso   1.000  C
  H127     1.0000 0.45620  0.91610  0.61160  Biso   1.000  H
  C182     1.0000 0.43771  0.86422  0.48700  Biso   1.000  C
  H128     1.0000 0.40870  0.87000  0.49250  Biso   1.000  H
  C183     1.0000 0.36215  0.84191  0.24970  Biso   1.000  C
  C184     1.0000 0.37489  0.87022  0.12750  Biso   1.000  C
  H129     1.0000 0.39730  0.86410  0.05370  Biso   1.000  H
  C185     1.0000 0.35297  0.90833  0.11860  Biso   1.000  C
  H130     1.0000 0.36010  0.92850  0.03650  Biso   1.000  H
  C186     1.0000 0.32096  0.91611  0.23040  Biso   1.000  C
  H131     1.0000 0.30630  0.94190  0.22730  Biso   1.000  H
  C187     1.0000 0.31049  0.88571  0.34740  Biso   1.000  C
  H132     1.0000 0.28810  0.89110  0.42210  Biso   1.000  H
  Ag12     1.0000 0.81390  0.29947  0.07647  Biso   1.000  Ag
  N67      1.0000 0.75126  0.22461  0.51380  Biso   1.000  N
  N68      1.0000 0.89850  0.23337  0.76830  Biso   1.000  N
  N69      1.0000 0.93303  0.25465  0.83180  Biso   1.000  N
  N70      1.0000 0.88425  0.30214  0.76850  Biso   1.000  N
  N71      1.0000 0.00853  0.38563  0.05680  Biso   1.000  N
  N72      1.0000 0.83095  0.34852  0.85920  Biso   1.000  N
  C188     1.0000 0.80955  0.21238  0.69970  Biso   1.000  C
  H133     1.0000 0.82280  0.19470  0.77860  Biso   1.000  H
  C189     1.0000 0.77243  0.20055  0.62710  Biso   1.000  C
  H134     1.0000 0.76090  0.17430  0.65710  Biso   1.000  H
  C190     1.0000 0.76859  0.26199  0.47500  Biso   1.000  C
  H135     1.0000 0.75420  0.27940  0.39820  Biso   1.000  H
  C191     1.0000 0.80637  0.27640  0.54130  Biso   1.000  C
  H136     1.0000 0.81730  0.30280  0.50930  Biso   1.000  H
  C192     1.0000 0.82787  0.25120  0.65600  Biso   1.000  C
  C193     1.0000 0.86923  0.26181  0.73050  Biso   1.000  C
  C194     1.0000 0.92423  0.29558  0.83310  Biso   1.000  C
  C195     1.0000 0.95247  0.32765  0.90620  Biso   1.000  C
  C196     1.0000 0.99610  0.32084  0.90360  Biso   1.000  C
  H137     1.0000 0.00730  0.29670  0.85100  Biso   1.000  H
  C197     1.0000 0.02266  0.34995  0.97930  Biso   1.000  C
  H138     1.0000 0.05190  0.34480  0.97710  Biso   1.000  H
  C198     1.0000 0.96662  0.39173  0.05860  Biso   1.000  C
  H139     1.0000 0.95620  0.41610  0.11160  Biso   1.000  H
  C199     1.0000 0.93771  0.36422  0.98700  Biso   1.000  C
  H140     1.0000 0.90870  0.37000  0.99250  Biso   1.000  H
  C200     1.0000 0.86215  0.34191  0.74970  Biso   1.000  C
  C201     1.0000 0.87489  0.37022  0.62750  Biso   1.000  C
  H141     1.0000 0.89730  0.36410  0.55370  Biso   1.000  H
  C202     1.0000 0.85297  0.40833  0.61860  Biso   1.000  C
  H142     1.0000 0.86010  0.42850  0.53650  Biso   1.000  H
  C203     1.0000 0.82096  0.41611  0.73040  Biso   1.000  C
  H143     1.0000 0.80630  0.44190  0.72730  Biso   1.000  H
  C204     1.0000 0.81049  0.38571  0.84740  Biso   1.000  C
  H144     1.0000 0.78810  0.39110  0.92210  Biso   1.000  H
  Ag13     1.0000 0.04947  0.93610  0.82647  Biso   1.000  Ag
  N73      1.0000 0.97461  0.99874  0.26380  Biso   1.000  N
  N74      1.0000 0.98337  0.85150  0.51830  Biso   1.000  N
  N75      1.0000 0.00465  0.81697  0.58180  Biso   1.000  N
  N76      1.0000 0.05214  0.86575  0.51850  Biso   1.000  N
  N77      1.0000 0.13563  0.74147  0.80680  Biso   1.000  N
  N78      1.0000 0.09852  0.91905  0.60920  Biso   1.000  N
  C205     1.0000 0.96238  0.94045  0.44970  Biso   1.000  C
  H145     1.0000 0.94470  0.92720  0.52860  Biso   1.000  H
  C206     1.0000 0.95055  0.97757  0.37710  Biso   1.000  C
  H146     1.0000 0.92430  0.98910  0.40710  Biso   1.000  H
  C207     1.0000 0.01199  0.98141  0.22500  Biso   1.000  C
  H147     1.0000 0.02940  0.99580  0.14820  Biso   1.000  H
  C208     1.0000 0.02640  0.94363  0.29130  Biso   1.000  C
  H148     1.0000 0.05280  0.93270  0.25930  Biso   1.000  H
  C209     1.0000 0.00120  0.92213  0.40600  Biso   1.000  C
  C210     1.0000 0.01181  0.88077  0.48050  Biso   1.000  C
  C211     1.0000 0.04558  0.82577  0.58310  Biso   1.000  C
  C212     1.0000 0.07765  0.79753  0.65620  Biso   1.000  C
  C213     1.0000 0.07084  0.75390  0.65360  Biso   1.000  C
  H149     1.0000 0.04670  0.74270  0.60100  Biso   1.000  H
  C214     1.0000 0.09995  0.72734  0.72930  Biso   1.000  C
  H150     1.0000 0.09480  0.69810  0.72710  Biso   1.000  H
  C215     1.0000 0.14173  0.78338  0.80860  Biso   1.000  C
  H151     1.0000 0.16610  0.79380  0.86160  Biso   1.000  H
  C216     1.0000 0.11422  0.81229  0.73700  Biso   1.000  C
  H152     1.0000 0.12000  0.84130  0.74250  Biso   1.000  H
  C217     1.0000 0.09191  0.88785  0.49970  Biso   1.000  C
  C218     1.0000 0.12022  0.87511  0.37750  Biso   1.000  C
  H153     1.0000 0.11410  0.85270  0.30370  Biso   1.000  H
  C219     1.0000 0.15833  0.89703  0.36860  Biso   1.000  C
  H154     1.0000 0.17850  0.88990  0.28650  Biso   1.000  H
  C220     1.0000 0.16611  0.92904  0.48040  Biso   1.000  C
  H155     1.0000 0.19190  0.94370  0.47730  Biso   1.000  H
  C221     1.0000 0.13571  0.93951  0.59740  Biso   1.000  C
  H156     1.0000 0.14110  0.96190  0.67210  Biso   1.000  H
  Ag14     1.0000 0.54947  0.43610  0.32647  Biso   1.000  Ag
  N79      1.0000 0.47461  0.49874  0.76380  Biso   1.000  N
  N80      1.0000 0.48337  0.35150  0.01830  Biso   1.000  N
  N81      1.0000 0.50465  0.31697  0.08180  Biso   1.000  N
  N82      1.0000 0.55214  0.36575  0.01850  Biso   1.000  N
  N83      1.0000 0.63563  0.24147  0.30680  Biso   1.000  N
  N84      1.0000 0.59852  0.41905  0.10920  Biso   1.000  N
  C222     1.0000 0.46238  0.44045  0.94970  Biso   1.000  C
  H157     1.0000 0.44470  0.42720  0.02860  Biso   1.000  H
  C223     1.0000 0.45055  0.47757  0.87710  Biso   1.000  C
  H158     1.0000 0.42430  0.48910  0.90710  Biso   1.000  H
  C224     1.0000 0.51199  0.48141  0.72500  Biso   1.000  C
  H159     1.0000 0.52940  0.49580  0.64820  Biso   1.000  H
  C225     1.0000 0.52640  0.44363  0.79130  Biso   1.000  C
  H160     1.0000 0.55280  0.43270  0.75930  Biso   1.000  H
  C226     1.0000 0.50120  0.42213  0.90600  Biso   1.000  C
  C227     1.0000 0.51181  0.38077  0.98050  Biso   1.000  C
  C228     1.0000 0.54558  0.32577  0.08310  Biso   1.000  C
  C229     1.0000 0.57765  0.29753  0.15620  Biso   1.000  C
  C230     1.0000 0.57084  0.25390  0.15360  Biso   1.000  C
  H161     1.0000 0.54670  0.24270  0.10100  Biso   1.000  H
  C231     1.0000 0.59995  0.22734  0.22930  Biso   1.000  C
  H162     1.0000 0.59480  0.19810  0.22710  Biso   1.000  H
  C232     1.0000 0.64173  0.28338  0.30860  Biso   1.000  C
  H163     1.0000 0.66610  0.29380  0.36160  Biso   1.000  H
  C233     1.0000 0.61422  0.31229  0.23700  Biso   1.000  C
  H164     1.0000 0.62000  0.34130  0.24250  Biso   1.000  H
  C234     1.0000 0.59191  0.38785  0.99970  Biso   1.000  C
  C235     1.0000 0.62022  0.37511  0.87750  Biso   1.000  C
  H165     1.0000 0.61410  0.35270  0.80370  Biso   1.000  H
  C236     1.0000 0.65833  0.39703  0.86860  Biso   1.000  C
  H166     1.0000 0.67850  0.38990  0.78650  Biso   1.000  H
  C237     1.0000 0.66611  0.42904  0.98040  Biso   1.000  C
  H167     1.0000 0.69190  0.44370  0.97730  Biso   1.000  H
  C238     1.0000 0.63571  0.43951  0.09740  Biso   1.000  C
  H168     1.0000 0.64110  0.46190  0.17210  Biso   1.000  H
  Ag15     1.0000 0.45053  0.06390  0.32647  Biso   1.000  Ag
  N85      1.0000 0.52539  0.00126  0.76380  Biso   1.000  N
  N86      1.0000 0.51663  0.14850  0.01830  Biso   1.000  N
  N87      1.0000 0.49535  0.18303  0.08180  Biso   1.000  N
  N88      1.0000 0.44786  0.13425  0.01850  Biso   1.000  N
  N89      1.0000 0.36437  0.25853  0.30680  Biso   1.000  N
  N90      1.0000 0.40148  0.08095  0.10920  Biso   1.000  N
  C239     1.0000 0.53762  0.05955  0.94970  Biso   1.000  C
  H169     1.0000 0.55530  0.07280  0.02860  Biso   1.000  H
  C240     1.0000 0.54945  0.02243  0.87710  Biso   1.000  C
  H170     1.0000 0.57570  0.01090  0.90710  Biso   1.000  H
  C241     1.0000 0.48801  0.01859  0.72500  Biso   1.000  C
  H171     1.0000 0.47060  0.00420  0.64820  Biso   1.000  H
  C242     1.0000 0.47360  0.05637  0.79130  Biso   1.000  C
  H172     1.0000 0.44720  0.06730  0.75930  Biso   1.000  H
  C243     1.0000 0.49880  0.07787  0.90600  Biso   1.000  C
  C244     1.0000 0.48819  0.11923  0.98050  Biso   1.000  C
  C245     1.0000 0.45442  0.17423  0.08310  Biso   1.000  C
  C246     1.0000 0.42235  0.20247  0.15620  Biso   1.000  C
  C247     1.0000 0.42916  0.24610  0.15360  Biso   1.000  C
  H173     1.0000 0.45330  0.25730  0.10100  Biso   1.000  H
  C248     1.0000 0.40005  0.27266  0.22930  Biso   1.000  C
  H174     1.0000 0.40520  0.30190  0.22710  Biso   1.000  H
  C249     1.0000 0.35827  0.21662  0.30860  Biso   1.000  C
  H175     1.0000 0.33390  0.20620  0.36160  Biso   1.000  H
  C250     1.0000 0.38578  0.18771  0.23700  Biso   1.000  C
  H176     1.0000 0.38000  0.15870  0.24250  Biso   1.000  H
  C251     1.0000 0.40809  0.11215  0.99970  Biso   1.000  C
  C252     1.0000 0.37978  0.12489  0.87750  Biso   1.000  C
  H177     1.0000 0.38590  0.14730  0.80370  Biso   1.000  H
  C253     1.0000 0.34167  0.10297  0.86860  Biso   1.000  C
  H178     1.0000 0.32150  0.11010  0.78650  Biso   1.000  H
  C254     1.0000 0.33389  0.07096  0.98040  Biso   1.000  C
  H179     1.0000 0.30810  0.05630  0.97730  Biso   1.000  H
  C255     1.0000 0.36429  0.06049  0.09740  Biso   1.000  C
  H180     1.0000 0.35890  0.03810  0.17210  Biso   1.000  H
  Ag16     1.0000 0.95053  0.56390  0.82647  Biso   1.000  Ag
  N91      1.0000 0.02539  0.50126  0.26380  Biso   1.000  N
  N92      1.0000 0.01663  0.64850  0.51830  Biso   1.000  N
  N93      1.0000 0.99535  0.68303  0.58180  Biso   1.000  N
  N94      1.0000 0.94786  0.63425  0.51850  Biso   1.000  N
  N95      1.0000 0.86437  0.75853  0.80680  Biso   1.000  N
  N96      1.0000 0.90148  0.58095  0.60920  Biso   1.000  N
  C256     1.0000 0.03762  0.55955  0.44970  Biso   1.000  C
  H181     1.0000 0.05530  0.57280  0.52860  Biso   1.000  H
  C257     1.0000 0.04945  0.52243  0.37710  Biso   1.000  C
  H182     1.0000 0.07570  0.51090  0.40710  Biso   1.000  H
  C258     1.0000 0.98801  0.51859  0.22500  Biso   1.000  C
  H183     1.0000 0.97060  0.50420  0.14820  Biso   1.000  H
  C259     1.0000 0.97360  0.55637  0.29130  Biso   1.000  C
  H184     1.0000 0.94720  0.56730  0.25930  Biso   1.000  H
  C260     1.0000 0.99880  0.57787  0.40600  Biso   1.000  C
  C261     1.0000 0.98819  0.61923  0.48050  Biso   1.000  C
  C262     1.0000 0.95442  0.67423  0.58310  Biso   1.000  C
  C263     1.0000 0.92235  0.70247  0.65620  Biso   1.000  C
  C264     1.0000 0.92916  0.74610  0.65360  Biso   1.000  C
  H185     1.0000 0.95330  0.75730  0.60100  Biso   1.000  H
  C265     1.0000 0.90005  0.77266  0.72930  Biso   1.000  C
  H186     1.0000 0.90520  0.80190  0.72710  Biso   1.000  H
  C266     1.0000 0.85827  0.71662  0.80860  Biso   1.000  C
  H187     1.0000 0.83390  0.70620  0.86160  Biso   1.000  H
  C267     1.0000 0.88578  0.68771  0.73700  Biso   1.000  C
  H188     1.0000 0.88000  0.65870  0.74250  Biso   1.000  H
  C268     1.0000 0.90809  0.61215  0.49970  Biso   1.000  C
  C269     1.0000 0.87978  0.62489  0.37750  Biso   1.000  C
  H189     1.0000 0.88590  0.64730  0.30370  Biso   1.000  H
  C270     1.0000 0.84167  0.60297  0.36860  Biso   1.000  C
  H190     1.0000 0.82150  0.61010  0.28650  Biso   1.000  H
  C271     1.0000 0.83389  0.57096  0.48040  Biso   1.000  C
  H191     1.0000 0.80810  0.55630  0.47730  Biso   1.000  H
  C272     1.0000 0.86429  0.56049  0.59740  Biso   1.000  C
  H192     1.0000 0.85890  0.53810  0.67210  Biso   1.000  H
