data_image0
_cell_length_a       31.065
_cell_length_b       31.065
_cell_length_c       8.0003
_cell_angle_alpha    90
_cell_angle_beta     90
_cell_angle_gamma    90

_symmetry_space_group_name_H-M    "P 1"
_symmetry_int_tables_number       1

loop_
  _symmetry_equiv_pos_as_xyz
  'x, y, z'

loop_
  _atom_site_label
  _atom_site_occupancy
  _atom_site_fract_x
  _atom_site_fract_y
  _atom_site_fract_z
  _atom_site_thermal_displace_type
  _atom_site_B_iso_or_equiv
  _atom_site_type_symbol
  Ag1      1.0000 0.18630  0.30562  0.08931  Biso   1.000  Ag
  N1       1.0000 0.98963  0.38574  0.06010  Biso   1.000  N
  N2       1.0000 0.06745  0.25558  0.83460  Biso   1.000  N
  N3       1.0000 0.10268  0.23472  0.76790  Biso   1.000  N
  N4       1.0000 0.11614  0.30411  0.77050  Biso   1.000  N
  N5       1.0000 0.25021  0.22621  0.51280  Biso   1.000  N
  N6       1.0000 0.17085  0.35119  0.84950  Biso   1.000  N
  C1       1.0000 0.06168  0.36492  0.99500  Biso   1.000  C
  H1       1.0000 0.09100  0.37050  0.00340  Biso   1.000  H
  C2       1.0000 0.03202  0.39243  0.06730  Biso   1.000  C
  H2       1.0000 0.04210  0.41660  0.12350  Biso   1.000  H
  C3       1.0000 0.97605  0.35063  0.97810  Biso   1.000  C
  H3       1.0000 0.94660  0.34560  0.97200  Biso   1.000  H
  C4       1.0000 0.00299  0.32187  0.90340  Biso   1.000  C
  H4       1.0000 0.99200  0.29780  0.84880  Biso   1.000  H
  C5       1.0000 0.04714  0.32899  0.91010  Biso   1.000  C
  C6       1.0000 0.07610  0.29673  0.83680  Biso   1.000  C
  C7       1.0000 0.13146  0.26412  0.73050  Biso   1.000  C
  C8       1.0000 0.17311  0.25339  0.65600  Biso   1.000  C
  C9       1.0000 0.19250  0.21533  0.70430  Biso   1.000  C
  H5       1.0000 0.17990  0.19820  0.78620  Biso   1.000  H
  C10      1.0000 0.23019  0.20310  0.63120  Biso   1.000  C
  H6       1.0000 0.24270  0.17730  0.66520  Biso   1.000  H
  C11      1.0000 0.23188  0.26336  0.46860  Biso   1.000  C
  H7       1.0000 0.24550  0.28010  0.38820  Biso   1.000  H
  C12      1.0000 0.19360  0.27819  0.53660  Biso   1.000  C
  H8       1.0000 0.18190  0.30430  0.50240  Biso   1.000  H
  C13      1.0000 0.13774  0.34479  0.75000  Biso   1.000  C
  C14      1.0000 0.19088  0.38904  0.83480  Biso   1.000  C
  H9       1.0000 0.21420  0.39460  0.90410  Biso   1.000  H
  C15      1.0000 0.17865  0.42007  0.72230  Biso   1.000  C
  H10      1.0000 0.19350  0.44600  0.71570  Biso   1.000  H
  C16      1.0000 0.14435  0.41228  0.62020  Biso   1.000  C
  H11      1.0000 0.13560  0.43280  0.54280  Biso   1.000  H
  C17      1.0000 0.12285  0.37358  0.63330  Biso   1.000  C
  H12      1.0000 0.09930  0.36730  0.56590  Biso   1.000  H
  Ag2      1.0000 0.68630  0.80562  0.58931  Biso   1.000  Ag
  N7       1.0000 0.48963  0.88574  0.56010  Biso   1.000  N
  N8       1.0000 0.56745  0.75558  0.33460  Biso   1.000  N
  N9       1.0000 0.60268  0.73472  0.26790  Biso   1.000  N
  N10      1.0000 0.61614  0.80411  0.27050  Biso   1.000  N
  N11      1.0000 0.75021  0.72621  0.01280  Biso   1.000  N
  N12      1.0000 0.67085  0.85119  0.34950  Biso   1.000  N
  C18      1.0000 0.56168  0.86492  0.49500  Biso   1.000  C
  H13      1.0000 0.59100  0.87050  0.50340  Biso   1.000  H
  C19      1.0000 0.53202  0.89243  0.56730  Biso   1.000  C
  H14      1.0000 0.54210  0.91660  0.62350  Biso   1.000  H
  C20      1.0000 0.47605  0.85063  0.47810  Biso   1.000  C
  H15      1.0000 0.44660  0.84560  0.47200  Biso   1.000  H
  C21      1.0000 0.50299  0.82187  0.40340  Biso   1.000  C
  H16      1.0000 0.49200  0.79780  0.34880  Biso   1.000  H
  C22      1.0000 0.54714  0.82899  0.41010  Biso   1.000  C
  C23      1.0000 0.57610  0.79673  0.33680  Biso   1.000  C
  C24      1.0000 0.63146  0.76412  0.23050  Biso   1.000  C
  C25      1.0000 0.67311  0.75339  0.15600  Biso   1.000  C
  C26      1.0000 0.69250  0.71533  0.20430  Biso   1.000  C
  H17      1.0000 0.67990  0.69820  0.28620  Biso   1.000  H
  C27      1.0000 0.73019  0.70310  0.13120  Biso   1.000  C
  H18      1.0000 0.74270  0.67730  0.16520  Biso   1.000  H
  C28      1.0000 0.73188  0.76336  0.96860  Biso   1.000  C
  H19      1.0000 0.74550  0.78010  0.88820  Biso   1.000  H
  C29      1.0000 0.69360  0.77819  0.03660  Biso   1.000  C
  H20      1.0000 0.68190  0.80430  0.00240  Biso   1.000  H
  C30      1.0000 0.63774  0.84479  0.25000  Biso   1.000  C
  C31      1.0000 0.69088  0.88904  0.33480  Biso   1.000  C
  H21      1.0000 0.71420  0.89460  0.40410  Biso   1.000  H
  C32      1.0000 0.67865  0.92007  0.22230  Biso   1.000  C
  H22      1.0000 0.69350  0.94600  0.21570  Biso   1.000  H
  C33      1.0000 0.64435  0.91228  0.12020  Biso   1.000  C
  H23      1.0000 0.63560  0.93280  0.04280  Biso   1.000  H
  C34      1.0000 0.62285  0.87358  0.13330  Biso   1.000  C
  H24      1.0000 0.59930  0.86730  0.06590  Biso   1.000  H
  Ag3      1.0000 0.31370  0.69438  0.58931  Biso   1.000  Ag
  N13      1.0000 0.51037  0.61426  0.56010  Biso   1.000  N
  N14      1.0000 0.43255  0.74442  0.33460  Biso   1.000  N
  N15      1.0000 0.39732  0.76528  0.26790  Biso   1.000  N
  N16      1.0000 0.38386  0.69589  0.27050  Biso   1.000  N
  N17      1.0000 0.24979  0.77379  0.01280  Biso   1.000  N
  N18      1.0000 0.32915  0.64881  0.34950  Biso   1.000  N
  C35      1.0000 0.43832  0.63508  0.49500  Biso   1.000  C
  H25      1.0000 0.40900  0.62950  0.50340  Biso   1.000  H
  C36      1.0000 0.46798  0.60757  0.56730  Biso   1.000  C
  H26      1.0000 0.45790  0.58340  0.62350  Biso   1.000  H
  C37      1.0000 0.52395  0.64937  0.47810  Biso   1.000  C
  H27      1.0000 0.55340  0.65440  0.47200  Biso   1.000  H
  C38      1.0000 0.49701  0.67813  0.40340  Biso   1.000  C
  H28      1.0000 0.50800  0.70220  0.34880  Biso   1.000  H
  C39      1.0000 0.45286  0.67101  0.41010  Biso   1.000  C
  C40      1.0000 0.42390  0.70327  0.33680  Biso   1.000  C
  C41      1.0000 0.36854  0.73588  0.23050  Biso   1.000  C
  C42      1.0000 0.32689  0.74661  0.15600  Biso   1.000  C
  C43      1.0000 0.30750  0.78467  0.20430  Biso   1.000  C
  H29      1.0000 0.32010  0.80180  0.28620  Biso   1.000  H
  C44      1.0000 0.26981  0.79690  0.13120  Biso   1.000  C
  H30      1.0000 0.25730  0.82270  0.16520  Biso   1.000  H
  C45      1.0000 0.26812  0.73664  0.96860  Biso   1.000  C
  H31      1.0000 0.25450  0.71990  0.88820  Biso   1.000  H
  C46      1.0000 0.30640  0.72181  0.03660  Biso   1.000  C
  H32      1.0000 0.31810  0.69570  0.00240  Biso   1.000  H
  C47      1.0000 0.36226  0.65521  0.25000  Biso   1.000  C
  C48      1.0000 0.30912  0.61096  0.33480  Biso   1.000  C
  H33      1.0000 0.28580  0.60540  0.40410  Biso   1.000  H
  C49      1.0000 0.32135  0.57993  0.22230  Biso   1.000  C
  H34      1.0000 0.30650  0.55400  0.21570  Biso   1.000  H
  C50      1.0000 0.35565  0.58772  0.12020  Biso   1.000  C
  H35      1.0000 0.36440  0.56720  0.04280  Biso   1.000  H
  C51      1.0000 0.37715  0.62642  0.13330  Biso   1.000  C
  H36      1.0000 0.40070  0.63270  0.06590  Biso   1.000  H
  Ag4      1.0000 0.81370  0.19438  0.08931  Biso   1.000  Ag
  N19      1.0000 0.01037  0.11426  0.06010  Biso   1.000  N
  N20      1.0000 0.93255  0.24442  0.83460  Biso   1.000  N
  N21      1.0000 0.89732  0.26528  0.76790  Biso   1.000  N
  N22      1.0000 0.88386  0.19589  0.77050  Biso   1.000  N
  N23      1.0000 0.74979  0.27379  0.51280  Biso   1.000  N
  N24      1.0000 0.82915  0.14881  0.84950  Biso   1.000  N
  C52      1.0000 0.93832  0.13508  0.99500  Biso   1.000  C
  H37      1.0000 0.90900  0.12950  0.00340  Biso   1.000  H
  C53      1.0000 0.96798  0.10757  0.06730  Biso   1.000  C
  H38      1.0000 0.95790  0.08340  0.12350  Biso   1.000  H
  C54      1.0000 0.02395  0.14937  0.97810  Biso   1.000  C
  H39      1.0000 0.05340  0.15440  0.97200  Biso   1.000  H
  C55      1.0000 0.99701  0.17813  0.90340  Biso   1.000  C
  H40      1.0000 0.00800  0.20220  0.84880  Biso   1.000  H
  C56      1.0000 0.95286  0.17101  0.91010  Biso   1.000  C
  C57      1.0000 0.92390  0.20327  0.83680  Biso   1.000  C
  C58      1.0000 0.86854  0.23588  0.73050  Biso   1.000  C
  C59      1.0000 0.82689  0.24661  0.65600  Biso   1.000  C
  C60      1.0000 0.80750  0.28467  0.70430  Biso   1.000  C
  H41      1.0000 0.82010  0.30180  0.78620  Biso   1.000  H
  C61      1.0000 0.76981  0.29690  0.63120  Biso   1.000  C
  H42      1.0000 0.75730  0.32270  0.66520  Biso   1.000  H
  C62      1.0000 0.76812  0.23664  0.46860  Biso   1.000  C
  H43      1.0000 0.75450  0.21990  0.38820  Biso   1.000  H
  C63      1.0000 0.80640  0.22181  0.53660  Biso   1.000  C
  H44      1.0000 0.81810  0.19570  0.50240  Biso   1.000  H
  C64      1.0000 0.86226  0.15521  0.75000  Biso   1.000  C
  C65      1.0000 0.80912  0.11096  0.83480  Biso   1.000  C
  H45      1.0000 0.78580  0.10540  0.90410  Biso   1.000  H
  C66      1.0000 0.82135  0.07993  0.72230  Biso   1.000  C
  H46      1.0000 0.80650  0.05400  0.71570  Biso   1.000  H
  C67      1.0000 0.85565  0.08772  0.62020  Biso   1.000  C
  H47      1.0000 0.86440  0.06720  0.54280  Biso   1.000  H
  C68      1.0000 0.87715  0.12642  0.63330  Biso   1.000  C
  H48      1.0000 0.90070  0.13270  0.56590  Biso   1.000  H
  Ag5      1.0000 0.44438  0.43630  0.33931  Biso   1.000  Ag
  N25      1.0000 0.36426  0.23963  0.31010  Biso   1.000  N
  N26      1.0000 0.49442  0.31745  0.08460  Biso   1.000  N
  N27      1.0000 0.51528  0.35268  0.01790  Biso   1.000  N
  N28      1.0000 0.44589  0.36614  0.02050  Biso   1.000  N
  N29      1.0000 0.52379  0.50021  0.76280  Biso   1.000  N
  N30      1.0000 0.39881  0.42085  0.09950  Biso   1.000  N
  C69      1.0000 0.38508  0.31168  0.24500  Biso   1.000  C
  H49      1.0000 0.37950  0.34100  0.25340  Biso   1.000  H
  C70      1.0000 0.35757  0.28202  0.31730  Biso   1.000  C
  H50      1.0000 0.33340  0.29210  0.37350  Biso   1.000  H
  C71      1.0000 0.39937  0.22605  0.22810  Biso   1.000  C
  H51      1.0000 0.40440  0.19660  0.22200  Biso   1.000  H
  C72      1.0000 0.42813  0.25299  0.15340  Biso   1.000  C
  H52      1.0000 0.45220  0.24200  0.09880  Biso   1.000  H
  C73      1.0000 0.42101  0.29714  0.16010  Biso   1.000  C
  C74      1.0000 0.45327  0.32610  0.08680  Biso   1.000  C
  C75      1.0000 0.48588  0.38146  0.98050  Biso   1.000  C
  C76      1.0000 0.49661  0.42311  0.90600  Biso   1.000  C
  C77      1.0000 0.53467  0.44250  0.95430  Biso   1.000  C
  H53      1.0000 0.55180  0.42990  0.03620  Biso   1.000  H
  C78      1.0000 0.54690  0.48019  0.88120  Biso   1.000  C
  H54      1.0000 0.57270  0.49270  0.91520  Biso   1.000  H
  C79      1.0000 0.48664  0.48188  0.71860  Biso   1.000  C
  H55      1.0000 0.46990  0.49550  0.63820  Biso   1.000  H
  C80      1.0000 0.47181  0.44360  0.78660  Biso   1.000  C
  H56      1.0000 0.44570  0.43190  0.75240  Biso   1.000  H
  C81      1.0000 0.40521  0.38774  0.00000  Biso   1.000  C
  C82      1.0000 0.36096  0.44088  0.08480  Biso   1.000  C
  H57      1.0000 0.35540  0.46420  0.15410  Biso   1.000  H
  C83      1.0000 0.32993  0.42865  0.97230  Biso   1.000  C
  H58      1.0000 0.30400  0.44350  0.96570  Biso   1.000  H
  C84      1.0000 0.33772  0.39435  0.87020  Biso   1.000  C
  H59      1.0000 0.31720  0.38560  0.79280  Biso   1.000  H
  C85      1.0000 0.37642  0.37285  0.88330  Biso   1.000  C
  H60      1.0000 0.38270  0.34930  0.81590  Biso   1.000  H
  Ag6      1.0000 0.94438  0.93630  0.83931  Biso   1.000  Ag
  N31      1.0000 0.86426  0.73963  0.81010  Biso   1.000  N
  N32      1.0000 0.99442  0.81745  0.58460  Biso   1.000  N
  N33      1.0000 0.01528  0.85268  0.51790  Biso   1.000  N
  N34      1.0000 0.94589  0.86614  0.52050  Biso   1.000  N
  N35      1.0000 0.02379  0.00021  0.26280  Biso   1.000  N
  N36      1.0000 0.89881  0.92085  0.59950  Biso   1.000  N
  C86      1.0000 0.88508  0.81168  0.74500  Biso   1.000  C
  H61      1.0000 0.87950  0.84100  0.75340  Biso   1.000  H
  C87      1.0000 0.85757  0.78202  0.81730  Biso   1.000  C
  H62      1.0000 0.83340  0.79210  0.87350  Biso   1.000  H
  C88      1.0000 0.89937  0.72605  0.72810  Biso   1.000  C
  H63      1.0000 0.90440  0.69660  0.72200  Biso   1.000  H
  C89      1.0000 0.92813  0.75299  0.65340  Biso   1.000  C
  H64      1.0000 0.95220  0.74200  0.59880  Biso   1.000  H
  C90      1.0000 0.92101  0.79714  0.66010  Biso   1.000  C
  C91      1.0000 0.95327  0.82610  0.58680  Biso   1.000  C
  C92      1.0000 0.98588  0.88146  0.48050  Biso   1.000  C
  C93      1.0000 0.99661  0.92311  0.40600  Biso   1.000  C
  C94      1.0000 0.03467  0.94250  0.45430  Biso   1.000  C
  H65      1.0000 0.05180  0.92990  0.53620  Biso   1.000  H
  C95      1.0000 0.04690  0.98019  0.38120  Biso   1.000  C
  H66      1.0000 0.07270  0.99270  0.41520  Biso   1.000  H
  C96      1.0000 0.98664  0.98188  0.21860  Biso   1.000  C
  H67      1.0000 0.96990  0.99550  0.13820  Biso   1.000  H
  C97      1.0000 0.97181  0.94360  0.28660  Biso   1.000  C
  H68      1.0000 0.94570  0.93190  0.25240  Biso   1.000  H
  C98      1.0000 0.90521  0.88774  0.50000  Biso   1.000  C
  C99      1.0000 0.86096  0.94088  0.58480  Biso   1.000  C
  H69      1.0000 0.85540  0.96420  0.65410  Biso   1.000  H
  C100     1.0000 0.82993  0.92865  0.47230  Biso   1.000  C
  H70      1.0000 0.80400  0.94350  0.46570  Biso   1.000  H
  C101     1.0000 0.83772  0.89435  0.37020  Biso   1.000  C
  H71      1.0000 0.81720  0.88560  0.29280  Biso   1.000  H
  C102     1.0000 0.87642  0.87285  0.38330  Biso   1.000  C
  H72      1.0000 0.88270  0.84930  0.31590  Biso   1.000  H
  Ag7      1.0000 0.05562  0.56370  0.83931  Biso   1.000  Ag
  N37      1.0000 0.13574  0.76037  0.81010  Biso   1.000  N
  N38      1.0000 0.00558  0.68255  0.58460  Biso   1.000  N
  N39      1.0000 0.98472  0.64732  0.51790  Biso   1.000  N
  N40      1.0000 0.05411  0.63386  0.52050  Biso   1.000  N
  N41      1.0000 0.97621  0.49979  0.26280  Biso   1.000  N
  N42      1.0000 0.10119  0.57915  0.59950  Biso   1.000  N
  C103     1.0000 0.11492  0.68832  0.74500  Biso   1.000  C
  H73      1.0000 0.12050  0.65900  0.75340  Biso   1.000  H
  C104     1.0000 0.14243  0.71798  0.81730  Biso   1.000  C
  H74      1.0000 0.16660  0.70790  0.87350  Biso   1.000  H
  C105     1.0000 0.10063  0.77395  0.72810  Biso   1.000  C
  H75      1.0000 0.09560  0.80340  0.72200  Biso   1.000  H
  C106     1.0000 0.07187  0.74701  0.65340  Biso   1.000  C
  H76      1.0000 0.04780  0.75800  0.59880  Biso   1.000  H
  C107     1.0000 0.07899  0.70286  0.66010  Biso   1.000  C
  C108     1.0000 0.04673  0.67390  0.58680  Biso   1.000  C
  C109     1.0000 0.01412  0.61854  0.48050  Biso   1.000  C
  C110     1.0000 0.00339  0.57689  0.40600  Biso   1.000  C
  C111     1.0000 0.96533  0.55750  0.45430  Biso   1.000  C
  H77      1.0000 0.94820  0.57010  0.53620  Biso   1.000  H
  C112     1.0000 0.95310  0.51981  0.38120  Biso   1.000  C
  H78      1.0000 0.92730  0.50730  0.41520  Biso   1.000  H
  C113     1.0000 0.01336  0.51812  0.21860  Biso   1.000  C
  H79      1.0000 0.03010  0.50450  0.13820  Biso   1.000  H
  C114     1.0000 0.02819  0.55640  0.28660  Biso   1.000  C
  H80      1.0000 0.05430  0.56810  0.25240  Biso   1.000  H
  C115     1.0000 0.09479  0.61226  0.50000  Biso   1.000  C
  C116     1.0000 0.13904  0.55912  0.58480  Biso   1.000  C
  H81      1.0000 0.14460  0.53580  0.65410  Biso   1.000  H
  C117     1.0000 0.17007  0.57135  0.47230  Biso   1.000  C
  H82      1.0000 0.19600  0.55650  0.46570  Biso   1.000  H
  C118     1.0000 0.16228  0.60565  0.37020  Biso   1.000  C
  H83      1.0000 0.18280  0.61440  0.29280  Biso   1.000  H
  C119     1.0000 0.12358  0.62715  0.38330  Biso   1.000  C
  H84      1.0000 0.11730  0.65070  0.31590  Biso   1.000  H
  Ag8      1.0000 0.55562  0.06370  0.33931  Biso   1.000  Ag
  N43      1.0000 0.63574  0.26037  0.31010  Biso   1.000  N
  N44      1.0000 0.50558  0.18255  0.08460  Biso   1.000  N
  N45      1.0000 0.48472  0.14732  0.01790  Biso   1.000  N
  N46      1.0000 0.55411  0.13386  0.02050  Biso   1.000  N
  N47      1.0000 0.47621  0.99979  0.76280  Biso   1.000  N
  N48      1.0000 0.60119  0.07915  0.09950  Biso   1.000  N
  C120     1.0000 0.61492  0.18832  0.24500  Biso   1.000  C
  H85      1.0000 0.62050  0.15900  0.25340  Biso   1.000  H
  C121     1.0000 0.64243  0.21798  0.31730  Biso   1.000  C
  H86      1.0000 0.66660  0.20790  0.37350  Biso   1.000  H
  C122     1.0000 0.60063  0.27395  0.22810  Biso   1.000  C
  H87      1.0000 0.59560  0.30340  0.22200  Biso   1.000  H
  C123     1.0000 0.57187  0.24701  0.15340  Biso   1.000  C
  H88      1.0000 0.54780  0.25800  0.09880  Biso   1.000  H
  C124     1.0000 0.57899  0.20286  0.16010  Biso   1.000  C
  C125     1.0000 0.54673  0.17390  0.08680  Biso   1.000  C
  C126     1.0000 0.51412  0.11854  0.98050  Biso   1.000  C
  C127     1.0000 0.50339  0.07689  0.90600  Biso   1.000  C
  C128     1.0000 0.46533  0.05750  0.95430  Biso   1.000  C
  H89      1.0000 0.44820  0.07010  0.03620  Biso   1.000  H
  C129     1.0000 0.45310  0.01981  0.88120  Biso   1.000  C
  H90      1.0000 0.42730  0.00730  0.91520  Biso   1.000  H
  C130     1.0000 0.51336  0.01812  0.71860  Biso   1.000  C
  H91      1.0000 0.53010  0.00450  0.63820  Biso   1.000  H
  C131     1.0000 0.52819  0.05640  0.78660  Biso   1.000  C
  H92      1.0000 0.55430  0.06810  0.75240  Biso   1.000  H
  C132     1.0000 0.59479  0.11226  0.00000  Biso   1.000  C
  C133     1.0000 0.63904  0.05912  0.08480  Biso   1.000  C
  H93      1.0000 0.64460  0.03580  0.15410  Biso   1.000  H
  C134     1.0000 0.67007  0.07135  0.97230  Biso   1.000  C
  H94      1.0000 0.69600  0.05650  0.96570  Biso   1.000  H
  C135     1.0000 0.66228  0.10565  0.87020  Biso   1.000  C
  H95      1.0000 0.68280  0.11440  0.79280  Biso   1.000  H
  C136     1.0000 0.62358  0.12715  0.88330  Biso   1.000  C
  H96      1.0000 0.61730  0.15070  0.81590  Biso   1.000  H
  Ag9      1.0000 0.81370  0.69438  0.91069  Biso   1.000  Ag
  N49      1.0000 0.01037  0.61426  0.93990  Biso   1.000  N
  N50      1.0000 0.93255  0.74442  0.16540  Biso   1.000  N
  N51      1.0000 0.89732  0.76528  0.23210  Biso   1.000  N
  N52      1.0000 0.88386  0.69589  0.22950  Biso   1.000  N
  N53      1.0000 0.74979  0.77379  0.48720  Biso   1.000  N
  N54      1.0000 0.82915  0.64881  0.15050  Biso   1.000  N
  C137     1.0000 0.93832  0.63508  0.00500  Biso   1.000  C
  H97      1.0000 0.90900  0.62950  0.99660  Biso   1.000  H
  C138     1.0000 0.96798  0.60757  0.93270  Biso   1.000  C
  H98      1.0000 0.95790  0.58340  0.87650  Biso   1.000  H
  C139     1.0000 0.02395  0.64937  0.02190  Biso   1.000  C
  H99      1.0000 0.05340  0.65440  0.02800  Biso   1.000  H
  C140     1.0000 0.99701  0.67813  0.09660  Biso   1.000  C
  H100     1.0000 0.00800  0.70220  0.15120  Biso   1.000  H
  C141     1.0000 0.95286  0.67101  0.08990  Biso   1.000  C
  C142     1.0000 0.92390  0.70327  0.16320  Biso   1.000  C
  C143     1.0000 0.86854  0.73588  0.26950  Biso   1.000  C
  C144     1.0000 0.82689  0.74661  0.34400  Biso   1.000  C
  C145     1.0000 0.80750  0.78467  0.29570  Biso   1.000  C
  H101     1.0000 0.82010  0.80180  0.21380  Biso   1.000  H
  C146     1.0000 0.76981  0.79690  0.36880  Biso   1.000  C
  H102     1.0000 0.75730  0.82270  0.33480  Biso   1.000  H
  C147     1.0000 0.76812  0.73664  0.53140  Biso   1.000  C
  H103     1.0000 0.75450  0.71990  0.61180  Biso   1.000  H
  C148     1.0000 0.80640  0.72181  0.46340  Biso   1.000  C
  H104     1.0000 0.81810  0.69570  0.49760  Biso   1.000  H
  C149     1.0000 0.86226  0.65521  0.25000  Biso   1.000  C
  C150     1.0000 0.80912  0.61096  0.16520  Biso   1.000  C
  H105     1.0000 0.78580  0.60540  0.09590  Biso   1.000  H
  C151     1.0000 0.82135  0.57993  0.27770  Biso   1.000  C
  H106     1.0000 0.80650  0.55400  0.28430  Biso   1.000  H
  C152     1.0000 0.85565  0.58772  0.37980  Biso   1.000  C
  H107     1.0000 0.86440  0.56720  0.45720  Biso   1.000  H
  C153     1.0000 0.87715  0.62642  0.36670  Biso   1.000  C
  H108     1.0000 0.90070  0.63270  0.43410  Biso   1.000  H
  Ag10     1.0000 0.31370  0.19438  0.41069  Biso   1.000  Ag
  N55      1.0000 0.51037  0.11426  0.43990  Biso   1.000  N
  N56      1.0000 0.43255  0.24442  0.66540  Biso   1.000  N
  N57      1.0000 0.39732  0.26528  0.73210  Biso   1.000  N
  N58      1.0000 0.38386  0.19589  0.72950  Biso   1.000  N
  N59      1.0000 0.24979  0.27379  0.98720  Biso   1.000  N
  N60      1.0000 0.32915  0.14881  0.65050  Biso   1.000  N
  C154     1.0000 0.43832  0.13508  0.50500  Biso   1.000  C
  H109     1.0000 0.40900  0.12950  0.49660  Biso   1.000  H
  C155     1.0000 0.46798  0.10757  0.43270  Biso   1.000  C
  H110     1.0000 0.45790  0.08340  0.37650  Biso   1.000  H
  C156     1.0000 0.52395  0.14937  0.52190  Biso   1.000  C
  H111     1.0000 0.55340  0.15440  0.52800  Biso   1.000  H
  C157     1.0000 0.49701  0.17813  0.59660  Biso   1.000  C
  H112     1.0000 0.50800  0.20220  0.65120  Biso   1.000  H
  C158     1.0000 0.45286  0.17101  0.58990  Biso   1.000  C
  C159     1.0000 0.42390  0.20327  0.66320  Biso   1.000  C
  C160     1.0000 0.36854  0.23588  0.76950  Biso   1.000  C
  C161     1.0000 0.32689  0.24661  0.84400  Biso   1.000  C
  C162     1.0000 0.30750  0.28467  0.79570  Biso   1.000  C
  H113     1.0000 0.32010  0.30180  0.71380  Biso   1.000  H
  C163     1.0000 0.26981  0.29690  0.86880  Biso   1.000  C
  H114     1.0000 0.25730  0.32270  0.83480  Biso   1.000  H
  C164     1.0000 0.26812  0.23664  0.03140  Biso   1.000  C
  H115     1.0000 0.25450  0.21990  0.11180  Biso   1.000  H
  C165     1.0000 0.30640  0.22181  0.96340  Biso   1.000  C
  H116     1.0000 0.31810  0.19570  0.99760  Biso   1.000  H
  C166     1.0000 0.36226  0.15521  0.75000  Biso   1.000  C
  C167     1.0000 0.30912  0.11096  0.66520  Biso   1.000  C
  H117     1.0000 0.28580  0.10540  0.59590  Biso   1.000  H
  C168     1.0000 0.32135  0.07993  0.77770  Biso   1.000  C
  H118     1.0000 0.30650  0.05400  0.78430  Biso   1.000  H
  C169     1.0000 0.35565  0.08772  0.87980  Biso   1.000  C
  H119     1.0000 0.36440  0.06720  0.95720  Biso   1.000  H
  C170     1.0000 0.37715  0.12642  0.86670  Biso   1.000  C
  H120     1.0000 0.40070  0.13270  0.93410  Biso   1.000  H
  Ag11     1.0000 0.68630  0.30562  0.41069  Biso   1.000  Ag
  N61      1.0000 0.48963  0.38574  0.43990  Biso   1.000  N
  N62      1.0000 0.56745  0.25558  0.66540  Biso   1.000  N
  N63      1.0000 0.60268  0.23472  0.73210  Biso   1.000  N
  N64      1.0000 0.61614  0.30411  0.72950  Biso   1.000  N
  N65      1.0000 0.75021  0.22621  0.98720  Biso   1.000  N
  N66      1.0000 0.67085  0.35119  0.65050  Biso   1.000  N
  C171     1.0000 0.56168  0.36492  0.50500  Biso   1.000  C
  H121     1.0000 0.59100  0.37050  0.49660  Biso   1.000  H
  C172     1.0000 0.53202  0.39243  0.43270  Biso   1.000  C
  H122     1.0000 0.54210  0.41660  0.37650  Biso   1.000  H
  C173     1.0000 0.47605  0.35063  0.52190  Biso   1.000  C
  H123     1.0000 0.44660  0.34560  0.52800  Biso   1.000  H
  C174     1.0000 0.50299  0.32187  0.59660  Biso   1.000  C
  H124     1.0000 0.49200  0.29780  0.65120  Biso   1.000  H
  C175     1.0000 0.54714  0.32899  0.58990  Biso   1.000  C
  C176     1.0000 0.57610  0.29673  0.66320  Biso   1.000  C
  C177     1.0000 0.63146  0.26412  0.76950  Biso   1.000  C
  C178     1.0000 0.67311  0.25339  0.84400  Biso   1.000  C
  C179     1.0000 0.69250  0.21533  0.79570  Biso   1.000  C
  H125     1.0000 0.67990  0.19820  0.71380  Biso   1.000  H
  C180     1.0000 0.73019  0.20310  0.86880  Biso   1.000  C
  H126     1.0000 0.74270  0.17730  0.83480  Biso   1.000  H
  C181     1.0000 0.73188  0.26336  0.03140  Biso   1.000  C
  H127     1.0000 0.74550  0.28010  0.11180  Biso   1.000  H
  C182     1.0000 0.69360  0.27819  0.96340  Biso   1.000  C
  H128     1.0000 0.68190  0.30430  0.99760  Biso   1.000  H
  C183     1.0000 0.63774  0.34479  0.75000  Biso   1.000  C
  C184     1.0000 0.69088  0.38904  0.66520  Biso   1.000  C
  H129     1.0000 0.71420  0.39460  0.59590  Biso   1.000  H
  C185     1.0000 0.67865  0.42007  0.77770  Biso   1.000  C
  H130     1.0000 0.69350  0.44600  0.78430  Biso   1.000  H
  C186     1.0000 0.64435  0.41228  0.87980  Biso   1.000  C
  H131     1.0000 0.63560  0.43280  0.95720  Biso   1.000  H
  C187     1.0000 0.62285  0.37358  0.86670  Biso   1.000  C
  H132     1.0000 0.59930  0.36730  0.93410  Biso   1.000  H
  Ag12     1.0000 0.18630  0.80562  0.91069  Biso   1.000  Ag
  N67      1.0000 0.98963  0.88574  0.93990  Biso   1.000  N
  N68      1.0000 0.06745  0.75558  0.16540  Biso   1.000  N
  N69      1.0000 0.10268  0.73472  0.23210  Biso   1.000  N
  N70      1.0000 0.11614  0.80411  0.22950  Biso   1.000  N
  N71      1.0000 0.25021  0.72621  0.48720  Biso   1.000  N
  N72      1.0000 0.17085  0.85119  0.15050  Biso   1.000  N
  C188     1.0000 0.06168  0.86492  0.00500  Biso   1.000  C
  H133     1.0000 0.09100  0.87050  0.99660  Biso   1.000  H
  C189     1.0000 0.03202  0.89243  0.93270  Biso   1.000  C
  H134     1.0000 0.04210  0.91660  0.87650  Biso   1.000  H
  C190     1.0000 0.97605  0.85063  0.02190  Biso   1.000  C
  H135     1.0000 0.94660  0.84560  0.02800  Biso   1.000  H
  C191     1.0000 0.00299  0.82187  0.09660  Biso   1.000  C
  H136     1.0000 0.99200  0.79780  0.15120  Biso   1.000  H
  C192     1.0000 0.04714  0.82899  0.08990  Biso   1.000  C
  C193     1.0000 0.07610  0.79673  0.16320  Biso   1.000  C
  C194     1.0000 0.13146  0.76412  0.26950  Biso   1.000  C
  C195     1.0000 0.17311  0.75339  0.34400  Biso   1.000  C
  C196     1.0000 0.19250  0.71533  0.29570  Biso   1.000  C
  H137     1.0000 0.17990  0.69820  0.21380  Biso   1.000  H
  C197     1.0000 0.23019  0.70310  0.36880  Biso   1.000  C
  H138     1.0000 0.24270  0.67730  0.33480  Biso   1.000  H
  C198     1.0000 0.23188  0.76336  0.53140  Biso   1.000  C
  H139     1.0000 0.24550  0.78010  0.61180  Biso   1.000  H
  C199     1.0000 0.19360  0.77819  0.46340  Biso   1.000  C
  H140     1.0000 0.18190  0.80430  0.49760  Biso   1.000  H
  C200     1.0000 0.13774  0.84479  0.25000  Biso   1.000  C
  C201     1.0000 0.19088  0.88904  0.16520  Biso   1.000  C
  H141     1.0000 0.21420  0.89460  0.09590  Biso   1.000  H
  C202     1.0000 0.17865  0.92007  0.27770  Biso   1.000  C
  H142     1.0000 0.19350  0.94600  0.28430  Biso   1.000  H
  C203     1.0000 0.14435  0.91228  0.37980  Biso   1.000  C
  H143     1.0000 0.13560  0.93280  0.45720  Biso   1.000  H
  C204     1.0000 0.12285  0.87358  0.36670  Biso   1.000  C
  H144     1.0000 0.09930  0.86730  0.43410  Biso   1.000  H
  Ag13     1.0000 0.55562  0.56370  0.66069  Biso   1.000  Ag
  N73      1.0000 0.63574  0.76037  0.68990  Biso   1.000  N
  N74      1.0000 0.50558  0.68255  0.91540  Biso   1.000  N
  N75      1.0000 0.48472  0.64732  0.98210  Biso   1.000  N
  N76      1.0000 0.55411  0.63386  0.97950  Biso   1.000  N
  N77      1.0000 0.47621  0.49979  0.23720  Biso   1.000  N
  N78      1.0000 0.60119  0.57915  0.90050  Biso   1.000  N
  C205     1.0000 0.61492  0.68832  0.75500  Biso   1.000  C
  H145     1.0000 0.62050  0.65900  0.74660  Biso   1.000  H
  C206     1.0000 0.64243  0.71798  0.68270  Biso   1.000  C
  H146     1.0000 0.66660  0.70790  0.62650  Biso   1.000  H
  C207     1.0000 0.60063  0.77395  0.77190  Biso   1.000  C
  H147     1.0000 0.59560  0.80340  0.77800  Biso   1.000  H
  C208     1.0000 0.57187  0.74701  0.84660  Biso   1.000  C
  H148     1.0000 0.54780  0.75800  0.90120  Biso   1.000  H
  C209     1.0000 0.57899  0.70286  0.83990  Biso   1.000  C
  C210     1.0000 0.54673  0.67390  0.91320  Biso   1.000  C
  C211     1.0000 0.51412  0.61854  0.01950  Biso   1.000  C
  C212     1.0000 0.50339  0.57689  0.09400  Biso   1.000  C
  C213     1.0000 0.46533  0.55750  0.04570  Biso   1.000  C
  H149     1.0000 0.44820  0.57010  0.96380  Biso   1.000  H
  C214     1.0000 0.45310  0.51981  0.11880  Biso   1.000  C
  H150     1.0000 0.42730  0.50730  0.08480  Biso   1.000  H
  C215     1.0000 0.51336  0.51812  0.28140  Biso   1.000  C
  H151     1.0000 0.53010  0.50450  0.36180  Biso   1.000  H
  C216     1.0000 0.52819  0.55640  0.21340  Biso   1.000  C
  H152     1.0000 0.55430  0.56810  0.24760  Biso   1.000  H
  C217     1.0000 0.59479  0.61226  0.00000  Biso   1.000  C
  C218     1.0000 0.63904  0.55912  0.91520  Biso   1.000  C
  H153     1.0000 0.64460  0.53580  0.84590  Biso   1.000  H
  C219     1.0000 0.67007  0.57135  0.02770  Biso   1.000  C
  H154     1.0000 0.69600  0.55650  0.03430  Biso   1.000  H
  C220     1.0000 0.66228  0.60565  0.12980  Biso   1.000  C
  H155     1.0000 0.68280  0.61440  0.20720  Biso   1.000  H
  C221     1.0000 0.62358  0.62715  0.11670  Biso   1.000  C
  H156     1.0000 0.61730  0.65070  0.18410  Biso   1.000  H
  Ag14     1.0000 0.05562  0.06370  0.16069  Biso   1.000  Ag
  N79      1.0000 0.13574  0.26037  0.18990  Biso   1.000  N
  N80      1.0000 0.00558  0.18255  0.41540  Biso   1.000  N
  N81      1.0000 0.98472  0.14732  0.48210  Biso   1.000  N
  N82      1.0000 0.05411  0.13386  0.47950  Biso   1.000  N
  N83      1.0000 0.97621  0.99979  0.73720  Biso   1.000  N
  N84      1.0000 0.10119  0.07915  0.40050  Biso   1.000  N
  C222     1.0000 0.11492  0.18832  0.25500  Biso   1.000  C
  H157     1.0000 0.12050  0.15900  0.24660  Biso   1.000  H
  C223     1.0000 0.14243  0.21798  0.18270  Biso   1.000  C
  H158     1.0000 0.16660  0.20790  0.12650  Biso   1.000  H
  C224     1.0000 0.10063  0.27395  0.27190  Biso   1.000  C
  H159     1.0000 0.09560  0.30340  0.27800  Biso   1.000  H
  C225     1.0000 0.07187  0.24701  0.34660  Biso   1.000  C
  H160     1.0000 0.04780  0.25800  0.40120  Biso   1.000  H
  C226     1.0000 0.07899  0.20286  0.33990  Biso   1.000  C
  C227     1.0000 0.04673  0.17390  0.41320  Biso   1.000  C
  C228     1.0000 0.01412  0.11854  0.51950  Biso   1.000  C
  C229     1.0000 0.00339  0.07689  0.59400  Biso   1.000  C
  C230     1.0000 0.96533  0.05750  0.54570  Biso   1.000  C
  H161     1.0000 0.94820  0.07010  0.46380  Biso   1.000  H
  C231     1.0000 0.95310  0.01981  0.61880  Biso   1.000  C
  H162     1.0000 0.92730  0.00730  0.58480  Biso   1.000  H
  C232     1.0000 0.01336  0.01812  0.78140  Biso   1.000  C
  H163     1.0000 0.03010  0.00450  0.86180  Biso   1.000  H
  C233     1.0000 0.02819  0.05640  0.71340  Biso   1.000  C
  H164     1.0000 0.05430  0.06810  0.74760  Biso   1.000  H
  C234     1.0000 0.09479  0.11226  0.50000  Biso   1.000  C
  C235     1.0000 0.13904  0.05912  0.41520  Biso   1.000  C
  H165     1.0000 0.14460  0.03580  0.34590  Biso   1.000  H
  C236     1.0000 0.17007  0.07135  0.52770  Biso   1.000  C
  H166     1.0000 0.19600  0.05650  0.53430  Biso   1.000  H
  C237     1.0000 0.16228  0.10565  0.62980  Biso   1.000  C
  H167     1.0000 0.18280  0.11440  0.70720  Biso   1.000  H
  C238     1.0000 0.12358  0.12715  0.61670  Biso   1.000  C
  H168     1.0000 0.11730  0.15070  0.68410  Biso   1.000  H
  Ag15     1.0000 0.94438  0.43630  0.16069  Biso   1.000  Ag
  N85      1.0000 0.86426  0.23963  0.18990  Biso   1.000  N
  N86      1.0000 0.99442  0.31745  0.41540  Biso   1.000  N
  N87      1.0000 0.01528  0.35268  0.48210  Biso   1.000  N
  N88      1.0000 0.94589  0.36614  0.47950  Biso   1.000  N
  N89      1.0000 0.02379  0.50021  0.73720  Biso   1.000  N
  N90      1.0000 0.89881  0.42085  0.40050  Biso   1.000  N
  C239     1.0000 0.88508  0.31168  0.25500  Biso   1.000  C
  H169     1.0000 0.87950  0.34100  0.24660  Biso   1.000  H
  C240     1.0000 0.85757  0.28202  0.18270  Biso   1.000  C
  H170     1.0000 0.83340  0.29210  0.12650  Biso   1.000  H
  C241     1.0000 0.89937  0.22605  0.27190  Biso   1.000  C
  H171     1.0000 0.90440  0.19660  0.27800  Biso   1.000  H
  C242     1.0000 0.92813  0.25299  0.34660  Biso   1.000  C
  H172     1.0000 0.95220  0.24200  0.40120  Biso   1.000  H
  C243     1.0000 0.92101  0.29714  0.33990  Biso   1.000  C
  C244     1.0000 0.95327  0.32610  0.41320  Biso   1.000  C
  C245     1.0000 0.98588  0.38146  0.51950  Biso   1.000  C
  C246     1.0000 0.99661  0.42311  0.59400  Biso   1.000  C
  C247     1.0000 0.03467  0.44250  0.54570  Biso   1.000  C
  H173     1.0000 0.05180  0.42990  0.46380  Biso   1.000  H
  C248     1.0000 0.04690  0.48019  0.61880  Biso   1.000  C
  H174     1.0000 0.07270  0.49270  0.58480  Biso   1.000  H
  C249     1.0000 0.98664  0.48188  0.78140  Biso   1.000  C
  H175     1.0000 0.96990  0.49550  0.86180  Biso   1.000  H
  C250     1.0000 0.97181  0.44360  0.71340  Biso   1.000  C
  H176     1.0000 0.94570  0.43190  0.74760  Biso   1.000  H
  C251     1.0000 0.90521  0.38774  0.50000  Biso   1.000  C
  C252     1.0000 0.86096  0.44088  0.41520  Biso   1.000  C
  H177     1.0000 0.85540  0.46420  0.34590  Biso   1.000  H
  C253     1.0000 0.82993  0.42865  0.52770  Biso   1.000  C
  H178     1.0000 0.80400  0.44350  0.53430  Biso   1.000  H
  C254     1.0000 0.83772  0.39435  0.62980  Biso   1.000  C
  H179     1.0000 0.81720  0.38560  0.70720  Biso   1.000  H
  C255     1.0000 0.87642  0.37285  0.61670  Biso   1.000  C
  H180     1.0000 0.88270  0.34930  0.68410  Biso   1.000  H
  Ag16     1.0000 0.44438  0.93630  0.66069  Biso   1.000  Ag
  N91      1.0000 0.36426  0.73963  0.68990  Biso   1.000  N
  N92      1.0000 0.49442  0.81745  0.91540  Biso   1.000  N
  N93      1.0000 0.51528  0.85268  0.98210  Biso   1.000  N
  N94      1.0000 0.44589  0.86614  0.97950  Biso   1.000  N
  N95      1.0000 0.52379  0.00021  0.23720  Biso   1.000  N
  N96      1.0000 0.39881  0.92085  0.90050  Biso   1.000  N
  C256     1.0000 0.38508  0.81168  0.75500  Biso   1.000  C
  H181     1.0000 0.37950  0.84100  0.74660  Biso   1.000  H
  C257     1.0000 0.35757  0.78202  0.68270  Biso   1.000  C
  H182     1.0000 0.33340  0.79210  0.62650  Biso   1.000  H
  C258     1.0000 0.39937  0.72605  0.77190  Biso   1.000  C
  H183     1.0000 0.40440  0.69660  0.77800  Biso   1.000  H
  C259     1.0000 0.42813  0.75299  0.84660  Biso   1.000  C
  H184     1.0000 0.45220  0.74200  0.90120  Biso   1.000  H
  C260     1.0000 0.42101  0.79714  0.83990  Biso   1.000  C
  C261     1.0000 0.45327  0.82610  0.91320  Biso   1.000  C
  C262     1.0000 0.48588  0.88146  0.01950  Biso   1.000  C
  C263     1.0000 0.49661  0.92311  0.09400  Biso   1.000  C
  C264     1.0000 0.53467  0.94250  0.04570  Biso   1.000  C
  H185     1.0000 0.55180  0.92990  0.96380  Biso   1.000  H
  C265     1.0000 0.54690  0.98019  0.11880  Biso   1.000  C
  H186     1.0000 0.57270  0.99270  0.08480  Biso   1.000  H
  C266     1.0000 0.48664  0.98188  0.28140  Biso   1.000  C
  H187     1.0000 0.46990  0.99550  0.36180  Biso   1.000  H
  C267     1.0000 0.47181  0.94360  0.21340  Biso   1.000  C
  H188     1.0000 0.44570  0.93190  0.24760  Biso   1.000  H
  C268     1.0000 0.40521  0.88774  0.00000  Biso   1.000  C
  C269     1.0000 0.36096  0.94088  0.91520  Biso   1.000  C
  H189     1.0000 0.35540  0.96420  0.84590  Biso   1.000  H
  C270     1.0000 0.32993  0.92865  0.02770  Biso   1.000  C
  H190     1.0000 0.30400  0.94350  0.03430  Biso   1.000  H
  C271     1.0000 0.33772  0.89435  0.12980  Biso   1.000  C
  H191     1.0000 0.31720  0.88560  0.20720  Biso   1.000  H
  C272     1.0000 0.37642  0.87285  0.11670  Biso   1.000  C
  H192     1.0000 0.38270  0.84930  0.18410  Biso   1.000  H
