data_image0
_cell_length_a       22.8131
_cell_length_b       22.8131
_cell_length_c       7.7879
_cell_angle_alpha    90
_cell_angle_beta     90
_cell_angle_gamma    90

_symmetry_space_group_name_H-M    "P 1"
_symmetry_int_tables_number       1

loop_
  _symmetry_equiv_pos_as_xyz
  'x, y, z'

loop_
  _atom_site_label
  _atom_site_occupancy
  _atom_site_fract_x
  _atom_site_fract_y
  _atom_site_fract_z
  _atom_site_thermal_displace_type
  _atom_site_B_iso_or_equiv
  _atom_site_type_symbol
  Ag1      1.0000 0.51168  0.62687  0.23171  Biso   1.000  Ag
  N1       1.0000 0.63006  0.89596  0.36200  Biso   1.000  N
  N2       1.0000 0.66760  0.63088  0.57310  Biso   1.000  N
  N3       1.0000 0.68126  0.68734  0.52390  Biso   1.000  N
  N4       1.0000 0.58650  0.68269  0.57630  Biso   1.000  N
  N5       1.0000 0.52690  0.46709  0.72110  Biso   1.000  N
  N6       1.0000 0.48732  0.67449  0.50410  Biso   1.000  N
  C1       1.0000 0.58070  0.80440  0.39600  Biso   1.000  C
  H1       1.0000 0.54700  0.78230  0.37860  Biso   1.000  H
  C2       1.0000 0.58260  0.86210  0.34520  Biso   1.000  C
  H2       1.0000 0.54910  0.87840  0.29660  Biso   1.000  H
  C3       1.0000 0.67740  0.87120  0.43230  Biso   1.000  C
  H3       1.0000 0.71130  0.89350  0.44220  Biso   1.000  H
  C4       1.0000 0.67860  0.81440  0.49070  Biso   1.000  C
  H4       1.0000 0.71230  0.79950  0.54180  Biso   1.000  H
  C5       1.0000 0.62918  0.77940  0.47290  Biso   1.000  C
  C6       1.0000 0.63280  0.71760  0.52710  Biso   1.000  C
  C7       1.0000 0.61110  0.62850  0.60250  Biso   1.000  C
  C8       1.0000 0.58050  0.57430  0.65040  Biso   1.000  C
  C9       1.0000 0.60320  0.52240  0.58810  Biso   1.000  C
  H5       1.0000 0.63690  0.52260  0.52090  Biso   1.000  H
  C10      1.0000 0.57560  0.47050  0.62600  Biso   1.000  C
  H6       1.0000 0.59170  0.43600  0.58350  Biso   1.000  H
  C11      1.0000 0.50580  0.51770  0.78280  Biso   1.000  C
  H7       1.0000 0.47240  0.51650  0.85090  Biso   1.000  H
  C12      1.0000 0.53100  0.57180  0.75080  Biso   1.000  C
  H8       1.0000 0.51480  0.60580  0.79630  Biso   1.000  H
  C13      1.0000 0.52683  0.70067  0.60270  Biso   1.000  C
  C14      1.0000 0.43140  0.69100  0.52690  Biso   1.000  C
  H9       1.0000 0.40250  0.67290  0.46130  Biso   1.000  H
  C15      1.0000 0.41500  0.73290  0.64140  Biso   1.000  C
  H10      1.0000 0.37570  0.74290  0.65320  Biso   1.000  H
  C16      1.0000 0.45670  0.76020  0.73940  Biso   1.000  C
  H11      1.0000 0.44620  0.78970  0.81600  Biso   1.000  H
  C17      1.0000 0.51450  0.74330  0.72240  Biso   1.000  C
  H12      1.0000 0.54390  0.76000  0.78920  Biso   1.000  H
  Ag2      1.0000 0.98832  0.87313  0.23171  Biso   1.000  Ag
  N7       1.0000 0.86994  0.60404  0.36200  Biso   1.000  N
  N8       1.0000 0.83240  0.86912  0.57310  Biso   1.000  N
  N9       1.0000 0.81874  0.81266  0.52390  Biso   1.000  N
  N10      1.0000 0.91350  0.81731  0.57630  Biso   1.000  N
  N11      1.0000 0.97310  0.03291  0.72110  Biso   1.000  N
  N12      1.0000 0.01268  0.82551  0.50410  Biso   1.000  N
  C18      1.0000 0.91930  0.69560  0.39600  Biso   1.000  C
  H13      1.0000 0.95300  0.71770  0.37860  Biso   1.000  H
  C19      1.0000 0.91740  0.63790  0.34520  Biso   1.000  C
  H14      1.0000 0.95090  0.62160  0.29660  Biso   1.000  H
  C20      1.0000 0.82260  0.62880  0.43230  Biso   1.000  C
  H15      1.0000 0.78870  0.60650  0.44220  Biso   1.000  H
  C21      1.0000 0.82140  0.68560  0.49070  Biso   1.000  C
  H16      1.0000 0.78770  0.70050  0.54180  Biso   1.000  H
  C22      1.0000 0.87082  0.72060  0.47290  Biso   1.000  C
  C23      1.0000 0.86720  0.78240  0.52710  Biso   1.000  C
  C24      1.0000 0.88890  0.87150  0.60250  Biso   1.000  C
  C25      1.0000 0.91950  0.92570  0.65040  Biso   1.000  C
  C26      1.0000 0.89680  0.97760  0.58810  Biso   1.000  C
  H17      1.0000 0.86310  0.97740  0.52090  Biso   1.000  H
  C27      1.0000 0.92440  0.02950  0.62600  Biso   1.000  C
  H18      1.0000 0.90830  0.06400  0.58350  Biso   1.000  H
  C28      1.0000 0.99420  0.98230  0.78280  Biso   1.000  C
  H19      1.0000 0.02760  0.98350  0.85090  Biso   1.000  H
  C29      1.0000 0.96900  0.92820  0.75080  Biso   1.000  C
  H20      1.0000 0.98520  0.89420  0.79630  Biso   1.000  H
  C30      1.0000 0.97317  0.79933  0.60270  Biso   1.000  C
  C31      1.0000 0.06860  0.80900  0.52690  Biso   1.000  C
  H21      1.0000 0.09750  0.82710  0.46130  Biso   1.000  H
  C32      1.0000 0.08500  0.76710  0.64140  Biso   1.000  C
  H22      1.0000 0.12430  0.75710  0.65320  Biso   1.000  H
  C33      1.0000 0.04330  0.73980  0.73940  Biso   1.000  C
  H23      1.0000 0.05380  0.71030  0.81600  Biso   1.000  H
  C34      1.0000 0.98550  0.75670  0.72240  Biso   1.000  C
  H24      1.0000 0.95610  0.74000  0.78920  Biso   1.000  H
  Ag3      1.0000 0.37313  0.01168  0.73171  Biso   1.000  Ag
  N13      1.0000 0.10404  0.13006  0.86200  Biso   1.000  N
  N14      1.0000 0.36912  0.16760  0.07310  Biso   1.000  N
  N15      1.0000 0.31266  0.18126  0.02390  Biso   1.000  N
  N16      1.0000 0.31731  0.08650  0.07630  Biso   1.000  N
  N17      1.0000 0.53291  0.02690  0.22110  Biso   1.000  N
  N18      1.0000 0.32551  0.98732  0.00410  Biso   1.000  N
  C35      1.0000 0.19560  0.08070  0.89600  Biso   1.000  C
  H25      1.0000 0.21770  0.04700  0.87860  Biso   1.000  H
  C36      1.0000 0.13790  0.08260  0.84520  Biso   1.000  C
  H26      1.0000 0.12160  0.04910  0.79660  Biso   1.000  H
  C37      1.0000 0.12880  0.17740  0.93230  Biso   1.000  C
  H27      1.0000 0.10650  0.21130  0.94220  Biso   1.000  H
  C38      1.0000 0.18560  0.17860  0.99070  Biso   1.000  C
  H28      1.0000 0.20050  0.21230  0.04180  Biso   1.000  H
  C39      1.0000 0.22060  0.12918  0.97290  Biso   1.000  C
  C40      1.0000 0.28240  0.13280  0.02710  Biso   1.000  C
  C41      1.0000 0.37150  0.11110  0.10250  Biso   1.000  C
  C42      1.0000 0.42570  0.08050  0.15040  Biso   1.000  C
  C43      1.0000 0.47760  0.10320  0.08810  Biso   1.000  C
  H29      1.0000 0.47740  0.13690  0.02090  Biso   1.000  H
  C44      1.0000 0.52950  0.07560  0.12600  Biso   1.000  C
  H30      1.0000 0.56400  0.09170  0.08350  Biso   1.000  H
  C45      1.0000 0.48230  0.00580  0.28280  Biso   1.000  C
  H31      1.0000 0.48350  0.97240  0.35090  Biso   1.000  H
  C46      1.0000 0.42820  0.03100  0.25080  Biso   1.000  C
  H32      1.0000 0.39420  0.01480  0.29630  Biso   1.000  H
  C47      1.0000 0.29933  0.02683  0.10270  Biso   1.000  C
  C48      1.0000 0.30900  0.93140  0.02690  Biso   1.000  C
  H33      1.0000 0.32710  0.90250  0.96130  Biso   1.000  H
  C49      1.0000 0.26710  0.91500  0.14140  Biso   1.000  C
  H34      1.0000 0.25710  0.87570  0.15320  Biso   1.000  H
  C50      1.0000 0.23980  0.95670  0.23940  Biso   1.000  C
  H35      1.0000 0.21030  0.94620  0.31600  Biso   1.000  H
  C51      1.0000 0.25670  0.01450  0.22240  Biso   1.000  C
  H36      1.0000 0.24000  0.04390  0.28920  Biso   1.000  H
  Ag4      1.0000 0.12687  0.48832  0.73171  Biso   1.000  Ag
  N19      1.0000 0.39596  0.36994  0.86200  Biso   1.000  N
  N20      1.0000 0.13088  0.33240  0.07310  Biso   1.000  N
  N21      1.0000 0.18734  0.31874  0.02390  Biso   1.000  N
  N22      1.0000 0.18269  0.41350  0.07630  Biso   1.000  N
  N23      1.0000 0.96709  0.47310  0.22110  Biso   1.000  N
  N24      1.0000 0.17449  0.51268  0.00410  Biso   1.000  N
  C52      1.0000 0.30440  0.41930  0.89600  Biso   1.000  C
  H37      1.0000 0.28230  0.45300  0.87860  Biso   1.000  H
  C53      1.0000 0.36210  0.41740  0.84520  Biso   1.000  C
  H38      1.0000 0.37840  0.45090  0.79660  Biso   1.000  H
  C54      1.0000 0.37120  0.32260  0.93230  Biso   1.000  C
  H39      1.0000 0.39350  0.28870  0.94220  Biso   1.000  H
  C55      1.0000 0.31440  0.32140  0.99070  Biso   1.000  C
  H40      1.0000 0.29950  0.28770  0.04180  Biso   1.000  H
  C56      1.0000 0.27940  0.37082  0.97290  Biso   1.000  C
  C57      1.0000 0.21760  0.36720  0.02710  Biso   1.000  C
  C58      1.0000 0.12850  0.38890  0.10250  Biso   1.000  C
  C59      1.0000 0.07430  0.41950  0.15040  Biso   1.000  C
  C60      1.0000 0.02240  0.39680  0.08810  Biso   1.000  C
  H41      1.0000 0.02260  0.36310  0.02090  Biso   1.000  H
  C61      1.0000 0.97050  0.42440  0.12600  Biso   1.000  C
  H42      1.0000 0.93600  0.40830  0.08350  Biso   1.000  H
  C62      1.0000 0.01770  0.49420  0.28280  Biso   1.000  C
  H43      1.0000 0.01650  0.52760  0.35090  Biso   1.000  H
  C63      1.0000 0.07180  0.46900  0.25080  Biso   1.000  C
  H44      1.0000 0.10580  0.48520  0.29630  Biso   1.000  H
  C64      1.0000 0.20067  0.47317  0.10270  Biso   1.000  C
  C65      1.0000 0.19100  0.56860  0.02690  Biso   1.000  C
  H45      1.0000 0.17290  0.59750  0.96130  Biso   1.000  H
  C66      1.0000 0.23290  0.58500  0.14140  Biso   1.000  C
  H46      1.0000 0.24290  0.62430  0.15320  Biso   1.000  H
  C67      1.0000 0.26020  0.54330  0.23940  Biso   1.000  C
  H47      1.0000 0.28970  0.55380  0.31600  Biso   1.000  H
  C68      1.0000 0.24330  0.48550  0.22240  Biso   1.000  C
  H48      1.0000 0.26000  0.45610  0.28920  Biso   1.000  H
  Ag5      1.0000 0.48832  0.37313  0.76829  Biso   1.000  Ag
  N25      1.0000 0.36994  0.10404  0.63800  Biso   1.000  N
  N26      1.0000 0.33240  0.36912  0.42690  Biso   1.000  N
  N27      1.0000 0.31874  0.31266  0.47610  Biso   1.000  N
  N28      1.0000 0.41350  0.31731  0.42370  Biso   1.000  N
  N29      1.0000 0.47310  0.53291  0.27890  Biso   1.000  N
  N30      1.0000 0.51268  0.32551  0.49590  Biso   1.000  N
  C69      1.0000 0.41930  0.19560  0.60400  Biso   1.000  C
  H49      1.0000 0.45300  0.21770  0.62140  Biso   1.000  H
  C70      1.0000 0.41740  0.13790  0.65480  Biso   1.000  C
  H50      1.0000 0.45090  0.12160  0.70340  Biso   1.000  H
  C71      1.0000 0.32260  0.12880  0.56770  Biso   1.000  C
  H51      1.0000 0.28870  0.10650  0.55780  Biso   1.000  H
  C72      1.0000 0.32140  0.18560  0.50930  Biso   1.000  C
  H52      1.0000 0.28770  0.20050  0.45820  Biso   1.000  H
  C73      1.0000 0.37082  0.22060  0.52710  Biso   1.000  C
  C74      1.0000 0.36720  0.28240  0.47290  Biso   1.000  C
  C75      1.0000 0.38890  0.37150  0.39750  Biso   1.000  C
  C76      1.0000 0.41950  0.42570  0.34960  Biso   1.000  C
  C77      1.0000 0.39680  0.47760  0.41190  Biso   1.000  C
  H53      1.0000 0.36310  0.47740  0.47910  Biso   1.000  H
  C78      1.0000 0.42440  0.52950  0.37400  Biso   1.000  C
  H54      1.0000 0.40830  0.56400  0.41650  Biso   1.000  H
  C79      1.0000 0.49420  0.48230  0.21720  Biso   1.000  C
  H55      1.0000 0.52760  0.48350  0.14910  Biso   1.000  H
  C80      1.0000 0.46900  0.42820  0.24920  Biso   1.000  C
  H56      1.0000 0.48520  0.39420  0.20370  Biso   1.000  H
  C81      1.0000 0.47317  0.29933  0.39730  Biso   1.000  C
  C82      1.0000 0.56860  0.30900  0.47310  Biso   1.000  C
  H57      1.0000 0.59750  0.32710  0.53870  Biso   1.000  H
  C83      1.0000 0.58500  0.26710  0.35860  Biso   1.000  C
  H58      1.0000 0.62430  0.25710  0.34680  Biso   1.000  H
  C84      1.0000 0.54330  0.23980  0.26060  Biso   1.000  C
  H59      1.0000 0.55380  0.21030  0.18400  Biso   1.000  H
  C85      1.0000 0.48550  0.25670  0.27760  Biso   1.000  C
  H60      1.0000 0.45610  0.24000  0.21080  Biso   1.000  H
  Ag6      1.0000 0.01168  0.12687  0.76829  Biso   1.000  Ag
  N31      1.0000 0.13006  0.39596  0.63800  Biso   1.000  N
  N32      1.0000 0.16760  0.13088  0.42690  Biso   1.000  N
  N33      1.0000 0.18126  0.18734  0.47610  Biso   1.000  N
  N34      1.0000 0.08650  0.18269  0.42370  Biso   1.000  N
  N35      1.0000 0.02690  0.96709  0.27890  Biso   1.000  N
  N36      1.0000 0.98732  0.17449  0.49590  Biso   1.000  N
  C86      1.0000 0.08070  0.30440  0.60400  Biso   1.000  C
  H61      1.0000 0.04700  0.28230  0.62140  Biso   1.000  H
  C87      1.0000 0.08260  0.36210  0.65480  Biso   1.000  C
  H62      1.0000 0.04910  0.37840  0.70340  Biso   1.000  H
  C88      1.0000 0.17740  0.37120  0.56770  Biso   1.000  C
  H63      1.0000 0.21130  0.39350  0.55780  Biso   1.000  H
  C89      1.0000 0.17860  0.31440  0.50930  Biso   1.000  C
  H64      1.0000 0.21230  0.29950  0.45820  Biso   1.000  H
  C90      1.0000 0.12918  0.27940  0.52710  Biso   1.000  C
  C91      1.0000 0.13280  0.21760  0.47290  Biso   1.000  C
  C92      1.0000 0.11110  0.12850  0.39750  Biso   1.000  C
  C93      1.0000 0.08050  0.07430  0.34960  Biso   1.000  C
  C94      1.0000 0.10320  0.02240  0.41190  Biso   1.000  C
  H65      1.0000 0.13690  0.02260  0.47910  Biso   1.000  H
  C95      1.0000 0.07560  0.97050  0.37400  Biso   1.000  C
  H66      1.0000 0.09170  0.93600  0.41650  Biso   1.000  H
  C96      1.0000 0.00580  0.01770  0.21720  Biso   1.000  C
  H67      1.0000 0.97240  0.01650  0.14910  Biso   1.000  H
  C97      1.0000 0.03100  0.07180  0.24920  Biso   1.000  C
  H68      1.0000 0.01480  0.10580  0.20370  Biso   1.000  H
  C98      1.0000 0.02683  0.20067  0.39730  Biso   1.000  C
  C99      1.0000 0.93140  0.19100  0.47310  Biso   1.000  C
  H69      1.0000 0.90250  0.17290  0.53870  Biso   1.000  H
  C100     1.0000 0.91500  0.23290  0.35860  Biso   1.000  C
  H70      1.0000 0.87570  0.24290  0.34680  Biso   1.000  H
  C101     1.0000 0.95670  0.26020  0.26060  Biso   1.000  C
  H71      1.0000 0.94620  0.28970  0.18400  Biso   1.000  H
  C102     1.0000 0.01450  0.24330  0.27760  Biso   1.000  C
  H72      1.0000 0.04390  0.26000  0.21080  Biso   1.000  H
  Ag7      1.0000 0.62687  0.98832  0.26829  Biso   1.000  Ag
  N37      1.0000 0.89596  0.86994  0.13800  Biso   1.000  N
  N38      1.0000 0.63088  0.83240  0.92690  Biso   1.000  N
  N39      1.0000 0.68734  0.81874  0.97610  Biso   1.000  N
  N40      1.0000 0.68269  0.91350  0.92370  Biso   1.000  N
  N41      1.0000 0.46709  0.97310  0.77890  Biso   1.000  N
  N42      1.0000 0.67449  0.01268  0.99590  Biso   1.000  N
  C103     1.0000 0.80440  0.91930  0.10400  Biso   1.000  C
  H73      1.0000 0.78230  0.95300  0.12140  Biso   1.000  H
  C104     1.0000 0.86210  0.91740  0.15480  Biso   1.000  C
  H74      1.0000 0.87840  0.95090  0.20340  Biso   1.000  H
  C105     1.0000 0.87120  0.82260  0.06770  Biso   1.000  C
  H75      1.0000 0.89350  0.78870  0.05780  Biso   1.000  H
  C106     1.0000 0.81440  0.82140  0.00930  Biso   1.000  C
  H76      1.0000 0.79950  0.78770  0.95820  Biso   1.000  H
  C107     1.0000 0.77940  0.87082  0.02710  Biso   1.000  C
  C108     1.0000 0.71760  0.86720  0.97290  Biso   1.000  C
  C109     1.0000 0.62850  0.88890  0.89750  Biso   1.000  C
  C110     1.0000 0.57430  0.91950  0.84960  Biso   1.000  C
  C111     1.0000 0.52240  0.89680  0.91190  Biso   1.000  C
  H77      1.0000 0.52260  0.86310  0.97910  Biso   1.000  H
  C112     1.0000 0.47050  0.92440  0.87400  Biso   1.000  C
  H78      1.0000 0.43600  0.90830  0.91650  Biso   1.000  H
  C113     1.0000 0.51770  0.99420  0.71720  Biso   1.000  C
  H79      1.0000 0.51650  0.02760  0.64910  Biso   1.000  H
  C114     1.0000 0.57180  0.96900  0.74920  Biso   1.000  C
  H80      1.0000 0.60580  0.98520  0.70370  Biso   1.000  H
  C115     1.0000 0.70067  0.97317  0.89730  Biso   1.000  C
  C116     1.0000 0.69100  0.06860  0.97310  Biso   1.000  C
  H81      1.0000 0.67290  0.09750  0.03870  Biso   1.000  H
  C117     1.0000 0.73290  0.08500  0.85860  Biso   1.000  C
  H82      1.0000 0.74290  0.12430  0.84680  Biso   1.000  H
  C118     1.0000 0.76020  0.04330  0.76060  Biso   1.000  C
  H83      1.0000 0.78970  0.05380  0.68400  Biso   1.000  H
  C119     1.0000 0.74330  0.98550  0.77760  Biso   1.000  C
  H84      1.0000 0.76000  0.95610  0.71080  Biso   1.000  H
  Ag8      1.0000 0.87313  0.51168  0.26829  Biso   1.000  Ag
  N43      1.0000 0.60404  0.63006  0.13800  Biso   1.000  N
  N44      1.0000 0.86912  0.66760  0.92690  Biso   1.000  N
  N45      1.0000 0.81266  0.68126  0.97610  Biso   1.000  N
  N46      1.0000 0.81731  0.58650  0.92370  Biso   1.000  N
  N47      1.0000 0.03291  0.52690  0.77890  Biso   1.000  N
  N48      1.0000 0.82551  0.48732  0.99590  Biso   1.000  N
  C120     1.0000 0.69560  0.58070  0.10400  Biso   1.000  C
  H85      1.0000 0.71770  0.54700  0.12140  Biso   1.000  H
  C121     1.0000 0.63790  0.58260  0.15480  Biso   1.000  C
  H86      1.0000 0.62160  0.54910  0.20340  Biso   1.000  H
  C122     1.0000 0.62880  0.67740  0.06770  Biso   1.000  C
  H87      1.0000 0.60650  0.71130  0.05780  Biso   1.000  H
  C123     1.0000 0.68560  0.67860  0.00930  Biso   1.000  C
  H88      1.0000 0.70050  0.71230  0.95820  Biso   1.000  H
  C124     1.0000 0.72060  0.62918  0.02710  Biso   1.000  C
  C125     1.0000 0.78240  0.63280  0.97290  Biso   1.000  C
  C126     1.0000 0.87150  0.61110  0.89750  Biso   1.000  C
  C127     1.0000 0.92570  0.58050  0.84960  Biso   1.000  C
  C128     1.0000 0.97760  0.60320  0.91190  Biso   1.000  C
  H89      1.0000 0.97740  0.63690  0.97910  Biso   1.000  H
  C129     1.0000 0.02950  0.57560  0.87400  Biso   1.000  C
  H90      1.0000 0.06400  0.59170  0.91650  Biso   1.000  H
  C130     1.0000 0.98230  0.50580  0.71720  Biso   1.000  C
  H91      1.0000 0.98350  0.47240  0.64910  Biso   1.000  H
  C131     1.0000 0.92820  0.53100  0.74920  Biso   1.000  C
  H92      1.0000 0.89420  0.51480  0.70370  Biso   1.000  H
  C132     1.0000 0.79933  0.52683  0.89730  Biso   1.000  C
  C133     1.0000 0.80900  0.43140  0.97310  Biso   1.000  C
  H93      1.0000 0.82710  0.40250  0.03870  Biso   1.000  H
  C134     1.0000 0.76710  0.41500  0.85860  Biso   1.000  C
  H94      1.0000 0.75710  0.37570  0.84680  Biso   1.000  H
  C135     1.0000 0.73980  0.45670  0.76060  Biso   1.000  C
  H95      1.0000 0.71030  0.44620  0.68400  Biso   1.000  H
  C136     1.0000 0.75670  0.51450  0.77760  Biso   1.000  C
  H96      1.0000 0.74000  0.54390  0.71080  Biso   1.000  H
