data_image0
_cell_length_a       35.49
_cell_length_b       35.49
_cell_length_c       35.49
_cell_angle_alpha    90
_cell_angle_beta     90
_cell_angle_gamma    90

_symmetry_space_group_name_H-M    "P 1"
_symmetry_int_tables_number       1

loop_
  _symmetry_equiv_pos_as_xyz
  'x, y, z'

loop_
  _atom_site_label
  _atom_site_occupancy
  _atom_site_fract_x
  _atom_site_fract_y
  _atom_site_fract_z
  _atom_site_thermal_displace_type
  _atom_site_B_iso_or_equiv
  _atom_site_type_symbol
  O1       1.0000 0.46254  0.03746  0.21922  Biso   1.000  O
  C1       1.0000 0.40670  0.09510  0.21810  Biso   1.000  C
  H1       1.0000 0.41570  0.08720  0.19480  Biso   1.000  H
  C2       1.0000 0.37700  0.12510  0.21910  Biso   1.000  C
  H2       1.0000 0.36940  0.13450  0.19590  Biso   1.000  H
  C3       1.0000 0.31980  0.17850  0.21410  Biso   1.000  C
  H3       1.0000 0.32930  0.16850  0.19190  Biso   1.000  H
  C4       1.0000 0.29320  0.20440  0.21640  Biso   1.000  C
  H4       1.0000 0.28260  0.21280  0.19400  Biso   1.000  H
  O2       1.0000 0.53746  0.96254  0.21922  Biso   1.000  O
  C5       1.0000 0.59330  0.90490  0.21810  Biso   1.000  C
  H5       1.0000 0.58430  0.91280  0.19480  Biso   1.000  H
  C6       1.0000 0.62300  0.87490  0.21910  Biso   1.000  C
  H6       1.0000 0.63060  0.86550  0.19590  Biso   1.000  H
  C7       1.0000 0.68020  0.82150  0.21410  Biso   1.000  C
  H7       1.0000 0.67070  0.83150  0.19190  Biso   1.000  H
  C8       1.0000 0.70680  0.79560  0.21640  Biso   1.000  C
  H8       1.0000 0.71740  0.78720  0.19400  Biso   1.000  H
  O3       1.0000 0.53746  0.03746  0.78078  Biso   1.000  O
  C9       1.0000 0.59330  0.09510  0.78190  Biso   1.000  C
  H9       1.0000 0.58430  0.08720  0.80520  Biso   1.000  H
  C10      1.0000 0.62300  0.12510  0.78090  Biso   1.000  C
  H10      1.0000 0.63060  0.13450  0.80410  Biso   1.000  H
  C11      1.0000 0.68020  0.17850  0.78590  Biso   1.000  C
  H11      1.0000 0.67070  0.16850  0.80810  Biso   1.000  H
  C12      1.0000 0.70680  0.20440  0.78360  Biso   1.000  C
  H12      1.0000 0.71740  0.21280  0.80600  Biso   1.000  H
  O4       1.0000 0.46254  0.96254  0.78078  Biso   1.000  O
  C13      1.0000 0.40670  0.90490  0.78190  Biso   1.000  C
  H13      1.0000 0.41570  0.91280  0.80520  Biso   1.000  H
  C14      1.0000 0.37700  0.87490  0.78090  Biso   1.000  C
  H14      1.0000 0.36940  0.86550  0.80410  Biso   1.000  H
  C15      1.0000 0.31980  0.82150  0.78590  Biso   1.000  C
  H15      1.0000 0.32930  0.83150  0.80810  Biso   1.000  H
  C16      1.0000 0.29320  0.79560  0.78360  Biso   1.000  C
  H16      1.0000 0.28260  0.78720  0.80600  Biso   1.000  H
  O5       1.0000 0.21922  0.46254  0.03746  Biso   1.000  O
  C17      1.0000 0.21810  0.40670  0.09510  Biso   1.000  C
  H17      1.0000 0.19480  0.41570  0.08720  Biso   1.000  H
  C18      1.0000 0.21910  0.37700  0.12510  Biso   1.000  C
  H18      1.0000 0.19590  0.36940  0.13450  Biso   1.000  H
  C19      1.0000 0.21410  0.31980  0.17850  Biso   1.000  C
  H19      1.0000 0.19190  0.32930  0.16850  Biso   1.000  H
  C20      1.0000 0.21640  0.29320  0.20440  Biso   1.000  C
  H20      1.0000 0.19400  0.28260  0.21280  Biso   1.000  H
  O6       1.0000 0.21922  0.53746  0.96254  Biso   1.000  O
  C21      1.0000 0.21810  0.59330  0.90490  Biso   1.000  C
  H21      1.0000 0.19480  0.58430  0.91280  Biso   1.000  H
  C22      1.0000 0.21910  0.62300  0.87490  Biso   1.000  C
  H22      1.0000 0.19590  0.63060  0.86550  Biso   1.000  H
  C23      1.0000 0.21410  0.68020  0.82150  Biso   1.000  C
  H23      1.0000 0.19190  0.67070  0.83150  Biso   1.000  H
  C24      1.0000 0.21640  0.70680  0.79560  Biso   1.000  C
  H24      1.0000 0.19400  0.71740  0.78720  Biso   1.000  H
  O7       1.0000 0.78078  0.53746  0.03746  Biso   1.000  O
  C25      1.0000 0.78190  0.59330  0.09510  Biso   1.000  C
  H25      1.0000 0.80520  0.58430  0.08720  Biso   1.000  H
  C26      1.0000 0.78090  0.62300  0.12510  Biso   1.000  C
  H26      1.0000 0.80410  0.63060  0.13450  Biso   1.000  H
  C27      1.0000 0.78590  0.68020  0.17850  Biso   1.000  C
  H27      1.0000 0.80810  0.67070  0.16850  Biso   1.000  H
  C28      1.0000 0.78360  0.70680  0.20440  Biso   1.000  C
  H28      1.0000 0.80600  0.71740  0.21280  Biso   1.000  H
  O8       1.0000 0.78078  0.46254  0.96254  Biso   1.000  O
  C29      1.0000 0.78190  0.40670  0.90490  Biso   1.000  C
  H29      1.0000 0.80520  0.41570  0.91280  Biso   1.000  H
  C30      1.0000 0.78090  0.37700  0.87490  Biso   1.000  C
  H30      1.0000 0.80410  0.36940  0.86550  Biso   1.000  H
  C31      1.0000 0.78590  0.31980  0.82150  Biso   1.000  C
  H31      1.0000 0.80810  0.32930  0.83150  Biso   1.000  H
  C32      1.0000 0.78360  0.29320  0.79560  Biso   1.000  C
  H32      1.0000 0.80600  0.28260  0.78720  Biso   1.000  H
  O9       1.0000 0.03746  0.21922  0.46254  Biso   1.000  O
  C33      1.0000 0.09510  0.21810  0.40670  Biso   1.000  C
  H33      1.0000 0.08720  0.19480  0.41570  Biso   1.000  H
  C34      1.0000 0.12510  0.21910  0.37700  Biso   1.000  C
  H34      1.0000 0.13450  0.19590  0.36940  Biso   1.000  H
  C35      1.0000 0.17850  0.21410  0.31980  Biso   1.000  C
  H35      1.0000 0.16850  0.19190  0.32930  Biso   1.000  H
  C36      1.0000 0.20440  0.21640  0.29320  Biso   1.000  C
  H36      1.0000 0.21280  0.19400  0.28260  Biso   1.000  H
  O10      1.0000 0.96254  0.21922  0.53746  Biso   1.000  O
  C37      1.0000 0.90490  0.21810  0.59330  Biso   1.000  C
  H37      1.0000 0.91280  0.19480  0.58430  Biso   1.000  H
  C38      1.0000 0.87490  0.21910  0.62300  Biso   1.000  C
  H38      1.0000 0.86550  0.19590  0.63060  Biso   1.000  H
  C39      1.0000 0.82150  0.21410  0.68020  Biso   1.000  C
  H39      1.0000 0.83150  0.19190  0.67070  Biso   1.000  H
  C40      1.0000 0.79560  0.21640  0.70680  Biso   1.000  C
  H40      1.0000 0.78720  0.19400  0.71740  Biso   1.000  H
  O11      1.0000 0.03746  0.78078  0.53746  Biso   1.000  O
  C41      1.0000 0.09510  0.78190  0.59330  Biso   1.000  C
  H41      1.0000 0.08720  0.80520  0.58430  Biso   1.000  H
  C42      1.0000 0.12510  0.78090  0.62300  Biso   1.000  C
  H42      1.0000 0.13450  0.80410  0.63060  Biso   1.000  H
  C43      1.0000 0.17850  0.78590  0.68020  Biso   1.000  C
  H43      1.0000 0.16850  0.80810  0.67070  Biso   1.000  H
  C44      1.0000 0.20440  0.78360  0.70680  Biso   1.000  C
  H44      1.0000 0.21280  0.80600  0.71740  Biso   1.000  H
  O12      1.0000 0.96254  0.78078  0.46254  Biso   1.000  O
  C45      1.0000 0.90490  0.78190  0.40670  Biso   1.000  C
  H45      1.0000 0.91280  0.80520  0.41570  Biso   1.000  H
  C46      1.0000 0.87490  0.78090  0.37700  Biso   1.000  C
  H46      1.0000 0.86550  0.80410  0.36940  Biso   1.000  H
  C47      1.0000 0.82150  0.78590  0.31980  Biso   1.000  C
  H47      1.0000 0.83150  0.80810  0.32930  Biso   1.000  H
  C48      1.0000 0.79560  0.78360  0.29320  Biso   1.000  C
  H48      1.0000 0.78720  0.80600  0.28260  Biso   1.000  H
  O13      1.0000 0.53746  0.96254  0.28078  Biso   1.000  O
  C49      1.0000 0.59510  0.90670  0.28190  Biso   1.000  C
  H49      1.0000 0.58720  0.91570  0.30520  Biso   1.000  H
  C50      1.0000 0.62510  0.87700  0.28090  Biso   1.000  C
  H50      1.0000 0.63450  0.86940  0.30410  Biso   1.000  H
  C51      1.0000 0.67850  0.81980  0.28590  Biso   1.000  C
  H51      1.0000 0.66850  0.82930  0.30810  Biso   1.000  H
  C52      1.0000 0.70440  0.79320  0.28360  Biso   1.000  C
  H52      1.0000 0.71280  0.78260  0.30600  Biso   1.000  H
  O14      1.0000 0.46254  0.03746  0.28078  Biso   1.000  O
  C53      1.0000 0.40490  0.09330  0.28190  Biso   1.000  C
  H53      1.0000 0.41280  0.08430  0.30520  Biso   1.000  H
  C54      1.0000 0.37490  0.12300  0.28090  Biso   1.000  C
  H54      1.0000 0.36550  0.13060  0.30410  Biso   1.000  H
  C55      1.0000 0.32150  0.18020  0.28590  Biso   1.000  C
  H55      1.0000 0.33150  0.17070  0.30810  Biso   1.000  H
  C56      1.0000 0.29560  0.20680  0.28360  Biso   1.000  C
  H56      1.0000 0.28720  0.21740  0.30600  Biso   1.000  H
  O15      1.0000 0.53746  0.03746  0.71922  Biso   1.000  O
  C57      1.0000 0.59510  0.09330  0.71810  Biso   1.000  C
  H57      1.0000 0.58720  0.08430  0.69480  Biso   1.000  H
  C58      1.0000 0.62510  0.12300  0.71910  Biso   1.000  C
  H58      1.0000 0.63450  0.13060  0.69590  Biso   1.000  H
  C59      1.0000 0.67850  0.18020  0.71410  Biso   1.000  C
  H59      1.0000 0.66850  0.17070  0.69190  Biso   1.000  H
  C60      1.0000 0.70440  0.20680  0.71640  Biso   1.000  C
  H60      1.0000 0.71280  0.21740  0.69400  Biso   1.000  H
  O16      1.0000 0.46254  0.96254  0.71922  Biso   1.000  O
  C61      1.0000 0.40490  0.90670  0.71810  Biso   1.000  C
  H61      1.0000 0.41280  0.91570  0.69480  Biso   1.000  H
  C62      1.0000 0.37490  0.87700  0.71910  Biso   1.000  C
  H62      1.0000 0.36550  0.86940  0.69590  Biso   1.000  H
  C63      1.0000 0.32150  0.81980  0.71410  Biso   1.000  C
  H63      1.0000 0.33150  0.82930  0.69190  Biso   1.000  H
  C64      1.0000 0.29560  0.79320  0.71640  Biso   1.000  C
  H64      1.0000 0.28720  0.78260  0.69400  Biso   1.000  H
  O17      1.0000 0.96254  0.71922  0.46254  Biso   1.000  O
  C65      1.0000 0.90670  0.71810  0.40490  Biso   1.000  C
  H65      1.0000 0.91570  0.69480  0.41280  Biso   1.000  H
  C66      1.0000 0.87700  0.71910  0.37490  Biso   1.000  C
  H66      1.0000 0.86940  0.69590  0.36550  Biso   1.000  H
  C67      1.0000 0.81980  0.71410  0.32150  Biso   1.000  C
  H67      1.0000 0.82930  0.69190  0.33150  Biso   1.000  H
  C68      1.0000 0.79320  0.71640  0.29560  Biso   1.000  C
  H68      1.0000 0.78260  0.69400  0.28720  Biso   1.000  H
  O18      1.0000 0.03746  0.71922  0.53746  Biso   1.000  O
  C69      1.0000 0.09330  0.71810  0.59510  Biso   1.000  C
  H69      1.0000 0.08430  0.69480  0.58720  Biso   1.000  H
  C70      1.0000 0.12300  0.71910  0.62510  Biso   1.000  C
  H70      1.0000 0.13060  0.69590  0.63450  Biso   1.000  H
  C71      1.0000 0.18020  0.71410  0.67850  Biso   1.000  C
  H71      1.0000 0.17070  0.69190  0.66850  Biso   1.000  H
  C72      1.0000 0.20680  0.71640  0.70440  Biso   1.000  C
  H72      1.0000 0.21740  0.69400  0.71280  Biso   1.000  H
  O19      1.0000 0.03746  0.28078  0.46254  Biso   1.000  O
  C73      1.0000 0.09330  0.28190  0.40490  Biso   1.000  C
  H73      1.0000 0.08430  0.30520  0.41280  Biso   1.000  H
  C74      1.0000 0.12300  0.28090  0.37490  Biso   1.000  C
  H74      1.0000 0.13060  0.30410  0.36550  Biso   1.000  H
  C75      1.0000 0.18020  0.28590  0.32150  Biso   1.000  C
  H75      1.0000 0.17070  0.30810  0.33150  Biso   1.000  H
  C76      1.0000 0.20680  0.28360  0.29560  Biso   1.000  C
  H76      1.0000 0.21740  0.30600  0.28720  Biso   1.000  H
  O20      1.0000 0.96254  0.28078  0.53746  Biso   1.000  O
  C77      1.0000 0.90670  0.28190  0.59510  Biso   1.000  C
  H77      1.0000 0.91570  0.30520  0.58720  Biso   1.000  H
  C78      1.0000 0.87700  0.28090  0.62510  Biso   1.000  C
  H78      1.0000 0.86940  0.30410  0.63450  Biso   1.000  H
  C79      1.0000 0.81980  0.28590  0.67850  Biso   1.000  C
  H79      1.0000 0.82930  0.30810  0.66850  Biso   1.000  H
  C80      1.0000 0.79320  0.28360  0.70440  Biso   1.000  C
  H80      1.0000 0.78260  0.30600  0.71280  Biso   1.000  H
  O21      1.0000 0.71922  0.53746  0.03746  Biso   1.000  O
  C81      1.0000 0.71810  0.59510  0.09330  Biso   1.000  C
  H81      1.0000 0.69480  0.58720  0.08430  Biso   1.000  H
  C82      1.0000 0.71910  0.62510  0.12300  Biso   1.000  C
  H82      1.0000 0.69590  0.63450  0.13060  Biso   1.000  H
  C83      1.0000 0.71410  0.67850  0.18020  Biso   1.000  C
  H83      1.0000 0.69190  0.66850  0.17070  Biso   1.000  H
  C84      1.0000 0.71640  0.70440  0.20680  Biso   1.000  C
  H84      1.0000 0.69400  0.71280  0.21740  Biso   1.000  H
  O22      1.0000 0.71922  0.46254  0.96254  Biso   1.000  O
  C85      1.0000 0.71810  0.40490  0.90670  Biso   1.000  C
  H85      1.0000 0.69480  0.41280  0.91570  Biso   1.000  H
  C86      1.0000 0.71910  0.37490  0.87700  Biso   1.000  C
  H86      1.0000 0.69590  0.36550  0.86940  Biso   1.000  H
  C87      1.0000 0.71410  0.32150  0.81980  Biso   1.000  C
  H87      1.0000 0.69190  0.33150  0.82930  Biso   1.000  H
  C88      1.0000 0.71640  0.29560  0.79320  Biso   1.000  C
  H88      1.0000 0.69400  0.28720  0.78260  Biso   1.000  H
  O23      1.0000 0.28078  0.53746  0.96254  Biso   1.000  O
  C89      1.0000 0.28190  0.59510  0.90670  Biso   1.000  C
  H89      1.0000 0.30520  0.58720  0.91570  Biso   1.000  H
  C90      1.0000 0.28090  0.62510  0.87700  Biso   1.000  C
  H90      1.0000 0.30410  0.63450  0.86940  Biso   1.000  H
  C91      1.0000 0.28590  0.67850  0.81980  Biso   1.000  C
  H91      1.0000 0.30810  0.66850  0.82930  Biso   1.000  H
  C92      1.0000 0.28360  0.70440  0.79320  Biso   1.000  C
  H92      1.0000 0.30600  0.71280  0.78260  Biso   1.000  H
  O24      1.0000 0.28078  0.46254  0.03746  Biso   1.000  O
  C93      1.0000 0.28190  0.40490  0.09330  Biso   1.000  C
  H93      1.0000 0.30520  0.41280  0.08430  Biso   1.000  H
  C94      1.0000 0.28090  0.37490  0.12300  Biso   1.000  C
  H94      1.0000 0.30410  0.36550  0.13060  Biso   1.000  H
  C95      1.0000 0.28590  0.32150  0.18020  Biso   1.000  C
  H95      1.0000 0.30810  0.33150  0.17070  Biso   1.000  H
  C96      1.0000 0.28360  0.29560  0.20680  Biso   1.000  C
  H96      1.0000 0.30600  0.28720  0.21740  Biso   1.000  H
  O25      1.0000 0.53746  0.96254  0.78078  Biso   1.000  O
  C97      1.0000 0.59330  0.90490  0.78190  Biso   1.000  C
  H97      1.0000 0.58430  0.91280  0.80520  Biso   1.000  H
  C98      1.0000 0.62300  0.87490  0.78090  Biso   1.000  C
  H98      1.0000 0.63060  0.86550  0.80410  Biso   1.000  H
  C99      1.0000 0.68020  0.82150  0.78590  Biso   1.000  C
  H99      1.0000 0.67070  0.83150  0.80810  Biso   1.000  H
  C100     1.0000 0.70680  0.79560  0.78360  Biso   1.000  C
  H100     1.0000 0.71740  0.78720  0.80600  Biso   1.000  H
  O26      1.0000 0.46254  0.03746  0.78078  Biso   1.000  O
  C101     1.0000 0.40670  0.09510  0.78190  Biso   1.000  C
  H101     1.0000 0.41570  0.08720  0.80520  Biso   1.000  H
  C102     1.0000 0.37700  0.12510  0.78090  Biso   1.000  C
  H102     1.0000 0.36940  0.13450  0.80410  Biso   1.000  H
  C103     1.0000 0.31980  0.17850  0.78590  Biso   1.000  C
  H103     1.0000 0.32930  0.16850  0.80810  Biso   1.000  H
  C104     1.0000 0.29320  0.20440  0.78360  Biso   1.000  C
  H104     1.0000 0.28260  0.21280  0.80600  Biso   1.000  H
  O27      1.0000 0.46254  0.96254  0.21922  Biso   1.000  O
  C105     1.0000 0.40670  0.90490  0.21810  Biso   1.000  C
  H105     1.0000 0.41570  0.91280  0.19480  Biso   1.000  H
  C106     1.0000 0.37700  0.87490  0.21910  Biso   1.000  C
  H106     1.0000 0.36940  0.86550  0.19590  Biso   1.000  H
  C107     1.0000 0.31980  0.82150  0.21410  Biso   1.000  C
  H107     1.0000 0.32930  0.83150  0.19190  Biso   1.000  H
  C108     1.0000 0.29320  0.79560  0.21640  Biso   1.000  C
  H108     1.0000 0.28260  0.78720  0.19400  Biso   1.000  H
  O28      1.0000 0.53746  0.03746  0.21922  Biso   1.000  O
  C109     1.0000 0.59330  0.09510  0.21810  Biso   1.000  C
  H109     1.0000 0.58430  0.08720  0.19480  Biso   1.000  H
  C110     1.0000 0.62300  0.12510  0.21910  Biso   1.000  C
  H110     1.0000 0.63060  0.13450  0.19590  Biso   1.000  H
  C111     1.0000 0.68020  0.17850  0.21410  Biso   1.000  C
  H111     1.0000 0.67070  0.16850  0.19190  Biso   1.000  H
  C112     1.0000 0.70680  0.20440  0.21640  Biso   1.000  C
  H112     1.0000 0.71740  0.21280  0.19400  Biso   1.000  H
  O29      1.0000 0.78078  0.53746  0.96254  Biso   1.000  O
  C113     1.0000 0.78190  0.59330  0.90490  Biso   1.000  C
  H113     1.0000 0.80520  0.58430  0.91280  Biso   1.000  H
  C114     1.0000 0.78090  0.62300  0.87490  Biso   1.000  C
  H114     1.0000 0.80410  0.63060  0.86550  Biso   1.000  H
  C115     1.0000 0.78590  0.68020  0.82150  Biso   1.000  C
  H115     1.0000 0.80810  0.67070  0.83150  Biso   1.000  H
  C116     1.0000 0.78360  0.70680  0.79560  Biso   1.000  C
  H116     1.0000 0.80600  0.71740  0.78720  Biso   1.000  H
  O30      1.0000 0.78078  0.46254  0.03746  Biso   1.000  O
  C117     1.0000 0.78190  0.40670  0.09510  Biso   1.000  C
  H117     1.0000 0.80520  0.41570  0.08720  Biso   1.000  H
  C118     1.0000 0.78090  0.37700  0.12510  Biso   1.000  C
  H118     1.0000 0.80410  0.36940  0.13450  Biso   1.000  H
  C119     1.0000 0.78590  0.31980  0.17850  Biso   1.000  C
  H119     1.0000 0.80810  0.32930  0.16850  Biso   1.000  H
  C120     1.0000 0.78360  0.29320  0.20440  Biso   1.000  C
  H120     1.0000 0.80600  0.28260  0.21280  Biso   1.000  H
  O31      1.0000 0.21922  0.46254  0.96254  Biso   1.000  O
  C121     1.0000 0.21810  0.40670  0.90490  Biso   1.000  C
  H121     1.0000 0.19480  0.41570  0.91280  Biso   1.000  H
  C122     1.0000 0.21910  0.37700  0.87490  Biso   1.000  C
  H122     1.0000 0.19590  0.36940  0.86550  Biso   1.000  H
  C123     1.0000 0.21410  0.31980  0.82150  Biso   1.000  C
  H123     1.0000 0.19190  0.32930  0.83150  Biso   1.000  H
  C124     1.0000 0.21640  0.29320  0.79560  Biso   1.000  C
  H124     1.0000 0.19400  0.28260  0.78720  Biso   1.000  H
  O32      1.0000 0.21922  0.53746  0.03746  Biso   1.000  O
  C125     1.0000 0.21810  0.59330  0.09510  Biso   1.000  C
  H125     1.0000 0.19480  0.58430  0.08720  Biso   1.000  H
  C126     1.0000 0.21910  0.62300  0.12510  Biso   1.000  C
  H126     1.0000 0.19590  0.63060  0.13450  Biso   1.000  H
  C127     1.0000 0.21410  0.68020  0.17850  Biso   1.000  C
  H127     1.0000 0.19190  0.67070  0.16850  Biso   1.000  H
  C128     1.0000 0.21640  0.70680  0.20440  Biso   1.000  C
  H128     1.0000 0.19400  0.71740  0.21280  Biso   1.000  H
  O33      1.0000 0.96254  0.78078  0.53746  Biso   1.000  O
  C129     1.0000 0.90490  0.78190  0.59330  Biso   1.000  C
  H129     1.0000 0.91280  0.80520  0.58430  Biso   1.000  H
  C130     1.0000 0.87490  0.78090  0.62300  Biso   1.000  C
  H130     1.0000 0.86550  0.80410  0.63060  Biso   1.000  H
  C131     1.0000 0.82150  0.78590  0.68020  Biso   1.000  C
  H131     1.0000 0.83150  0.80810  0.67070  Biso   1.000  H
  C132     1.0000 0.79560  0.78360  0.70680  Biso   1.000  C
  H132     1.0000 0.78720  0.80600  0.71740  Biso   1.000  H
  O34      1.0000 0.03746  0.78078  0.46254  Biso   1.000  O
  C133     1.0000 0.09510  0.78190  0.40670  Biso   1.000  C
  H133     1.0000 0.08720  0.80520  0.41570  Biso   1.000  H
  C134     1.0000 0.12510  0.78090  0.37700  Biso   1.000  C
  H134     1.0000 0.13450  0.80410  0.36940  Biso   1.000  H
  C135     1.0000 0.17850  0.78590  0.31980  Biso   1.000  C
  H135     1.0000 0.16850  0.80810  0.32930  Biso   1.000  H
  C136     1.0000 0.20440  0.78360  0.29320  Biso   1.000  C
  H136     1.0000 0.21280  0.80600  0.28260  Biso   1.000  H
  O35      1.0000 0.96254  0.21922  0.46254  Biso   1.000  O
  C137     1.0000 0.90490  0.21810  0.40670  Biso   1.000  C
  H137     1.0000 0.91280  0.19480  0.41570  Biso   1.000  H
  C138     1.0000 0.87490  0.21910  0.37700  Biso   1.000  C
  H138     1.0000 0.86550  0.19590  0.36940  Biso   1.000  H
  C139     1.0000 0.82150  0.21410  0.31980  Biso   1.000  C
  H139     1.0000 0.83150  0.19190  0.32930  Biso   1.000  H
  C140     1.0000 0.79560  0.21640  0.29320  Biso   1.000  C
  H140     1.0000 0.78720  0.19400  0.28260  Biso   1.000  H
  O36      1.0000 0.03746  0.21922  0.53746  Biso   1.000  O
  C141     1.0000 0.09510  0.21810  0.59330  Biso   1.000  C
  H141     1.0000 0.08720  0.19480  0.58430  Biso   1.000  H
  C142     1.0000 0.12510  0.21910  0.62300  Biso   1.000  C
  H142     1.0000 0.13450  0.19590  0.63060  Biso   1.000  H
  C143     1.0000 0.17850  0.21410  0.68020  Biso   1.000  C
  H143     1.0000 0.16850  0.19190  0.67070  Biso   1.000  H
  C144     1.0000 0.20440  0.21640  0.70680  Biso   1.000  C
  H144     1.0000 0.21280  0.19400  0.71740  Biso   1.000  H
  O37      1.0000 0.46254  0.03746  0.71922  Biso   1.000  O
  C145     1.0000 0.40490  0.09330  0.71810  Biso   1.000  C
  H145     1.0000 0.41280  0.08430  0.69480  Biso   1.000  H
  C146     1.0000 0.37490  0.12300  0.71910  Biso   1.000  C
  H146     1.0000 0.36550  0.13060  0.69590  Biso   1.000  H
  C147     1.0000 0.32150  0.18020  0.71410  Biso   1.000  C
  H147     1.0000 0.33150  0.17070  0.69190  Biso   1.000  H
  C148     1.0000 0.29560  0.20680  0.71640  Biso   1.000  C
  H148     1.0000 0.28720  0.21740  0.69400  Biso   1.000  H
  O38      1.0000 0.53746  0.96254  0.71922  Biso   1.000  O
  C149     1.0000 0.59510  0.90670  0.71810  Biso   1.000  C
  H149     1.0000 0.58720  0.91570  0.69480  Biso   1.000  H
  C150     1.0000 0.62510  0.87700  0.71910  Biso   1.000  C
  H150     1.0000 0.63450  0.86940  0.69590  Biso   1.000  H
  C151     1.0000 0.67850  0.81980  0.71410  Biso   1.000  C
  H151     1.0000 0.66850  0.82930  0.69190  Biso   1.000  H
  C152     1.0000 0.70440  0.79320  0.71640  Biso   1.000  C
  H152     1.0000 0.71280  0.78260  0.69400  Biso   1.000  H
  O39      1.0000 0.46254  0.96254  0.28078  Biso   1.000  O
  C153     1.0000 0.40490  0.90670  0.28190  Biso   1.000  C
  H153     1.0000 0.41280  0.91570  0.30520  Biso   1.000  H
  C154     1.0000 0.37490  0.87700  0.28090  Biso   1.000  C
  H154     1.0000 0.36550  0.86940  0.30410  Biso   1.000  H
  C155     1.0000 0.32150  0.81980  0.28590  Biso   1.000  C
  H155     1.0000 0.33150  0.82930  0.30810  Biso   1.000  H
  C156     1.0000 0.29560  0.79320  0.28360  Biso   1.000  C
  H156     1.0000 0.28720  0.78260  0.30600  Biso   1.000  H
  O40      1.0000 0.53746  0.03746  0.28078  Biso   1.000  O
  C157     1.0000 0.59510  0.09330  0.28190  Biso   1.000  C
  H157     1.0000 0.58720  0.08430  0.30520  Biso   1.000  H
  C158     1.0000 0.62510  0.12300  0.28090  Biso   1.000  C
  H158     1.0000 0.63450  0.13060  0.30410  Biso   1.000  H
  C159     1.0000 0.67850  0.18020  0.28590  Biso   1.000  C
  H159     1.0000 0.66850  0.17070  0.30810  Biso   1.000  H
  C160     1.0000 0.70440  0.20680  0.28360  Biso   1.000  C
  H160     1.0000 0.71280  0.21740  0.30600  Biso   1.000  H
  O41      1.0000 0.03746  0.28078  0.53746  Biso   1.000  O
  C161     1.0000 0.09330  0.28190  0.59510  Biso   1.000  C
  H161     1.0000 0.08430  0.30520  0.58720  Biso   1.000  H
  C162     1.0000 0.12300  0.28090  0.62510  Biso   1.000  C
  H162     1.0000 0.13060  0.30410  0.63450  Biso   1.000  H
  C163     1.0000 0.18020  0.28590  0.67850  Biso   1.000  C
  H163     1.0000 0.17070  0.30810  0.66850  Biso   1.000  H
  C164     1.0000 0.20680  0.28360  0.70440  Biso   1.000  C
  H164     1.0000 0.21740  0.30600  0.71280  Biso   1.000  H
  O42      1.0000 0.96254  0.28078  0.46254  Biso   1.000  O
  C165     1.0000 0.90670  0.28190  0.40490  Biso   1.000  C
  H165     1.0000 0.91570  0.30520  0.41280  Biso   1.000  H
  C166     1.0000 0.87700  0.28090  0.37490  Biso   1.000  C
  H166     1.0000 0.86940  0.30410  0.36550  Biso   1.000  H
  C167     1.0000 0.81980  0.28590  0.32150  Biso   1.000  C
  H167     1.0000 0.82930  0.30810  0.33150  Biso   1.000  H
  C168     1.0000 0.79320  0.28360  0.29560  Biso   1.000  C
  H168     1.0000 0.78260  0.30600  0.28720  Biso   1.000  H
  O43      1.0000 0.96254  0.71922  0.53746  Biso   1.000  O
  C169     1.0000 0.90670  0.71810  0.59510  Biso   1.000  C
  H169     1.0000 0.91570  0.69480  0.58720  Biso   1.000  H
  C170     1.0000 0.87700  0.71910  0.62510  Biso   1.000  C
  H170     1.0000 0.86940  0.69590  0.63450  Biso   1.000  H
  C171     1.0000 0.81980  0.71410  0.67850  Biso   1.000  C
  H171     1.0000 0.82930  0.69190  0.66850  Biso   1.000  H
  C172     1.0000 0.79320  0.71640  0.70440  Biso   1.000  C
  H172     1.0000 0.78260  0.69400  0.71280  Biso   1.000  H
  O44      1.0000 0.03746  0.71922  0.46254  Biso   1.000  O
  C173     1.0000 0.09330  0.71810  0.40490  Biso   1.000  C
  H173     1.0000 0.08430  0.69480  0.41280  Biso   1.000  H
  C174     1.0000 0.12300  0.71910  0.37490  Biso   1.000  C
  H174     1.0000 0.13060  0.69590  0.36550  Biso   1.000  H
  C175     1.0000 0.18020  0.71410  0.32150  Biso   1.000  C
  H175     1.0000 0.17070  0.69190  0.33150  Biso   1.000  H
  C176     1.0000 0.20680  0.71640  0.29560  Biso   1.000  C
  H176     1.0000 0.21740  0.69400  0.28720  Biso   1.000  H
  O45      1.0000 0.28078  0.46254  0.96254  Biso   1.000  O
  C177     1.0000 0.28190  0.40490  0.90670  Biso   1.000  C
  H177     1.0000 0.30520  0.41280  0.91570  Biso   1.000  H
  C178     1.0000 0.28090  0.37490  0.87700  Biso   1.000  C
  H178     1.0000 0.30410  0.36550  0.86940  Biso   1.000  H
  C179     1.0000 0.28590  0.32150  0.81980  Biso   1.000  C
  H179     1.0000 0.30810  0.33150  0.82930  Biso   1.000  H
  C180     1.0000 0.28360  0.29560  0.79320  Biso   1.000  C
  H180     1.0000 0.30600  0.28720  0.78260  Biso   1.000  H
  O46      1.0000 0.28078  0.53746  0.03746  Biso   1.000  O
  C181     1.0000 0.28190  0.59510  0.09330  Biso   1.000  C
  H181     1.0000 0.30520  0.58720  0.08430  Biso   1.000  H
  C182     1.0000 0.28090  0.62510  0.12300  Biso   1.000  C
  H182     1.0000 0.30410  0.63450  0.13060  Biso   1.000  H
  C183     1.0000 0.28590  0.67850  0.18020  Biso   1.000  C
  H183     1.0000 0.30810  0.66850  0.17070  Biso   1.000  H
  C184     1.0000 0.28360  0.70440  0.20680  Biso   1.000  C
  H184     1.0000 0.30600  0.71280  0.21740  Biso   1.000  H
  O47      1.0000 0.71922  0.46254  0.03746  Biso   1.000  O
  C185     1.0000 0.71810  0.40490  0.09330  Biso   1.000  C
  H185     1.0000 0.69480  0.41280  0.08430  Biso   1.000  H
  C186     1.0000 0.71910  0.37490  0.12300  Biso   1.000  C
  H186     1.0000 0.69590  0.36550  0.13060  Biso   1.000  H
  C187     1.0000 0.71410  0.32150  0.18020  Biso   1.000  C
  H187     1.0000 0.69190  0.33150  0.17070  Biso   1.000  H
  C188     1.0000 0.71640  0.29560  0.20680  Biso   1.000  C
  H188     1.0000 0.69400  0.28720  0.21740  Biso   1.000  H
  O48      1.0000 0.71922  0.53746  0.96254  Biso   1.000  O
  C189     1.0000 0.71810  0.59510  0.90670  Biso   1.000  C
  H189     1.0000 0.69480  0.58720  0.91570  Biso   1.000  H
  C190     1.0000 0.71910  0.62510  0.87700  Biso   1.000  C
  H190     1.0000 0.69590  0.63450  0.86940  Biso   1.000  H
  C191     1.0000 0.71410  0.67850  0.81980  Biso   1.000  C
  H191     1.0000 0.69190  0.66850  0.82930  Biso   1.000  H
  C192     1.0000 0.71640  0.70440  0.79320  Biso   1.000  C
  H192     1.0000 0.69400  0.71280  0.78260  Biso   1.000  H
  Cu1      1.0000 0.50000  0.00000  0.21279  Biso   1.000  Cu
  Cu2      1.0000 0.50000  0.00000  0.78721  Biso   1.000  Cu
  Cu3      1.0000 0.21279  0.50000  0.00000  Biso   1.000  Cu
  Cu4      1.0000 0.78721  0.50000  0.00000  Biso   1.000  Cu
  Cu5      1.0000 0.00000  0.21279  0.50000  Biso   1.000  Cu
  Cu6      1.0000 0.00000  0.78721  0.50000  Biso   1.000  Cu
  Cu7      1.0000 0.50000  0.00000  0.28721  Biso   1.000  Cu
  Cu8      1.0000 0.50000  0.00000  0.71279  Biso   1.000  Cu
  Cu9      1.0000 0.00000  0.71279  0.50000  Biso   1.000  Cu
  Cu10     1.0000 0.00000  0.28721  0.50000  Biso   1.000  Cu
  Cu11     1.0000 0.71279  0.50000  0.00000  Biso   1.000  Cu
  Cu12     1.0000 0.28721  0.50000  0.00000  Biso   1.000  Cu
  N1       1.0000 0.25000  0.25000  0.25000  Biso   1.000  N
  N2       1.0000 0.75000  0.75000  0.25000  Biso   1.000  N
  N3       1.0000 0.75000  0.25000  0.75000  Biso   1.000  N
  N4       1.0000 0.25000  0.75000  0.75000  Biso   1.000  N
  N5       1.0000 0.75000  0.75000  0.75000  Biso   1.000  N
  N6       1.0000 0.25000  0.25000  0.75000  Biso   1.000  N
  N7       1.0000 0.25000  0.75000  0.25000  Biso   1.000  N
  N8       1.0000 0.75000  0.25000  0.25000  Biso   1.000  N
  C193     1.0000 0.44920  0.05080  0.25000  Biso   1.000  C
  C194     1.0000 0.42100  0.07900  0.25000  Biso   1.000  C
  C195     1.0000 0.35960  0.14040  0.25000  Biso   1.000  C
  C196     1.0000 0.33130  0.16870  0.25000  Biso   1.000  C
  C197     1.0000 0.27945  0.22055  0.25000  Biso   1.000  C
  C198     1.0000 0.55080  0.94920  0.25000  Biso   1.000  C
  C199     1.0000 0.57900  0.92100  0.25000  Biso   1.000  C
  C200     1.0000 0.64040  0.85960  0.25000  Biso   1.000  C
  C201     1.0000 0.66870  0.83130  0.25000  Biso   1.000  C
  C202     1.0000 0.72055  0.77945  0.25000  Biso   1.000  C
  C203     1.0000 0.55080  0.05080  0.75000  Biso   1.000  C
  C204     1.0000 0.57900  0.07900  0.75000  Biso   1.000  C
  C205     1.0000 0.64040  0.14040  0.75000  Biso   1.000  C
  C206     1.0000 0.66870  0.16870  0.75000  Biso   1.000  C
  C207     1.0000 0.72055  0.22055  0.75000  Biso   1.000  C
  C208     1.0000 0.44920  0.94920  0.75000  Biso   1.000  C
  C209     1.0000 0.42100  0.92100  0.75000  Biso   1.000  C
  C210     1.0000 0.35960  0.85960  0.75000  Biso   1.000  C
  C211     1.0000 0.33130  0.83130  0.75000  Biso   1.000  C
  C212     1.0000 0.27945  0.77945  0.75000  Biso   1.000  C
  C213     1.0000 0.25000  0.44920  0.05080  Biso   1.000  C
  C214     1.0000 0.25000  0.42100  0.07900  Biso   1.000  C
  C215     1.0000 0.25000  0.35960  0.14040  Biso   1.000  C
  C216     1.0000 0.25000  0.33130  0.16870  Biso   1.000  C
  C217     1.0000 0.25000  0.27945  0.22055  Biso   1.000  C
  C218     1.0000 0.25000  0.55080  0.94920  Biso   1.000  C
  C219     1.0000 0.25000  0.57900  0.92100  Biso   1.000  C
  C220     1.0000 0.25000  0.64040  0.85960  Biso   1.000  C
  C221     1.0000 0.25000  0.66870  0.83130  Biso   1.000  C
  C222     1.0000 0.25000  0.72055  0.77945  Biso   1.000  C
  C223     1.0000 0.75000  0.55080  0.05080  Biso   1.000  C
  C224     1.0000 0.75000  0.57900  0.07900  Biso   1.000  C
  C225     1.0000 0.75000  0.64040  0.14040  Biso   1.000  C
  C226     1.0000 0.75000  0.66870  0.16870  Biso   1.000  C
  C227     1.0000 0.75000  0.72055  0.22055  Biso   1.000  C
  C228     1.0000 0.75000  0.44920  0.94920  Biso   1.000  C
  C229     1.0000 0.75000  0.42100  0.92100  Biso   1.000  C
  C230     1.0000 0.75000  0.35960  0.85960  Biso   1.000  C
  C231     1.0000 0.75000  0.33130  0.83130  Biso   1.000  C
  C232     1.0000 0.75000  0.27945  0.77945  Biso   1.000  C
  C233     1.0000 0.05080  0.25000  0.44920  Biso   1.000  C
  C234     1.0000 0.07900  0.25000  0.42100  Biso   1.000  C
  C235     1.0000 0.14040  0.25000  0.35960  Biso   1.000  C
  C236     1.0000 0.16870  0.25000  0.33130  Biso   1.000  C
  C237     1.0000 0.22055  0.25000  0.27945  Biso   1.000  C
  C238     1.0000 0.94920  0.25000  0.55080  Biso   1.000  C
  C239     1.0000 0.92100  0.25000  0.57900  Biso   1.000  C
  C240     1.0000 0.85960  0.25000  0.64040  Biso   1.000  C
  C241     1.0000 0.83130  0.25000  0.66870  Biso   1.000  C
  C242     1.0000 0.77945  0.25000  0.72055  Biso   1.000  C
  C243     1.0000 0.05080  0.75000  0.55080  Biso   1.000  C
  C244     1.0000 0.07900  0.75000  0.57900  Biso   1.000  C
  C245     1.0000 0.14040  0.75000  0.64040  Biso   1.000  C
  C246     1.0000 0.16870  0.75000  0.66870  Biso   1.000  C
  C247     1.0000 0.22055  0.75000  0.72055  Biso   1.000  C
  C248     1.0000 0.94920  0.75000  0.44920  Biso   1.000  C
  C249     1.0000 0.92100  0.75000  0.42100  Biso   1.000  C
  C250     1.0000 0.85960  0.75000  0.35960  Biso   1.000  C
  C251     1.0000 0.83130  0.75000  0.33130  Biso   1.000  C
  C252     1.0000 0.77945  0.75000  0.27945  Biso   1.000  C
  C253     1.0000 0.55080  0.94920  0.75000  Biso   1.000  C
  C254     1.0000 0.57900  0.92100  0.75000  Biso   1.000  C
  C255     1.0000 0.64040  0.85960  0.75000  Biso   1.000  C
  C256     1.0000 0.66870  0.83130  0.75000  Biso   1.000  C
  C257     1.0000 0.72055  0.77945  0.75000  Biso   1.000  C
  C258     1.0000 0.44920  0.05080  0.75000  Biso   1.000  C
  C259     1.0000 0.42100  0.07900  0.75000  Biso   1.000  C
  C260     1.0000 0.35960  0.14040  0.75000  Biso   1.000  C
  C261     1.0000 0.33130  0.16870  0.75000  Biso   1.000  C
  C262     1.0000 0.27945  0.22055  0.75000  Biso   1.000  C
  C263     1.0000 0.44920  0.94920  0.25000  Biso   1.000  C
  C264     1.0000 0.42100  0.92100  0.25000  Biso   1.000  C
  C265     1.0000 0.35960  0.85960  0.25000  Biso   1.000  C
  C266     1.0000 0.33130  0.83130  0.25000  Biso   1.000  C
  C267     1.0000 0.27945  0.77945  0.25000  Biso   1.000  C
  C268     1.0000 0.55080  0.05080  0.25000  Biso   1.000  C
  C269     1.0000 0.57900  0.07900  0.25000  Biso   1.000  C
  C270     1.0000 0.64040  0.14040  0.25000  Biso   1.000  C
  C271     1.0000 0.66870  0.16870  0.25000  Biso   1.000  C
  C272     1.0000 0.72055  0.22055  0.25000  Biso   1.000  C
  C273     1.0000 0.75000  0.55080  0.94920  Biso   1.000  C
  C274     1.0000 0.75000  0.57900  0.92100  Biso   1.000  C
  C275     1.0000 0.75000  0.64040  0.85960  Biso   1.000  C
  C276     1.0000 0.75000  0.66870  0.83130  Biso   1.000  C
  C277     1.0000 0.75000  0.72055  0.77945  Biso   1.000  C
  C278     1.0000 0.75000  0.44920  0.05080  Biso   1.000  C
  C279     1.0000 0.75000  0.42100  0.07900  Biso   1.000  C
  C280     1.0000 0.75000  0.35960  0.14040  Biso   1.000  C
  C281     1.0000 0.75000  0.33130  0.16870  Biso   1.000  C
  C282     1.0000 0.75000  0.27945  0.22055  Biso   1.000  C
  C283     1.0000 0.25000  0.44920  0.94920  Biso   1.000  C
  C284     1.0000 0.25000  0.42100  0.92100  Biso   1.000  C
  C285     1.0000 0.25000  0.35960  0.85960  Biso   1.000  C
  C286     1.0000 0.25000  0.33130  0.83130  Biso   1.000  C
  C287     1.0000 0.25000  0.27945  0.77945  Biso   1.000  C
  C288     1.0000 0.25000  0.55080  0.05080  Biso   1.000  C
  C289     1.0000 0.25000  0.57900  0.07900  Biso   1.000  C
  C290     1.0000 0.25000  0.64040  0.14040  Biso   1.000  C
  C291     1.0000 0.25000  0.66870  0.16870  Biso   1.000  C
  C292     1.0000 0.25000  0.72055  0.22055  Biso   1.000  C
  C293     1.0000 0.94920  0.75000  0.55080  Biso   1.000  C
  C294     1.0000 0.92100  0.75000  0.57900  Biso   1.000  C
  C295     1.0000 0.85960  0.75000  0.64040  Biso   1.000  C
  C296     1.0000 0.83130  0.75000  0.66870  Biso   1.000  C
  C297     1.0000 0.77945  0.75000  0.72055  Biso   1.000  C
  C298     1.0000 0.05080  0.75000  0.44920  Biso   1.000  C
  C299     1.0000 0.07900  0.75000  0.42100  Biso   1.000  C
  C300     1.0000 0.14040  0.75000  0.35960  Biso   1.000  C
  C301     1.0000 0.16870  0.75000  0.33130  Biso   1.000  C
  C302     1.0000 0.22055  0.75000  0.27945  Biso   1.000  C
  C303     1.0000 0.94920  0.25000  0.44920  Biso   1.000  C
  C304     1.0000 0.92100  0.25000  0.42100  Biso   1.000  C
  C305     1.0000 0.85960  0.25000  0.35960  Biso   1.000  C
  C306     1.0000 0.83130  0.25000  0.33130  Biso   1.000  C
  C307     1.0000 0.77945  0.25000  0.27945  Biso   1.000  C
  C308     1.0000 0.05080  0.25000  0.55080  Biso   1.000  C
  C309     1.0000 0.07900  0.25000  0.57900  Biso   1.000  C
  C310     1.0000 0.14040  0.25000  0.64040  Biso   1.000  C
  C311     1.0000 0.16870  0.25000  0.66870  Biso   1.000  C
  C312     1.0000 0.22055  0.25000  0.72055  Biso   1.000  C
