data_image0
_cell_length_a       15.458
_cell_length_b       14.22
_cell_length_c       14.245
_cell_angle_alpha    90
_cell_angle_beta     99.84
_cell_angle_gamma    90

_symmetry_space_group_name_H-M    "P 1"
_symmetry_int_tables_number       1

loop_
  _symmetry_equiv_pos_as_xyz
  'x, y, z'

loop_
  _atom_site_label
  _atom_site_occupancy
  _atom_site_fract_x
  _atom_site_fract_y
  _atom_site_fract_z
  _atom_site_thermal_displace_type
  _atom_site_B_iso_or_equiv
  _atom_site_type_symbol
  O1       1.0000 0.62946  0.31181  0.82349  Biso   1.000  O
  O2       1.0000 0.75079  0.22824  0.86431  Biso   1.000  O
  O3       1.0000 0.99836  0.67130  0.90214  Biso   1.000  O
  O4       1.0000 0.88622  0.58300  0.91335  Biso   1.000  O
  N1       1.0000 0.72903  0.55350  0.97270  Biso   1.000  N
  N2       1.0000 0.84681  0.65152  0.11335  Biso   1.000  N
  C1       1.0000 0.70780  0.30150  0.86480  Biso   1.000  C
  C2       1.0000 0.75240  0.38560  0.91800  Biso   1.000  C
  H1       1.0000 0.80510  0.40120  0.89270  Biso   1.000  H
  H2       1.0000 0.76970  0.36960  0.98470  Biso   1.000  H
  C3       1.0000 0.69300  0.47090  0.90930  Biso   1.000  C
  H3       1.0000 0.63710  0.45210  0.92570  Biso   1.000  H
  H4       1.0000 0.68220  0.49150  0.84340  Biso   1.000  H
  C4       1.0000 0.73230  0.52780  0.07640  Biso   1.000  C
  H5       1.0000 0.67320  0.51520  0.08730  Biso   1.000  H
  H6       1.0000 0.76630  0.47060  0.09010  Biso   1.000  H
  C5       1.0000 0.77260  0.60430  0.14320  Biso   1.000  C
  H7       1.0000 0.72760  0.65020  0.14960  Biso   1.000  H
  H8       1.0000 0.79230  0.57680  0.20550  Biso   1.000  H
  C6       1.0000 0.87330  0.73340  0.17410  Biso   1.000  C
  H9       1.0000 0.93300  0.75020  0.16870  Biso   1.000  H
  H10      1.0000 0.87250  0.71680  0.24000  Biso   1.000  H
  C7       1.0000 0.81460  0.81920  0.14660  Biso   1.000  C
  H11      1.0000 0.75370  0.80010  0.14170  Biso   1.000  H
  H12      1.0000 0.82660  0.86640  0.19620  Biso   1.000  H
  C8       1.0000 0.67180  0.64060  0.94360  Biso   1.000  C
  H13      1.0000 0.68500  0.68780  0.99310  Biso   1.000  H
  H14      1.0000 0.61050  0.62360  0.93880  Biso   1.000  H
  C9       1.0000 0.92240  0.58760  0.11370  Biso   1.000  C
  H15      1.0000 0.95200  0.57860  0.17880  Biso   1.000  H
  H16      1.0000 0.90100  0.52690  0.08900  Biso   1.000  H
  C10      1.0000 0.98780  0.62320  0.05580  Biso   1.000  C
  H17      1.0000 0.03960  0.58370  0.06710  Biso   1.000  H
  H18      1.0000 0.00550  0.68620  0.07740  Biso   1.000  H
  C11      1.0000 0.95300  0.62550  0.94890  Biso   1.000  C
  O5       1.0000 0.45940  0.35910  0.85820  Biso   1.000  O
  H19      1.0000 0.52560  0.36080  0.88400  Biso   1.000  H
  H20      1.0000 0.43220  0.34470  0.80310  Biso   1.000  H
  O6       1.0000 0.12946  0.81181  0.82349  Biso   1.000  O
  O7       1.0000 0.25079  0.72824  0.86431  Biso   1.000  O
  O8       1.0000 0.49836  0.17130  0.90214  Biso   1.000  O
  O9       1.0000 0.38622  0.08300  0.91335  Biso   1.000  O
  N3       1.0000 0.22903  0.05350  0.97270  Biso   1.000  N
  N4       1.0000 0.34681  0.15152  0.11335  Biso   1.000  N
  C12      1.0000 0.20780  0.80150  0.86480  Biso   1.000  C
  C13      1.0000 0.25240  0.88560  0.91800  Biso   1.000  C
  H21      1.0000 0.30510  0.90120  0.89270  Biso   1.000  H
  H22      1.0000 0.26970  0.86960  0.98470  Biso   1.000  H
  C14      1.0000 0.19300  0.97090  0.90930  Biso   1.000  C
  H23      1.0000 0.13710  0.95210  0.92570  Biso   1.000  H
  H24      1.0000 0.18220  0.99150  0.84340  Biso   1.000  H
  C15      1.0000 0.23230  0.02780  0.07640  Biso   1.000  C
  H25      1.0000 0.17320  0.01520  0.08730  Biso   1.000  H
  H26      1.0000 0.26630  0.97060  0.09010  Biso   1.000  H
  C16      1.0000 0.27260  0.10430  0.14320  Biso   1.000  C
  H27      1.0000 0.22760  0.15020  0.14960  Biso   1.000  H
  H28      1.0000 0.29230  0.07680  0.20550  Biso   1.000  H
  C17      1.0000 0.37330  0.23340  0.17410  Biso   1.000  C
  H29      1.0000 0.43300  0.25020  0.16870  Biso   1.000  H
  H30      1.0000 0.37250  0.21680  0.24000  Biso   1.000  H
  C18      1.0000 0.31460  0.31920  0.14660  Biso   1.000  C
  H31      1.0000 0.25370  0.30010  0.14170  Biso   1.000  H
  H32      1.0000 0.32660  0.36640  0.19620  Biso   1.000  H
  C19      1.0000 0.17180  0.14060  0.94360  Biso   1.000  C
  H33      1.0000 0.18500  0.18780  0.99310  Biso   1.000  H
  H34      1.0000 0.11050  0.12360  0.93880  Biso   1.000  H
  C20      1.0000 0.42240  0.08760  0.11370  Biso   1.000  C
  H35      1.0000 0.45200  0.07860  0.17880  Biso   1.000  H
  H36      1.0000 0.40100  0.02690  0.08900  Biso   1.000  H
  C21      1.0000 0.48780  0.12320  0.05580  Biso   1.000  C
  H37      1.0000 0.53960  0.08370  0.06710  Biso   1.000  H
  H38      1.0000 0.50550  0.18620  0.07740  Biso   1.000  H
  C22      1.0000 0.45300  0.12550  0.94890  Biso   1.000  C
  O10      1.0000 0.95940  0.85910  0.85820  Biso   1.000  O
  H39      1.0000 0.02560  0.86080  0.88400  Biso   1.000  H
  H40      1.0000 0.93220  0.84470  0.80310  Biso   1.000  H
  O11      1.0000 0.37054  0.31181  0.67651  Biso   1.000  O
  O12      1.0000 0.24921  0.22824  0.63569  Biso   1.000  O
  O13      1.0000 0.00164  0.67130  0.59786  Biso   1.000  O
  O14      1.0000 0.11378  0.58300  0.58665  Biso   1.000  O
  N5       1.0000 0.27097  0.55350  0.52730  Biso   1.000  N
  N6       1.0000 0.15319  0.65152  0.38665  Biso   1.000  N
  C23      1.0000 0.29220  0.30150  0.63520  Biso   1.000  C
  C24      1.0000 0.24760  0.38560  0.58200  Biso   1.000  C
  H41      1.0000 0.19490  0.40120  0.60730  Biso   1.000  H
  H42      1.0000 0.23030  0.36960  0.51530  Biso   1.000  H
  C25      1.0000 0.30700  0.47090  0.59070  Biso   1.000  C
  H43      1.0000 0.36290  0.45210  0.57430  Biso   1.000  H
  H44      1.0000 0.31780  0.49150  0.65660  Biso   1.000  H
  C26      1.0000 0.26770  0.52780  0.42360  Biso   1.000  C
  H45      1.0000 0.32680  0.51520  0.41270  Biso   1.000  H
  H46      1.0000 0.23370  0.47060  0.40990  Biso   1.000  H
  C27      1.0000 0.22740  0.60430  0.35680  Biso   1.000  C
  H47      1.0000 0.27240  0.65020  0.35040  Biso   1.000  H
  H48      1.0000 0.20770  0.57680  0.29450  Biso   1.000  H
  C28      1.0000 0.12670  0.73340  0.32590  Biso   1.000  C
  H49      1.0000 0.06700  0.75020  0.33130  Biso   1.000  H
  H50      1.0000 0.12750  0.71680  0.26000  Biso   1.000  H
  C29      1.0000 0.18540  0.81920  0.35340  Biso   1.000  C
  H51      1.0000 0.24630  0.80010  0.35830  Biso   1.000  H
  H52      1.0000 0.17340  0.86640  0.30380  Biso   1.000  H
  C30      1.0000 0.32820  0.64060  0.55640  Biso   1.000  C
  H53      1.0000 0.31500  0.68780  0.50690  Biso   1.000  H
  H54      1.0000 0.38950  0.62360  0.56120  Biso   1.000  H
  C31      1.0000 0.07760  0.58760  0.38630  Biso   1.000  C
  H55      1.0000 0.04800  0.57860  0.32120  Biso   1.000  H
  H56      1.0000 0.09900  0.52690  0.41100  Biso   1.000  H
  C32      1.0000 0.01220  0.62320  0.44420  Biso   1.000  C
  H57      1.0000 0.96040  0.58370  0.43290  Biso   1.000  H
  H58      1.0000 0.99450  0.68620  0.42260  Biso   1.000  H
  C33      1.0000 0.04700  0.62550  0.55110  Biso   1.000  C
  O15      1.0000 0.54060  0.35910  0.64180  Biso   1.000  O
  H59      1.0000 0.47440  0.36080  0.61600  Biso   1.000  H
  H60      1.0000 0.56780  0.34470  0.69690  Biso   1.000  H
  O16      1.0000 0.87054  0.81181  0.67651  Biso   1.000  O
  O17      1.0000 0.74921  0.72824  0.63569  Biso   1.000  O
  O18      1.0000 0.50164  0.17130  0.59786  Biso   1.000  O
  O19      1.0000 0.61378  0.08300  0.58665  Biso   1.000  O
  N7       1.0000 0.77097  0.05350  0.52730  Biso   1.000  N
  N8       1.0000 0.65319  0.15152  0.38665  Biso   1.000  N
  C34      1.0000 0.79220  0.80150  0.63520  Biso   1.000  C
  C35      1.0000 0.74760  0.88560  0.58200  Biso   1.000  C
  H61      1.0000 0.69490  0.90120  0.60730  Biso   1.000  H
  H62      1.0000 0.73030  0.86960  0.51530  Biso   1.000  H
  C36      1.0000 0.80700  0.97090  0.59070  Biso   1.000  C
  H63      1.0000 0.86290  0.95210  0.57430  Biso   1.000  H
  H64      1.0000 0.81780  0.99150  0.65660  Biso   1.000  H
  C37      1.0000 0.76770  0.02780  0.42360  Biso   1.000  C
  H65      1.0000 0.82680  0.01520  0.41270  Biso   1.000  H
  H66      1.0000 0.73370  0.97060  0.40990  Biso   1.000  H
  C38      1.0000 0.72740  0.10430  0.35680  Biso   1.000  C
  H67      1.0000 0.77240  0.15020  0.35040  Biso   1.000  H
  H68      1.0000 0.70770  0.07680  0.29450  Biso   1.000  H
  C39      1.0000 0.62670  0.23340  0.32590  Biso   1.000  C
  H69      1.0000 0.56700  0.25020  0.33130  Biso   1.000  H
  H70      1.0000 0.62750  0.21680  0.26000  Biso   1.000  H
  C40      1.0000 0.68540  0.31920  0.35340  Biso   1.000  C
  H71      1.0000 0.74630  0.30010  0.35830  Biso   1.000  H
  H72      1.0000 0.67340  0.36640  0.30380  Biso   1.000  H
  C41      1.0000 0.82820  0.14060  0.55640  Biso   1.000  C
  H73      1.0000 0.81500  0.18780  0.50690  Biso   1.000  H
  H74      1.0000 0.88950  0.12360  0.56120  Biso   1.000  H
  C42      1.0000 0.57760  0.08760  0.38630  Biso   1.000  C
  H75      1.0000 0.54800  0.07860  0.32120  Biso   1.000  H
  H76      1.0000 0.59900  0.02690  0.41100  Biso   1.000  H
  C43      1.0000 0.51220  0.12320  0.44420  Biso   1.000  C
  H77      1.0000 0.46040  0.08370  0.43290  Biso   1.000  H
  H78      1.0000 0.49450  0.18620  0.42260  Biso   1.000  H
  C44      1.0000 0.54700  0.12550  0.55110  Biso   1.000  C
  O20      1.0000 0.04060  0.85910  0.64180  Biso   1.000  O
  H79      1.0000 0.97440  0.86080  0.61600  Biso   1.000  H
  H80      1.0000 0.06780  0.84470  0.69690  Biso   1.000  H
  O21      1.0000 0.37054  0.68819  0.17651  Biso   1.000  O
  O22      1.0000 0.24921  0.77176  0.13569  Biso   1.000  O
  O23      1.0000 0.00164  0.32870  0.09786  Biso   1.000  O
  O24      1.0000 0.11378  0.41700  0.08665  Biso   1.000  O
  N9       1.0000 0.27097  0.44650  0.02730  Biso   1.000  N
  N10      1.0000 0.15319  0.34848  0.88665  Biso   1.000  N
  C45      1.0000 0.29220  0.69850  0.13520  Biso   1.000  C
  C46      1.0000 0.24760  0.61440  0.08200  Biso   1.000  C
  H81      1.0000 0.19490  0.59880  0.10730  Biso   1.000  H
  H82      1.0000 0.23030  0.63040  0.01530  Biso   1.000  H
  C47      1.0000 0.30700  0.52910  0.09070  Biso   1.000  C
  H83      1.0000 0.36290  0.54790  0.07430  Biso   1.000  H
  H84      1.0000 0.31780  0.50850  0.15660  Biso   1.000  H
  C48      1.0000 0.26770  0.47220  0.92360  Biso   1.000  C
  H85      1.0000 0.32680  0.48480  0.91270  Biso   1.000  H
  H86      1.0000 0.23370  0.52940  0.90990  Biso   1.000  H
  C49      1.0000 0.22740  0.39570  0.85680  Biso   1.000  C
  H87      1.0000 0.27240  0.34980  0.85040  Biso   1.000  H
  H88      1.0000 0.20770  0.42320  0.79450  Biso   1.000  H
  C50      1.0000 0.12670  0.26660  0.82590  Biso   1.000  C
  H89      1.0000 0.06700  0.24980  0.83130  Biso   1.000  H
  H90      1.0000 0.12750  0.28320  0.76000  Biso   1.000  H
  C51      1.0000 0.18540  0.18080  0.85340  Biso   1.000  C
  H91      1.0000 0.24630  0.19990  0.85830  Biso   1.000  H
  H92      1.0000 0.17340  0.13360  0.80380  Biso   1.000  H
  C52      1.0000 0.32820  0.35940  0.05640  Biso   1.000  C
  H93      1.0000 0.31500  0.31220  0.00690  Biso   1.000  H
  H94      1.0000 0.38950  0.37640  0.06120  Biso   1.000  H
  C53      1.0000 0.07760  0.41240  0.88630  Biso   1.000  C
  H95      1.0000 0.04800  0.42140  0.82120  Biso   1.000  H
  H96      1.0000 0.09900  0.47310  0.91100  Biso   1.000  H
  C54      1.0000 0.01220  0.37680  0.94420  Biso   1.000  C
  H97      1.0000 0.96040  0.41630  0.93290  Biso   1.000  H
  H98      1.0000 0.99450  0.31380  0.92260  Biso   1.000  H
  C55      1.0000 0.04700  0.37450  0.05110  Biso   1.000  C
  O25      1.0000 0.54060  0.64090  0.14180  Biso   1.000  O
  H99      1.0000 0.47440  0.63920  0.11600  Biso   1.000  H
  H100     1.0000 0.56780  0.65530  0.19690  Biso   1.000  H
  O26      1.0000 0.87054  0.18819  0.17651  Biso   1.000  O
  O27      1.0000 0.74921  0.27176  0.13569  Biso   1.000  O
  O28      1.0000 0.50164  0.82870  0.09786  Biso   1.000  O
  O29      1.0000 0.61378  0.91700  0.08665  Biso   1.000  O
  N11      1.0000 0.77097  0.94650  0.02730  Biso   1.000  N
  N12      1.0000 0.65319  0.84848  0.88665  Biso   1.000  N
  C56      1.0000 0.79220  0.19850  0.13520  Biso   1.000  C
  C57      1.0000 0.74760  0.11440  0.08200  Biso   1.000  C
  H101     1.0000 0.69490  0.09880  0.10730  Biso   1.000  H
  H102     1.0000 0.73030  0.13040  0.01530  Biso   1.000  H
  C58      1.0000 0.80700  0.02910  0.09070  Biso   1.000  C
  H103     1.0000 0.86290  0.04790  0.07430  Biso   1.000  H
  H104     1.0000 0.81780  0.00850  0.15660  Biso   1.000  H
  C59      1.0000 0.76770  0.97220  0.92360  Biso   1.000  C
  H105     1.0000 0.82680  0.98480  0.91270  Biso   1.000  H
  H106     1.0000 0.73370  0.02940  0.90990  Biso   1.000  H
  C60      1.0000 0.72740  0.89570  0.85680  Biso   1.000  C
  H107     1.0000 0.77240  0.84980  0.85040  Biso   1.000  H
  H108     1.0000 0.70770  0.92320  0.79450  Biso   1.000  H
  C61      1.0000 0.62670  0.76660  0.82590  Biso   1.000  C
  H109     1.0000 0.56700  0.74980  0.83130  Biso   1.000  H
  H110     1.0000 0.62750  0.78320  0.76000  Biso   1.000  H
  C62      1.0000 0.68540  0.68080  0.85340  Biso   1.000  C
  H111     1.0000 0.74630  0.69990  0.85830  Biso   1.000  H
  H112     1.0000 0.67340  0.63360  0.80380  Biso   1.000  H
  C63      1.0000 0.82820  0.85940  0.05640  Biso   1.000  C
  H113     1.0000 0.81500  0.81220  0.00690  Biso   1.000  H
  H114     1.0000 0.88950  0.87640  0.06120  Biso   1.000  H
  C64      1.0000 0.57760  0.91240  0.88630  Biso   1.000  C
  H115     1.0000 0.54800  0.92140  0.82120  Biso   1.000  H
  H116     1.0000 0.59900  0.97310  0.91100  Biso   1.000  H
  C65      1.0000 0.51220  0.87680  0.94420  Biso   1.000  C
  H117     1.0000 0.46040  0.91630  0.93290  Biso   1.000  H
  H118     1.0000 0.49450  0.81380  0.92260  Biso   1.000  H
  C66      1.0000 0.54700  0.87450  0.05110  Biso   1.000  C
  O30      1.0000 0.04060  0.14090  0.14180  Biso   1.000  O
  H119     1.0000 0.97440  0.13920  0.11600  Biso   1.000  H
  H120     1.0000 0.06780  0.15530  0.19690  Biso   1.000  H
  O31      1.0000 0.62946  0.68819  0.32349  Biso   1.000  O
  O32      1.0000 0.75079  0.77176  0.36431  Biso   1.000  O
  O33      1.0000 0.99836  0.32870  0.40214  Biso   1.000  O
  O34      1.0000 0.88622  0.41700  0.41335  Biso   1.000  O
  N13      1.0000 0.72903  0.44650  0.47270  Biso   1.000  N
  N14      1.0000 0.84681  0.34848  0.61335  Biso   1.000  N
  C67      1.0000 0.70780  0.69850  0.36480  Biso   1.000  C
  C68      1.0000 0.75240  0.61440  0.41800  Biso   1.000  C
  H121     1.0000 0.80510  0.59880  0.39270  Biso   1.000  H
  H122     1.0000 0.76970  0.63040  0.48470  Biso   1.000  H
  C69      1.0000 0.69300  0.52910  0.40930  Biso   1.000  C
  H123     1.0000 0.63710  0.54790  0.42570  Biso   1.000  H
  H124     1.0000 0.68220  0.50850  0.34340  Biso   1.000  H
  C70      1.0000 0.73230  0.47220  0.57640  Biso   1.000  C
  H125     1.0000 0.67320  0.48480  0.58730  Biso   1.000  H
  H126     1.0000 0.76630  0.52940  0.59010  Biso   1.000  H
  C71      1.0000 0.77260  0.39570  0.64320  Biso   1.000  C
  H127     1.0000 0.72760  0.34980  0.64960  Biso   1.000  H
  H128     1.0000 0.79230  0.42320  0.70550  Biso   1.000  H
  C72      1.0000 0.87330  0.26660  0.67410  Biso   1.000  C
  H129     1.0000 0.93300  0.24980  0.66870  Biso   1.000  H
  H130     1.0000 0.87250  0.28320  0.74000  Biso   1.000  H
  C73      1.0000 0.81460  0.18080  0.64660  Biso   1.000  C
  H131     1.0000 0.75370  0.19990  0.64170  Biso   1.000  H
  H132     1.0000 0.82660  0.13360  0.69620  Biso   1.000  H
  C74      1.0000 0.67180  0.35940  0.44360  Biso   1.000  C
  H133     1.0000 0.68500  0.31220  0.49310  Biso   1.000  H
  H134     1.0000 0.61050  0.37640  0.43880  Biso   1.000  H
  C75      1.0000 0.92240  0.41240  0.61370  Biso   1.000  C
  H135     1.0000 0.95200  0.42140  0.67880  Biso   1.000  H
  H136     1.0000 0.90100  0.47310  0.58900  Biso   1.000  H
  C76      1.0000 0.98780  0.37680  0.55580  Biso   1.000  C
  H137     1.0000 0.03960  0.41630  0.56710  Biso   1.000  H
  H138     1.0000 0.00550  0.31380  0.57740  Biso   1.000  H
  C77      1.0000 0.95300  0.37450  0.44890  Biso   1.000  C
  O35      1.0000 0.45940  0.64090  0.35820  Biso   1.000  O
  H139     1.0000 0.52560  0.63920  0.38400  Biso   1.000  H
  H140     1.0000 0.43220  0.65530  0.30310  Biso   1.000  H
  O36      1.0000 0.12946  0.18819  0.32349  Biso   1.000  O
  O37      1.0000 0.25079  0.27176  0.36431  Biso   1.000  O
  O38      1.0000 0.49836  0.82870  0.40214  Biso   1.000  O
  O39      1.0000 0.38622  0.91700  0.41335  Biso   1.000  O
  N15      1.0000 0.22903  0.94650  0.47270  Biso   1.000  N
  N16      1.0000 0.34681  0.84848  0.61335  Biso   1.000  N
  C78      1.0000 0.20780  0.19850  0.36480  Biso   1.000  C
  C79      1.0000 0.25240  0.11440  0.41800  Biso   1.000  C
  H141     1.0000 0.30510  0.09880  0.39270  Biso   1.000  H
  H142     1.0000 0.26970  0.13040  0.48470  Biso   1.000  H
  C80      1.0000 0.19300  0.02910  0.40930  Biso   1.000  C
  H143     1.0000 0.13710  0.04790  0.42570  Biso   1.000  H
  H144     1.0000 0.18220  0.00850  0.34340  Biso   1.000  H
  C81      1.0000 0.23230  0.97220  0.57640  Biso   1.000  C
  H145     1.0000 0.17320  0.98480  0.58730  Biso   1.000  H
  H146     1.0000 0.26630  0.02940  0.59010  Biso   1.000  H
  C82      1.0000 0.27260  0.89570  0.64320  Biso   1.000  C
  H147     1.0000 0.22760  0.84980  0.64960  Biso   1.000  H
  H148     1.0000 0.29230  0.92320  0.70550  Biso   1.000  H
  C83      1.0000 0.37330  0.76660  0.67410  Biso   1.000  C
  H149     1.0000 0.43300  0.74980  0.66870  Biso   1.000  H
  H150     1.0000 0.37250  0.78320  0.74000  Biso   1.000  H
  C84      1.0000 0.31460  0.68080  0.64660  Biso   1.000  C
  H151     1.0000 0.25370  0.69990  0.64170  Biso   1.000  H
  H152     1.0000 0.32660  0.63360  0.69620  Biso   1.000  H
  C85      1.0000 0.17180  0.85940  0.44360  Biso   1.000  C
  H153     1.0000 0.18500  0.81220  0.49310  Biso   1.000  H
  H154     1.0000 0.11050  0.87640  0.43880  Biso   1.000  H
  C86      1.0000 0.42240  0.91240  0.61370  Biso   1.000  C
  H155     1.0000 0.45200  0.92140  0.67880  Biso   1.000  H
  H156     1.0000 0.40100  0.97310  0.58900  Biso   1.000  H
  C87      1.0000 0.48780  0.87680  0.55580  Biso   1.000  C
  H157     1.0000 0.53960  0.91630  0.56710  Biso   1.000  H
  H158     1.0000 0.50550  0.81380  0.57740  Biso   1.000  H
  C88      1.0000 0.45300  0.87450  0.44890  Biso   1.000  C
  O40      1.0000 0.95940  0.14090  0.35820  Biso   1.000  O
  H159     1.0000 0.02560  0.13920  0.38400  Biso   1.000  H
  H160     1.0000 0.93220  0.15530  0.30310  Biso   1.000  H
  Gd1      1.0000 0.50000  0.23608  0.75000  Biso   1.000  Gd
  Gd2      1.0000 0.00000  0.73608  0.75000  Biso   1.000  Gd
  Gd3      1.0000 0.50000  0.76392  0.25000  Biso   1.000  Gd
  Gd4      1.0000 0.00000  0.26392  0.25000  Biso   1.000  Gd
