data_image0
_cell_length_a       12.2463
_cell_length_b       15.4577
_cell_length_c       18.8454
_cell_angle_alpha    90
_cell_angle_beta     90
_cell_angle_gamma    90

_symmetry_space_group_name_H-M    "P 1"
_symmetry_int_tables_number       1

loop_
  _symmetry_equiv_pos_as_xyz
  'x, y, z'

loop_
  _atom_site_label
  _atom_site_occupancy
  _atom_site_fract_x
  _atom_site_fract_y
  _atom_site_fract_z
  _atom_site_thermal_displace_type
  _atom_site_B_iso_or_equiv
  _atom_site_type_symbol
  Cd1      1.0000 0.19250  0.21535  0.31604  Biso   1.000  Cd
  O1       1.0000 0.34830  0.16968  0.38357  Biso   1.000  O
  O2       1.0000 0.31260  0.31011  0.38237  Biso   1.000  O
  C1       1.0000 0.36490  0.24590  0.40454  Biso   1.000  C
  C2       1.0000 0.44900  0.25980  0.46186  Biso   1.000  C
  C3       1.0000 0.44200  0.33120  0.50520  Biso   1.000  C
  H1       1.0000 0.38920  0.37490  0.49630  Biso   1.000  H
  C4       1.0000 0.51310  0.33820  0.56200  Biso   1.000  C
  H2       1.0000 0.50650  0.38690  0.59250  Biso   1.000  H
  N1       1.0000 0.59090  0.27966  0.57617  Biso   1.000  N
  C5       1.0000 0.60070  0.21330  0.53120  Biso   1.000  C
  H3       1.0000 0.65750  0.17250  0.53900  Biso   1.000  H
  C6       1.0000 0.53170  0.20120  0.47370  Biso   1.000  C
  H4       1.0000 0.54130  0.15310  0.44290  Biso   1.000  H
  N2       1.0000 0.11440  0.34607  0.27772  Biso   1.000  N
  C7       1.0000 0.13870  0.42220  0.30871  Biso   1.000  C
  H5       1.0000 0.19600  0.42350  0.34270  Biso   1.000  H
  C8       1.0000 0.08450  0.49890  0.29353  Biso   1.000  C
  H6       1.0000 0.10430  0.55130  0.31650  Biso   1.000  H
  C9       1.0000 0.00030  0.49710  0.24396  Biso   1.000  C
  C10      1.0000 0.97570  0.41900  0.21064  Biso   1.000  C
  H7       1.0000 0.91960  0.41600  0.17590  Biso   1.000  H
  C11      1.0000 0.03470  0.34550  0.22920  Biso   1.000  C
  H8       1.0000 0.01760  0.29240  0.20630  Biso   1.000  H
  C12      1.0000 0.93590  0.57750  0.22578  Biso   1.000  C
  O3       1.0000 0.97457  0.65022  0.24190  Biso   1.000  O
  O4       1.0000 0.84706  0.56808  0.19393  Biso   1.000  O
  Cd2      1.0000 0.30750  0.78465  0.81604  Biso   1.000  Cd
  O5       1.0000 0.15170  0.83032  0.88357  Biso   1.000  O
  O6       1.0000 0.18740  0.68989  0.88237  Biso   1.000  O
  C13      1.0000 0.13510  0.75410  0.90454  Biso   1.000  C
  C14      1.0000 0.05100  0.74020  0.96186  Biso   1.000  C
  C15      1.0000 0.05800  0.66880  0.00520  Biso   1.000  C
  H9       1.0000 0.11080  0.62510  0.99630  Biso   1.000  H
  C16      1.0000 0.98690  0.66180  0.06200  Biso   1.000  C
  H10      1.0000 0.99350  0.61310  0.09250  Biso   1.000  H
  N3       1.0000 0.90910  0.72034  0.07617  Biso   1.000  N
  C17      1.0000 0.89930  0.78670  0.03120  Biso   1.000  C
  H11      1.0000 0.84250  0.82750  0.03900  Biso   1.000  H
  C18      1.0000 0.96830  0.79880  0.97370  Biso   1.000  C
  H12      1.0000 0.95870  0.84690  0.94290  Biso   1.000  H
  N4       1.0000 0.38560  0.65393  0.77772  Biso   1.000  N
  C19      1.0000 0.36130  0.57780  0.80871  Biso   1.000  C
  H13      1.0000 0.30400  0.57650  0.84270  Biso   1.000  H
  C20      1.0000 0.41550  0.50110  0.79353  Biso   1.000  C
  H14      1.0000 0.39570  0.44870  0.81650  Biso   1.000  H
  C21      1.0000 0.49970  0.50290  0.74396  Biso   1.000  C
  C22      1.0000 0.52430  0.58100  0.71064  Biso   1.000  C
  H15      1.0000 0.58040  0.58400  0.67590  Biso   1.000  H
  C23      1.0000 0.46530  0.65450  0.72920  Biso   1.000  C
  H16      1.0000 0.48240  0.70760  0.70630  Biso   1.000  H
  C24      1.0000 0.56410  0.42250  0.72578  Biso   1.000  C
  O7       1.0000 0.52543  0.34978  0.74190  Biso   1.000  O
  O8       1.0000 0.65294  0.43192  0.69393  Biso   1.000  O
  Cd3      1.0000 0.80750  0.71535  0.18396  Biso   1.000  Cd
  O9       1.0000 0.65170  0.66968  0.11643  Biso   1.000  O
  O10      1.0000 0.68740  0.81011  0.11763  Biso   1.000  O
  C25      1.0000 0.63510  0.74590  0.09546  Biso   1.000  C
  C26      1.0000 0.55100  0.75980  0.03814  Biso   1.000  C
  C27      1.0000 0.55800  0.83120  0.99480  Biso   1.000  C
  H17      1.0000 0.61080  0.87490  0.00370  Biso   1.000  H
  C28      1.0000 0.48690  0.83820  0.93800  Biso   1.000  C
  H18      1.0000 0.49350  0.88690  0.90750  Biso   1.000  H
  N5       1.0000 0.40910  0.77966  0.92383  Biso   1.000  N
  C29      1.0000 0.39930  0.71330  0.96880  Biso   1.000  C
  H19      1.0000 0.34250  0.67250  0.96100  Biso   1.000  H
  C30      1.0000 0.46830  0.70120  0.02630  Biso   1.000  C
  H20      1.0000 0.45870  0.65310  0.05710  Biso   1.000  H
  N6       1.0000 0.88560  0.84607  0.22228  Biso   1.000  N
  C31      1.0000 0.86130  0.92220  0.19129  Biso   1.000  C
  H21      1.0000 0.80400  0.92350  0.15730  Biso   1.000  H
  C32      1.0000 0.91550  0.99890  0.20647  Biso   1.000  C
  H22      1.0000 0.89570  0.05130  0.18350  Biso   1.000  H
  C33      1.0000 0.99970  0.99710  0.25604  Biso   1.000  C
  C34      1.0000 0.02430  0.91900  0.28936  Biso   1.000  C
  H23      1.0000 0.08040  0.91600  0.32410  Biso   1.000  H
  C35      1.0000 0.96530  0.84550  0.27080  Biso   1.000  C
  H24      1.0000 0.98240  0.79240  0.29370  Biso   1.000  H
  C36      1.0000 0.06410  0.07750  0.27422  Biso   1.000  C
  O11      1.0000 0.02543  0.15022  0.25810  Biso   1.000  O
  O12      1.0000 0.15294  0.06808  0.30607  Biso   1.000  O
  Cd4      1.0000 0.69250  0.28465  0.68396  Biso   1.000  Cd
  O13      1.0000 0.84830  0.33032  0.61643  Biso   1.000  O
  O14      1.0000 0.81260  0.18989  0.61763  Biso   1.000  O
  C37      1.0000 0.86490  0.25410  0.59546  Biso   1.000  C
  C38      1.0000 0.94900  0.24020  0.53814  Biso   1.000  C
  C39      1.0000 0.94200  0.16880  0.49480  Biso   1.000  C
  H25      1.0000 0.88920  0.12510  0.50370  Biso   1.000  H
  C40      1.0000 0.01310  0.16180  0.43800  Biso   1.000  C
  H26      1.0000 0.00650  0.11310  0.40750  Biso   1.000  H
  N7       1.0000 0.09090  0.22034  0.42383  Biso   1.000  N
  C41      1.0000 0.10070  0.28670  0.46880  Biso   1.000  C
  H27      1.0000 0.15750  0.32750  0.46100  Biso   1.000  H
  C42      1.0000 0.03170  0.29880  0.52630  Biso   1.000  C
  H28      1.0000 0.04130  0.34690  0.55710  Biso   1.000  H
  N8       1.0000 0.61440  0.15393  0.72228  Biso   1.000  N
  C43      1.0000 0.63870  0.07780  0.69129  Biso   1.000  C
  H29      1.0000 0.69600  0.07650  0.65730  Biso   1.000  H
  C44      1.0000 0.58450  0.00110  0.70647  Biso   1.000  C
  H30      1.0000 0.60430  0.94870  0.68350  Biso   1.000  H
  C45      1.0000 0.50030  0.00290  0.75604  Biso   1.000  C
  C46      1.0000 0.47570  0.08100  0.78936  Biso   1.000  C
  H31      1.0000 0.41960  0.08400  0.82410  Biso   1.000  H
  C47      1.0000 0.53470  0.15450  0.77080  Biso   1.000  C
  H32      1.0000 0.51760  0.20760  0.79370  Biso   1.000  H
  C48      1.0000 0.43590  0.92250  0.77422  Biso   1.000  C
  O15      1.0000 0.47457  0.84978  0.75810  Biso   1.000  O
  O16      1.0000 0.34706  0.93192  0.80607  Biso   1.000  O
  Cd5      1.0000 0.80750  0.78465  0.68396  Biso   1.000  Cd
  O17      1.0000 0.65170  0.83032  0.61643  Biso   1.000  O
  O18      1.0000 0.68740  0.68989  0.61763  Biso   1.000  O
  C49      1.0000 0.63510  0.75410  0.59546  Biso   1.000  C
  C50      1.0000 0.55100  0.74020  0.53814  Biso   1.000  C
  C51      1.0000 0.55800  0.66880  0.49480  Biso   1.000  C
  H33      1.0000 0.61080  0.62510  0.50370  Biso   1.000  H
  C52      1.0000 0.48690  0.66180  0.43800  Biso   1.000  C
  H34      1.0000 0.49350  0.61310  0.40750  Biso   1.000  H
  N9       1.0000 0.40910  0.72034  0.42383  Biso   1.000  N
  C53      1.0000 0.39930  0.78670  0.46880  Biso   1.000  C
  H35      1.0000 0.34250  0.82750  0.46100  Biso   1.000  H
  C54      1.0000 0.46830  0.79880  0.52630  Biso   1.000  C
  H36      1.0000 0.45870  0.84690  0.55710  Biso   1.000  H
  N10      1.0000 0.88560  0.65393  0.72228  Biso   1.000  N
  C55      1.0000 0.86130  0.57780  0.69129  Biso   1.000  C
  H37      1.0000 0.80400  0.57650  0.65730  Biso   1.000  H
  C56      1.0000 0.91550  0.50110  0.70647  Biso   1.000  C
  H38      1.0000 0.89570  0.44870  0.68350  Biso   1.000  H
  C57      1.0000 0.99970  0.50290  0.75604  Biso   1.000  C
  C58      1.0000 0.02430  0.58100  0.78936  Biso   1.000  C
  H39      1.0000 0.08040  0.58400  0.82410  Biso   1.000  H
  C59      1.0000 0.96530  0.65450  0.77080  Biso   1.000  C
  H40      1.0000 0.98240  0.70760  0.79370  Biso   1.000  H
  C60      1.0000 0.06410  0.42250  0.77422  Biso   1.000  C
  O19      1.0000 0.02543  0.34978  0.75810  Biso   1.000  O
  O20      1.0000 0.15294  0.43192  0.80607  Biso   1.000  O
  Cd6      1.0000 0.69250  0.21535  0.18396  Biso   1.000  Cd
  O21      1.0000 0.84830  0.16968  0.11643  Biso   1.000  O
  O22      1.0000 0.81260  0.31011  0.11763  Biso   1.000  O
  C61      1.0000 0.86490  0.24590  0.09546  Biso   1.000  C
  C62      1.0000 0.94900  0.25980  0.03814  Biso   1.000  C
  C63      1.0000 0.94200  0.33120  0.99480  Biso   1.000  C
  H41      1.0000 0.88920  0.37490  0.00370  Biso   1.000  H
  C64      1.0000 0.01310  0.33820  0.93800  Biso   1.000  C
  H42      1.0000 0.00650  0.38690  0.90750  Biso   1.000  H
  N11      1.0000 0.09090  0.27966  0.92383  Biso   1.000  N
  C65      1.0000 0.10070  0.21330  0.96880  Biso   1.000  C
  H43      1.0000 0.15750  0.17250  0.96100  Biso   1.000  H
  C66      1.0000 0.03170  0.20120  0.02630  Biso   1.000  C
  H44      1.0000 0.04130  0.15310  0.05710  Biso   1.000  H
  N12      1.0000 0.61440  0.34607  0.22228  Biso   1.000  N
  C67      1.0000 0.63870  0.42220  0.19129  Biso   1.000  C
  H45      1.0000 0.69600  0.42350  0.15730  Biso   1.000  H
  C68      1.0000 0.58450  0.49890  0.20647  Biso   1.000  C
  H46      1.0000 0.60430  0.55130  0.18350  Biso   1.000  H
  C69      1.0000 0.50030  0.49710  0.25604  Biso   1.000  C
  C70      1.0000 0.47570  0.41900  0.28936  Biso   1.000  C
  H47      1.0000 0.41960  0.41600  0.32410  Biso   1.000  H
  C71      1.0000 0.53470  0.34550  0.27080  Biso   1.000  C
  H48      1.0000 0.51760  0.29240  0.29370  Biso   1.000  H
  C72      1.0000 0.43590  0.57750  0.27422  Biso   1.000  C
  O23      1.0000 0.47457  0.65022  0.25810  Biso   1.000  O
  O24      1.0000 0.34706  0.56808  0.30607  Biso   1.000  O
  Cd7      1.0000 0.19250  0.28465  0.81604  Biso   1.000  Cd
  O25      1.0000 0.34830  0.33032  0.88357  Biso   1.000  O
  O26      1.0000 0.31260  0.18989  0.88237  Biso   1.000  O
  C73      1.0000 0.36490  0.25410  0.90454  Biso   1.000  C
  C74      1.0000 0.44900  0.24020  0.96186  Biso   1.000  C
  C75      1.0000 0.44200  0.16880  0.00520  Biso   1.000  C
  H49      1.0000 0.38920  0.12510  0.99630  Biso   1.000  H
  C76      1.0000 0.51310  0.16180  0.06200  Biso   1.000  C
  H50      1.0000 0.50650  0.11310  0.09250  Biso   1.000  H
  N13      1.0000 0.59090  0.22034  0.07617  Biso   1.000  N
  C77      1.0000 0.60070  0.28670  0.03120  Biso   1.000  C
  H51      1.0000 0.65750  0.32750  0.03900  Biso   1.000  H
  C78      1.0000 0.53170  0.29880  0.97370  Biso   1.000  C
  H52      1.0000 0.54130  0.34690  0.94290  Biso   1.000  H
  N14      1.0000 0.11440  0.15393  0.77772  Biso   1.000  N
  C79      1.0000 0.13870  0.07780  0.80871  Biso   1.000  C
  H53      1.0000 0.19600  0.07650  0.84270  Biso   1.000  H
  C80      1.0000 0.08450  0.00110  0.79353  Biso   1.000  C
  H54      1.0000 0.10430  0.94870  0.81650  Biso   1.000  H
  C81      1.0000 0.00030  0.00290  0.74396  Biso   1.000  C
  C82      1.0000 0.97570  0.08100  0.71064  Biso   1.000  C
  H55      1.0000 0.91960  0.08400  0.67590  Biso   1.000  H
  C83      1.0000 0.03470  0.15450  0.72920  Biso   1.000  C
  H56      1.0000 0.01760  0.20760  0.70630  Biso   1.000  H
  C84      1.0000 0.93590  0.92250  0.72578  Biso   1.000  C
  O27      1.0000 0.97457  0.84978  0.74190  Biso   1.000  O
  O28      1.0000 0.84706  0.93192  0.69393  Biso   1.000  O
  Cd8      1.0000 0.30750  0.71535  0.31604  Biso   1.000  Cd
  O29      1.0000 0.15170  0.66968  0.38357  Biso   1.000  O
  O30      1.0000 0.18740  0.81011  0.38237  Biso   1.000  O
  C85      1.0000 0.13510  0.74590  0.40454  Biso   1.000  C
  C86      1.0000 0.05100  0.75980  0.46186  Biso   1.000  C
  C87      1.0000 0.05800  0.83120  0.50520  Biso   1.000  C
  H57      1.0000 0.11080  0.87490  0.49630  Biso   1.000  H
  C88      1.0000 0.98690  0.83820  0.56200  Biso   1.000  C
  H58      1.0000 0.99350  0.88690  0.59250  Biso   1.000  H
  N15      1.0000 0.90910  0.77966  0.57617  Biso   1.000  N
  C89      1.0000 0.89930  0.71330  0.53120  Biso   1.000  C
  H59      1.0000 0.84250  0.67250  0.53900  Biso   1.000  H
  C90      1.0000 0.96830  0.70120  0.47370  Biso   1.000  C
  H60      1.0000 0.95870  0.65310  0.44290  Biso   1.000  H
  N16      1.0000 0.38560  0.84607  0.27772  Biso   1.000  N
  C91      1.0000 0.36130  0.92220  0.30871  Biso   1.000  C
  H61      1.0000 0.30400  0.92350  0.34270  Biso   1.000  H
  C92      1.0000 0.41550  0.99890  0.29353  Biso   1.000  C
  H62      1.0000 0.39570  0.05130  0.31650  Biso   1.000  H
  C93      1.0000 0.49970  0.99710  0.24396  Biso   1.000  C
  C94      1.0000 0.52430  0.91900  0.21064  Biso   1.000  C
  H63      1.0000 0.58040  0.91600  0.17590  Biso   1.000  H
  C95      1.0000 0.46530  0.84550  0.22920  Biso   1.000  C
  H64      1.0000 0.48240  0.79240  0.20630  Biso   1.000  H
  C96      1.0000 0.56410  0.07750  0.22578  Biso   1.000  C
  O31      1.0000 0.52543  0.15022  0.24190  Biso   1.000  O
  O32      1.0000 0.65294  0.06808  0.19393  Biso   1.000  O
