data_AVEMAQ_clean
_audit_creation_date              2014-07-02
_audit_creation_method            'Materials Studio'
_symmetry_space_group_name_H-M    'P1'
_symmetry_Int_Tables_number       1
_symmetry_cell_setting            triclinic
loop_
_symmetry_equiv_pos_as_xyz
  x,y,z
_cell_length_a                    13.7327
_cell_length_b                    13.7327
_cell_length_c                    25.4660
_cell_angle_alpha                 90.0000
_cell_angle_beta                  90.0000
_cell_angle_gamma                 90.0000
loop_
_atom_site_label
_atom_site_type_symbol
_atom_site_fract_x
_atom_site_fract_y
_atom_site_fract_z
_atom_site_U_iso_or_equiv
_atom_site_adp_type
_atom_site_occupancy
Ni1    Ni    0.25231   0.40585   0.52372   0.01267  Uiso   1.00
Ni2    Ni    0.74769   0.59415   0.52372   0.01267  Uiso   1.00
Ni3    Ni    0.90585   0.75231   0.97628   0.01267  Uiso   1.00
Ni4    Ni    0.09415   0.24769   0.97628   0.01267  Uiso   1.00
H1     H     0.29470   0.30100   0.44290   0.01267  Uiso   1.00
H2     H     0.24860   0.45510   0.41360   0.01267  Uiso   1.00
H3     H     0.32770   0.50500   0.35720   0.01267  Uiso   1.00
H4     H     0.40450   0.42220   0.36610   0.01267  Uiso   1.00
H5     H     0.29620   0.39560   0.35290   0.01267  Uiso   1.00
H6     H     0.11700   0.56830   0.55160   0.01267  Uiso   1.00
H7     H     0.07430   0.65320   0.62660   0.01267  Uiso   1.00
H8     H     0.19360   0.44200   0.71460   0.01267  Uiso   1.00
H9     H     0.24850   0.38000   0.63570   0.01267  Uiso   1.00
H10    H     0.04060   0.65250   0.71940   0.01267  Uiso   1.00
H11    H     0.05440   0.33190   0.53850   0.01267  Uiso   1.00
H12    H     0.97160   0.18420   0.56760   0.01267  Uiso   1.00
H13    H     0.23510   0.04700   0.56240   0.01267  Uiso   1.00
H14    H     0.30640   0.19670   0.54580   0.01267  Uiso   1.00
H15    H     0.08870   0.94660   0.56510   0.01267  Uiso   1.00
H16    H     0.70530   0.69900   0.44290   0.01267  Uiso   1.00
H17    H     0.75140   0.54490   0.41360   0.01267  Uiso   1.00
H18    H     0.67230   0.49500   0.35720   0.01267  Uiso   1.00
H19    H     0.59550   0.57780   0.36610   0.01267  Uiso   1.00
H20    H     0.70380   0.60440   0.35290   0.01267  Uiso   1.00
H21    H     0.88300   0.43170   0.55160   0.01267  Uiso   1.00
H22    H     0.92570   0.34680   0.62660   0.01267  Uiso   1.00
H23    H     0.80640   0.55800   0.71460   0.01267  Uiso   1.00
H24    H     0.75150   0.62000   0.63570   0.01267  Uiso   1.00
H25    H     0.95940   0.34750   0.71940   0.01267  Uiso   1.00
H26    H     0.94560   0.66810   0.53850   0.01267  Uiso   1.00
H27    H     0.02840   0.81580   0.56760   0.01267  Uiso   1.00
H28    H     0.76490   0.95300   0.56240   0.01267  Uiso   1.00
H29    H     0.69360   0.80330   0.54580   0.01267  Uiso   1.00
H30    H     0.91130   0.05340   0.56510   0.01267  Uiso   1.00
H31    H     0.80100   0.79470   0.05710   0.01267  Uiso   1.00
H32    H     0.95510   0.74860   0.08640   0.01267  Uiso   1.00
H33    H     0.00500   0.82770   0.14280   0.01267  Uiso   1.00
H34    H     0.92220   0.90450   0.13390   0.01267  Uiso   1.00
H35    H     0.89560   0.79620   0.14710   0.01267  Uiso   1.00
H36    H     0.06830   0.61700   0.94840   0.01267  Uiso   1.00
H37    H     0.15320   0.57430   0.87340   0.01267  Uiso   1.00
H38    H     0.94200   0.69360   0.78540   0.01267  Uiso   1.00
H39    H     0.88000   0.74850   0.86430   0.01267  Uiso   1.00
H40    H     0.15250   0.54060   0.78060   0.01267  Uiso   1.00
H41    H     0.83190   0.55440   0.96150   0.01267  Uiso   1.00
H42    H     0.68420   0.47160   0.93240   0.01267  Uiso   1.00
H43    H     0.54700   0.73510   0.93760   0.01267  Uiso   1.00
H44    H     0.69670   0.80640   0.95420   0.01267  Uiso   1.00
H45    H     0.44660   0.58870   0.93490   0.01267  Uiso   1.00
H46    H     0.19900   0.20530   0.05710   0.01267  Uiso   1.00
H47    H     0.04490   0.25140   0.08640   0.01267  Uiso   1.00
H48    H     0.99500   0.17230   0.14280   0.01267  Uiso   1.00
H49    H     0.07780   0.09550   0.13390   0.01267  Uiso   1.00
H50    H     0.10440   0.20380   0.14710   0.01267  Uiso   1.00
H51    H     0.93170   0.38300   0.94840   0.01267  Uiso   1.00
H52    H     0.84680   0.42570   0.87340   0.01267  Uiso   1.00
H53    H     0.05800   0.30640   0.78540   0.01267  Uiso   1.00
H54    H     0.12000   0.25150   0.86430   0.01267  Uiso   1.00
H55    H     0.84750   0.45940   0.78060   0.01267  Uiso   1.00
H56    H     0.16810   0.44560   0.96150   0.01267  Uiso   1.00
H57    H     0.31580   0.52840   0.93240   0.01267  Uiso   1.00
H58    H     0.45300   0.26490   0.93760   0.01267  Uiso   1.00
H59    H     0.30330   0.19360   0.95420   0.01267  Uiso   1.00
H60    H     0.55340   0.41130   0.93490   0.01267  Uiso   1.00
C1     C     0.33350   0.53490   0.45080   0.01267  Uiso   1.00
C2     C     0.31700   0.44000   0.42010   0.01267  Uiso   1.00
C3     C     0.33800   0.44100   0.37100   0.01267  Uiso   1.00
C4     C     0.13790   0.54710   0.58440   0.01267  Uiso   1.00
C5     C     0.10720   0.59430   0.62980   0.01267  Uiso   1.00
C6     C     0.12350   0.55740   0.67890   0.01267  Uiso   1.00
C7     C     0.17930   0.47230   0.68280   0.01267  Uiso   1.00
C8     C     0.21190   0.43690   0.63360   0.01267  Uiso   1.00
C9     C     0.08510   0.60270   0.72550   0.01267  Uiso   1.00
C10    C     0.09090   0.27640   0.54550   0.01267  Uiso   1.00
C11    C     0.03790   0.18470   0.56030   0.01267  Uiso   1.00
C12    C     0.09200   0.10380   0.56230   0.01267  Uiso   1.00
C13    C     0.19810   0.10320   0.55850   0.01267  Uiso   1.00
C14    C     0.23890   0.19420   0.54850   0.01267  Uiso   1.00
C15    C     0.04710   0.00170   0.56690   0.01267  Uiso   1.00
C16    C     0.66650   0.46510   0.45080   0.01267  Uiso   1.00
C17    C     0.68300   0.56000   0.42010   0.01267  Uiso   1.00
C18    C     0.66200   0.55900   0.37100   0.01267  Uiso   1.00
C19    C     0.86210   0.45290   0.58440   0.01267  Uiso   1.00
C20    C     0.89280   0.40570   0.62980   0.01267  Uiso   1.00
C21    C     0.87650   0.44260   0.67890   0.01267  Uiso   1.00
C22    C     0.82070   0.52770   0.68280   0.01267  Uiso   1.00
C23    C     0.78810   0.56310   0.63360   0.01267  Uiso   1.00
C24    C     0.91490   0.39730   0.72550   0.01267  Uiso   1.00
C25    C     0.90910   0.72360   0.54550   0.01267  Uiso   1.00
C26    C     0.96210   0.81530   0.56030   0.01267  Uiso   1.00
C27    C     0.90800   0.89620   0.56230   0.01267  Uiso   1.00
C28    C     0.80190   0.89680   0.55850   0.01267  Uiso   1.00
C29    C     0.76110   0.80580   0.54850   0.01267  Uiso   1.00
C30    C     0.95290   0.99830   0.56690   0.01267  Uiso   1.00
C31    C     0.03490   0.83350   0.04920   0.01267  Uiso   1.00
C32    C     0.94000   0.81700   0.07990   0.01267  Uiso   1.00
C33    C     0.94100   0.83800   0.12900   0.01267  Uiso   1.00
C34    C     0.04710   0.63790   0.91560   0.01267  Uiso   1.00
C35    C     0.09430   0.60720   0.87020   0.01267  Uiso   1.00
C36    C     0.05740   0.62350   0.82110   0.01267  Uiso   1.00
C37    C     0.97230   0.67930   0.81720   0.01267  Uiso   1.00
C38    C     0.93690   0.71190   0.86640   0.01267  Uiso   1.00
C39    C     0.10270   0.58510   0.77450   0.01267  Uiso   1.00
C40    C     0.77640   0.59090   0.95450   0.01267  Uiso   1.00
C41    C     0.68470   0.53790   0.93970   0.01267  Uiso   1.00
C42    C     0.60380   0.59200   0.93770   0.01267  Uiso   1.00
C43    C     0.60320   0.69810   0.94150   0.01267  Uiso   1.00
C44    C     0.69420   0.73890   0.95150   0.01267  Uiso   1.00
C45    C     0.50170   0.54710   0.93310   0.01267  Uiso   1.00
C46    C     0.96510   0.16650   0.04920   0.01267  Uiso   1.00
C47    C     0.06000   0.18300   0.07990   0.01267  Uiso   1.00
C48    C     0.05900   0.16200   0.12900   0.01267  Uiso   1.00
C49    C     0.95290   0.36210   0.91560   0.01267  Uiso   1.00
C50    C     0.90570   0.39280   0.87020   0.01267  Uiso   1.00
C51    C     0.94260   0.37650   0.82110   0.01267  Uiso   1.00
C52    C     0.02770   0.32070   0.81720   0.01267  Uiso   1.00
C53    C     0.06310   0.28810   0.86640   0.01267  Uiso   1.00
C54    C     0.89730   0.41490   0.77450   0.01267  Uiso   1.00
C55    C     0.22360   0.40910   0.95450   0.01267  Uiso   1.00
C56    C     0.31530   0.46210   0.93970   0.01267  Uiso   1.00
C57    C     0.39620   0.40800   0.93770   0.01267  Uiso   1.00
C58    C     0.39680   0.30190   0.94150   0.01267  Uiso   1.00
C59    C     0.30580   0.26110   0.95150   0.01267  Uiso   1.00
C60    C     0.49830   0.45290   0.93310   0.01267  Uiso   1.00
N1     N     0.29400   0.36090   0.45280   0.01267  Uiso   1.00
N2     N     0.20040   0.46780   0.58870   0.01267  Uiso   1.00
N3     N     0.18880   0.28240   0.54190   0.01267  Uiso   1.00
N4     N     0.70600   0.63910   0.45280   0.01267  Uiso   1.00
N5     N     0.79960   0.53220   0.58870   0.01267  Uiso   1.00
N6     N     0.81120   0.71760   0.54190   0.01267  Uiso   1.00
N7     N     0.86090   0.79400   0.04720   0.01267  Uiso   1.00
N8     N     0.96780   0.70040   0.91130   0.01267  Uiso   1.00
N9     N     0.78240   0.68880   0.95810   0.01267  Uiso   1.00
N10    N     0.13910   0.20600   0.04720   0.01267  Uiso   1.00
N11    N     0.03220   0.29960   0.91130   0.01267  Uiso   1.00
N12    N     0.21760   0.31120   0.95810   0.01267  Uiso   1.00
O1     O     0.29520   0.53300   0.49760   0.01267  Uiso   1.00
O2     O     0.37150   0.60660   0.43440   0.01267  Uiso   1.00
O3     O     0.70480   0.46700   0.49760   0.01267  Uiso   1.00
O4     O     0.62850   0.39340   0.43440   0.01267  Uiso   1.00
O5     O     0.03300   0.79520   0.00240   0.01267  Uiso   1.00
O6     O     0.10660   0.87150   0.06560   0.01267  Uiso   1.00
O7     O     0.96700   0.20480   0.00240   0.01267  Uiso   1.00
O8     O     0.89340   0.12850   0.06560   0.01267  Uiso   1.00
Ni5    Ni    0.40585   0.74769   0.47628   0.01267  Uiso   1.00
Ni6    Ni    0.59415   0.25231   0.47628   0.01267  Uiso   1.00
Ni7    Ni    0.75231   0.09415   0.02372   0.01267  Uiso   1.00
Ni8    Ni    0.24769   0.90585   0.02372   0.01267  Uiso   1.00
H61    H     0.30100   0.70530   0.55710   0.01267  Uiso   1.00
H62    H     0.45510   0.75140   0.58640   0.01267  Uiso   1.00
H63    H     0.50500   0.67230   0.64280   0.01267  Uiso   1.00
H64    H     0.42220   0.59550   0.63390   0.01267  Uiso   1.00
H65    H     0.39560   0.70380   0.64710   0.01267  Uiso   1.00
H66    H     0.56830   0.88300   0.44840   0.01267  Uiso   1.00
H67    H     0.65320   0.92570   0.37340   0.01267  Uiso   1.00
H68    H     0.44200   0.80640   0.28540   0.01267  Uiso   1.00
H69    H     0.38000   0.75150   0.36430   0.01267  Uiso   1.00
H70    H     0.65250   0.95940   0.28060   0.01267  Uiso   1.00
H71    H     0.33190   0.94560   0.46150   0.01267  Uiso   1.00
H72    H     0.18420   0.02840   0.43240   0.01267  Uiso   1.00
H73    H     0.04700   0.76490   0.43760   0.01267  Uiso   1.00
H74    H     0.19670   0.69360   0.45420   0.01267  Uiso   1.00
H75    H     0.94660   0.91130   0.43490   0.01267  Uiso   1.00
H76    H     0.69900   0.29470   0.55710   0.01267  Uiso   1.00
H77    H     0.54490   0.24860   0.58640   0.01267  Uiso   1.00
H78    H     0.49500   0.32770   0.64280   0.01267  Uiso   1.00
H79    H     0.57780   0.40450   0.63390   0.01267  Uiso   1.00
H80    H     0.60440   0.29620   0.64710   0.01267  Uiso   1.00
H81    H     0.43170   0.11700   0.44840   0.01267  Uiso   1.00
H82    H     0.34680   0.07430   0.37340   0.01267  Uiso   1.00
H83    H     0.55800   0.19360   0.28540   0.01267  Uiso   1.00
H84    H     0.62000   0.24850   0.36430   0.01267  Uiso   1.00
H85    H     0.34750   0.04060   0.28060   0.01267  Uiso   1.00
H86    H     0.66810   0.05440   0.46150   0.01267  Uiso   1.00
H87    H     0.81580   0.97160   0.43240   0.01267  Uiso   1.00
H88    H     0.95300   0.23510   0.43760   0.01267  Uiso   1.00
H89    H     0.80330   0.30640   0.45420   0.01267  Uiso   1.00
H90    H     0.05340   0.08870   0.43490   0.01267  Uiso   1.00
H91    H     0.79470   0.19900   0.94290   0.01267  Uiso   1.00
H92    H     0.74860   0.04490   0.91360   0.01267  Uiso   1.00
H93    H     0.82770   0.99500   0.85720   0.01267  Uiso   1.00
H94    H     0.90450   0.07780   0.86610   0.01267  Uiso   1.00
H95    H     0.79620   0.10440   0.85290   0.01267  Uiso   1.00
H96    H     0.61700   0.93170   0.05160   0.01267  Uiso   1.00
H97    H     0.57430   0.84680   0.12660   0.01267  Uiso   1.00
H98    H     0.69360   0.05800   0.21460   0.01267  Uiso   1.00
H99    H     0.74850   0.12000   0.13570   0.01267  Uiso   1.00
H100   H     0.54060   0.84750   0.21940   0.01267  Uiso   1.00
H101   H     0.55440   0.16810   0.03850   0.01267  Uiso   1.00
H102   H     0.47160   0.31580   0.06760   0.01267  Uiso   1.00
H103   H     0.73510   0.45300   0.06240   0.01267  Uiso   1.00
H104   H     0.80640   0.30330   0.04580   0.01267  Uiso   1.00
H105   H     0.58870   0.55340   0.06510   0.01267  Uiso   1.00
H106   H     0.20530   0.80100   0.94290   0.01267  Uiso   1.00
H107   H     0.25140   0.95510   0.91360   0.01267  Uiso   1.00
H108   H     0.17230   0.00500   0.85720   0.01267  Uiso   1.00
H109   H     0.09550   0.92220   0.86610   0.01267  Uiso   1.00
H110   H     0.20380   0.89560   0.85290   0.01267  Uiso   1.00
H111   H     0.38300   0.06830   0.05160   0.01267  Uiso   1.00
H112   H     0.42570   0.15320   0.12660   0.01267  Uiso   1.00
H113   H     0.30640   0.94200   0.21460   0.01267  Uiso   1.00
H114   H     0.25150   0.88000   0.13570   0.01267  Uiso   1.00
H115   H     0.45940   0.15250   0.21940   0.01267  Uiso   1.00
H116   H     0.44560   0.83190   0.03850   0.01267  Uiso   1.00
H117   H     0.52840   0.68420   0.06760   0.01267  Uiso   1.00
H118   H     0.26490   0.54700   0.06240   0.01267  Uiso   1.00
H119   H     0.19360   0.69670   0.04580   0.01267  Uiso   1.00
H120   H     0.41130   0.44660   0.06510   0.01267  Uiso   1.00
C61    C     0.53490   0.66650   0.54920   0.01267  Uiso   1.00
C62    C     0.44000   0.68300   0.57990   0.01267  Uiso   1.00
C63    C     0.44100   0.66200   0.62900   0.01267  Uiso   1.00
C64    C     0.54710   0.86210   0.41560   0.01267  Uiso   1.00
C65    C     0.59430   0.89280   0.37020   0.01267  Uiso   1.00
C66    C     0.55740   0.87650   0.32110   0.01267  Uiso   1.00
C67    C     0.47230   0.82070   0.31720   0.01267  Uiso   1.00
C68    C     0.43690   0.78810   0.36640   0.01267  Uiso   1.00
C69    C     0.60270   0.91490   0.27450   0.01267  Uiso   1.00
C70    C     0.27640   0.90910   0.45450   0.01267  Uiso   1.00
C71    C     0.18470   0.96210   0.43970   0.01267  Uiso   1.00
C72    C     0.10380   0.90800   0.43770   0.01267  Uiso   1.00
C73    C     0.10320   0.80190   0.44150   0.01267  Uiso   1.00
C74    C     0.19420   0.76110   0.45150   0.01267  Uiso   1.00
C75    C     0.00170   0.95290   0.43310   0.01267  Uiso   1.00
C76    C     0.46510   0.33350   0.54920   0.01267  Uiso   1.00
C77    C     0.56000   0.31700   0.57990   0.01267  Uiso   1.00
C78    C     0.55900   0.33800   0.62900   0.01267  Uiso   1.00
C79    C     0.45290   0.13790   0.41560   0.01267  Uiso   1.00
C80    C     0.40570   0.10720   0.37020   0.01267  Uiso   1.00
C81    C     0.44260   0.12350   0.32110   0.01267  Uiso   1.00
C82    C     0.52770   0.17930   0.31720   0.01267  Uiso   1.00
C83    C     0.56310   0.21190   0.36640   0.01267  Uiso   1.00
C84    C     0.39730   0.08510   0.27450   0.01267  Uiso   1.00
C85    C     0.72360   0.09090   0.45450   0.01267  Uiso   1.00
C86    C     0.81530   0.03790   0.43970   0.01267  Uiso   1.00
C87    C     0.89620   0.09200   0.43770   0.01267  Uiso   1.00
C88    C     0.89680   0.19810   0.44150   0.01267  Uiso   1.00
C89    C     0.80580   0.23890   0.45150   0.01267  Uiso   1.00
C90    C     0.99830   0.04710   0.43310   0.01267  Uiso   1.00
C91    C     0.83350   0.96510   0.95080   0.01267  Uiso   1.00
C92    C     0.81700   0.06000   0.92010   0.01267  Uiso   1.00
C93    C     0.83800   0.05900   0.87100   0.01267  Uiso   1.00
C94    C     0.63790   0.95290   0.08440   0.01267  Uiso   1.00
C95    C     0.60720   0.90570   0.12980   0.01267  Uiso   1.00
C96    C     0.62350   0.94260   0.17890   0.01267  Uiso   1.00
C97    C     0.67930   0.02770   0.18280   0.01267  Uiso   1.00
C98    C     0.71190   0.06310   0.13360   0.01267  Uiso   1.00
C99    C     0.58510   0.89730   0.22550   0.01267  Uiso   1.00
C100   C     0.59090   0.22360   0.04550   0.01267  Uiso   1.00
C101   C     0.53790   0.31530   0.06030   0.01267  Uiso   1.00
C102   C     0.59200   0.39620   0.06230   0.01267  Uiso   1.00
C103   C     0.69810   0.39680   0.05850   0.01267  Uiso   1.00
C104   C     0.73890   0.30580   0.04850   0.01267  Uiso   1.00
C105   C     0.54710   0.49830   0.06690   0.01267  Uiso   1.00
C106   C     0.16650   0.03490   0.95080   0.01267  Uiso   1.00
C107   C     0.18300   0.94000   0.92010   0.01267  Uiso   1.00
C108   C     0.16200   0.94100   0.87100   0.01267  Uiso   1.00
C109   C     0.36210   0.04710   0.08440   0.01267  Uiso   1.00
C110   C     0.39280   0.09430   0.12980   0.01267  Uiso   1.00
C111   C     0.37650   0.05740   0.17890   0.01267  Uiso   1.00
C112   C     0.32070   0.97230   0.18280   0.01267  Uiso   1.00
C113   C     0.28810   0.93690   0.13360   0.01267  Uiso   1.00
C114   C     0.41490   0.10270   0.22550   0.01267  Uiso   1.00
C115   C     0.40910   0.77640   0.04550   0.01267  Uiso   1.00
C116   C     0.46210   0.68470   0.06030   0.01267  Uiso   1.00
C117   C     0.40800   0.60380   0.06230   0.01267  Uiso   1.00
C118   C     0.30190   0.60320   0.05850   0.01267  Uiso   1.00
C119   C     0.26110   0.69420   0.04850   0.01267  Uiso   1.00
C120   C     0.45290   0.50170   0.06690   0.01267  Uiso   1.00
N13    N     0.36090   0.70600   0.54720   0.01267  Uiso   1.00
N14    N     0.46780   0.79960   0.41130   0.01267  Uiso   1.00
N15    N     0.28240   0.81120   0.45810   0.01267  Uiso   1.00
N16    N     0.63910   0.29400   0.54720   0.01267  Uiso   1.00
N17    N     0.53220   0.20040   0.41130   0.01267  Uiso   1.00
N18    N     0.71760   0.18880   0.45810   0.01267  Uiso   1.00
N19    N     0.79400   0.13910   0.95280   0.01267  Uiso   1.00
N20    N     0.70040   0.03220   0.08870   0.01267  Uiso   1.00
N21    N     0.68880   0.21760   0.04190   0.01267  Uiso   1.00
N22    N     0.20600   0.86090   0.95280   0.01267  Uiso   1.00
N23    N     0.29960   0.96780   0.08870   0.01267  Uiso   1.00
N24    N     0.31120   0.78240   0.04190   0.01267  Uiso   1.00
O9     O     0.53300   0.70480   0.50240   0.01267  Uiso   1.00
O10    O     0.60660   0.62850   0.56560   0.01267  Uiso   1.00
O11    O     0.46700   0.29520   0.50240   0.01267  Uiso   1.00
O12    O     0.39340   0.37150   0.56560   0.01267  Uiso   1.00
O13    O     0.79520   0.96700   0.99760   0.01267  Uiso   1.00
O14    O     0.87150   0.89340   0.93440   0.01267  Uiso   1.00
O15    O     0.20480   0.03300   0.99760   0.01267  Uiso   1.00
O16    O     0.12850   0.10660   0.93440   0.01267  Uiso   1.00
