data_image0
_cell_length_a       12.4957
_cell_length_b       15.3163
_cell_length_c       24.254
_cell_angle_alpha    90
_cell_angle_beta     102.304
_cell_angle_gamma    90

_symmetry_space_group_name_H-M    "P 1"
_symmetry_int_tables_number       1

loop_
  _symmetry_equiv_pos_as_xyz
  'x, y, z'

loop_
  _atom_site_label
  _atom_site_occupancy
  _atom_site_fract_x
  _atom_site_fract_y
  _atom_site_fract_z
  _atom_site_thermal_displace_type
  _atom_site_B_iso_or_equiv
  _atom_site_type_symbol
  C1       1.0000 0.36600  0.47770  0.26012  Biso   1.000  C
  C2       1.0000 0.32272  0.40525  0.22071  Biso   1.000  C
  C3       1.0000 0.22850  0.41778  0.17842  Biso   1.000  C
  H1       1.0000 0.19200  0.47110  0.17550  Biso   1.000  H
  C4       1.0000 0.18947  0.35131  0.14096  Biso   1.000  C
  C5       1.0000 0.24600  0.27389  0.14511  Biso   1.000  C
  H2       1.0000 0.22160  0.22950  0.11940  Biso   1.000  H
  C6       1.0000 0.33990  0.26079  0.18750  Biso   1.000  C
  C7       1.0000 0.37620  0.32655  0.22529  Biso   1.000  C
  H3       1.0000 0.43740  0.31770  0.25410  Biso   1.000  H
  C8       1.0000 0.40450  0.17772  0.18945  Biso   1.000  C
  C9       1.0000 0.09056  0.36728  0.09489  Biso   1.000  C
  C10      1.0000 0.08692  0.44063  0.06228  Biso   1.000  C
  H4       1.0000 0.14520  0.47960  0.07060  Biso   1.000  H
  C11      1.0000 0.00032  0.46004  0.01725  Biso   1.000  C
  C12      1.0000 0.91318  0.39968  0.00763  Biso   1.000  C
  H5       1.0000 0.85370  0.41000  0.97800  Biso   1.000  H
  C13      1.0000 0.91235  0.32587  0.04032  Biso   1.000  C
  C14      1.0000 0.00160  0.30760  0.08502  Biso   1.000  C
  C15      1.0000 0.81701  0.26371  0.02862  Biso   1.000  C
  C16      1.0000 0.78210  0.22622  0.97552  Biso   1.000  C
  H6       1.0000 0.81430  0.24320  0.94600  Biso   1.000  H
  C17      1.0000 0.69910  0.16338  0.96608  Biso   1.000  C
  C18      1.0000 0.65090  0.13875  0.00991  Biso   1.000  C
  H7       1.0000 0.59810  0.09500  0.00430  Biso   1.000  H
  C19      1.0000 0.68070  0.17875  0.06236  Biso   1.000  C
  C20      1.0000 0.76280  0.24115  0.07121  Biso   1.000  C
  H8       1.0000 0.78210  0.26850  0.10620  Biso   1.000  H
  C21      1.0000 0.66280  0.11977  0.90916  Biso   1.000  C
  C22      1.0000 0.62830  0.15130  0.10950  Biso   1.000  C
  N1       1.0000 0.00430  0.23393  0.11780  Biso   1.000  N
  H9       1.0000 0.95060  0.19770  0.11120  Biso   1.000  H
  H10      1.0000 0.05980  0.22420  0.14490  Biso   1.000  H
  O1       1.0000 0.45556  0.46141  0.29452  Biso   1.000  O
  O2       1.0000 0.31470  0.54711  0.25678  Biso   1.000  O
  O3       1.0000 0.48737  0.16775  0.22820  Biso   1.000  O
  O4       1.0000 0.37003  0.12233  0.15150  Biso   1.000  O
  O5       1.0000 0.64430  0.19544  0.15284  Biso   1.000  O
  O6       1.0000 0.57025  0.08237  0.10072  Biso   1.000  O
  O7       1.0000 0.61091  0.04908  0.91116  Biso   1.000  O
  O8       1.0000 0.68280  0.15324  0.86612  Biso   1.000  O
  Zn1      1.0000 0.52892  0.53079  0.35635  Biso   1.000  Zn
  Zn2      1.0000 0.34189  0.67874  0.26134  Biso   1.000  Zn
  C23      1.0000 0.63400  0.97770  0.23988  Biso   1.000  C
  C24      1.0000 0.67728  0.90525  0.27929  Biso   1.000  C
  C25      1.0000 0.77150  0.91778  0.32158  Biso   1.000  C
  H11      1.0000 0.80800  0.97110  0.32450  Biso   1.000  H
  C26      1.0000 0.81053  0.85131  0.35904  Biso   1.000  C
  C27      1.0000 0.75400  0.77389  0.35489  Biso   1.000  C
  H12      1.0000 0.77840  0.72950  0.38060  Biso   1.000  H
  C28      1.0000 0.66010  0.76079  0.31250  Biso   1.000  C
  C29      1.0000 0.62380  0.82655  0.27471  Biso   1.000  C
  H13      1.0000 0.56260  0.81770  0.24590  Biso   1.000  H
  C30      1.0000 0.59550  0.67772  0.31055  Biso   1.000  C
  C31      1.0000 0.90944  0.86728  0.40511  Biso   1.000  C
  C32      1.0000 0.91308  0.94063  0.43772  Biso   1.000  C
  H14      1.0000 0.85480  0.97960  0.42940  Biso   1.000  H
  C33      1.0000 0.99968  0.96004  0.48275  Biso   1.000  C
  C34      1.0000 0.08682  0.89968  0.49237  Biso   1.000  C
  H15      1.0000 0.14630  0.91000  0.52200  Biso   1.000  H
  C35      1.0000 0.08765  0.82587  0.45968  Biso   1.000  C
  C36      1.0000 0.99840  0.80760  0.41498  Biso   1.000  C
  C37      1.0000 0.18299  0.76371  0.47138  Biso   1.000  C
  C38      1.0000 0.21790  0.72622  0.52448  Biso   1.000  C
  H16      1.0000 0.18570  0.74320  0.55400  Biso   1.000  H
  C39      1.0000 0.30090  0.66338  0.53392  Biso   1.000  C
  C40      1.0000 0.34910  0.63875  0.49009  Biso   1.000  C
  H17      1.0000 0.40190  0.59500  0.49570  Biso   1.000  H
  C41      1.0000 0.31930  0.67875  0.43764  Biso   1.000  C
  C42      1.0000 0.23720  0.74115  0.42879  Biso   1.000  C
  H18      1.0000 0.21790  0.76850  0.39380  Biso   1.000  H
  C43      1.0000 0.33720  0.61977  0.59084  Biso   1.000  C
  C44      1.0000 0.37170  0.65130  0.39050  Biso   1.000  C
  N2       1.0000 0.99570  0.73393  0.38220  Biso   1.000  N
  H19      1.0000 0.04940  0.69770  0.38880  Biso   1.000  H
  H20      1.0000 0.94020  0.72420  0.35510  Biso   1.000  H
  O9       1.0000 0.54444  0.96141  0.20548  Biso   1.000  O
  O10      1.0000 0.68530  0.04711  0.24322  Biso   1.000  O
  O11      1.0000 0.51263  0.66775  0.27180  Biso   1.000  O
  O12      1.0000 0.62997  0.62233  0.34850  Biso   1.000  O
  O13      1.0000 0.35570  0.69544  0.34716  Biso   1.000  O
  O14      1.0000 0.42975  0.58237  0.39928  Biso   1.000  O
  O15      1.0000 0.38909  0.54908  0.58884  Biso   1.000  O
  O16      1.0000 0.31720  0.65324  0.63388  Biso   1.000  O
  Zn3      1.0000 0.47108  0.03079  0.14365  Biso   1.000  Zn
  Zn4      1.0000 0.65811  0.17874  0.23866  Biso   1.000  Zn
  C45      1.0000 0.63400  0.52230  0.73988  Biso   1.000  C
  C46      1.0000 0.67728  0.59475  0.77929  Biso   1.000  C
  C47      1.0000 0.77150  0.58222  0.82158  Biso   1.000  C
  H21      1.0000 0.80800  0.52890  0.82450  Biso   1.000  H
  C48      1.0000 0.81053  0.64869  0.85904  Biso   1.000  C
  C49      1.0000 0.75400  0.72611  0.85489  Biso   1.000  C
  H22      1.0000 0.77840  0.77050  0.88060  Biso   1.000  H
  C50      1.0000 0.66010  0.73921  0.81250  Biso   1.000  C
  C51      1.0000 0.62380  0.67345  0.77471  Biso   1.000  C
  H23      1.0000 0.56260  0.68230  0.74590  Biso   1.000  H
  C52      1.0000 0.59550  0.82228  0.81055  Biso   1.000  C
  C53      1.0000 0.90944  0.63272  0.90511  Biso   1.000  C
  C54      1.0000 0.91308  0.55937  0.93772  Biso   1.000  C
  H24      1.0000 0.85480  0.52040  0.92940  Biso   1.000  H
  C55      1.0000 0.99968  0.53996  0.98275  Biso   1.000  C
  C56      1.0000 0.08682  0.60032  0.99237  Biso   1.000  C
  H25      1.0000 0.14630  0.59000  0.02200  Biso   1.000  H
  C57      1.0000 0.08765  0.67413  0.95968  Biso   1.000  C
  C58      1.0000 0.99840  0.69240  0.91498  Biso   1.000  C
  C59      1.0000 0.18299  0.73629  0.97138  Biso   1.000  C
  C60      1.0000 0.21790  0.77378  0.02448  Biso   1.000  C
  H26      1.0000 0.18570  0.75680  0.05400  Biso   1.000  H
  C61      1.0000 0.30090  0.83662  0.03392  Biso   1.000  C
  C62      1.0000 0.34910  0.86125  0.99009  Biso   1.000  C
  H27      1.0000 0.40190  0.90500  0.99570  Biso   1.000  H
  C63      1.0000 0.31930  0.82125  0.93764  Biso   1.000  C
  C64      1.0000 0.23720  0.75885  0.92879  Biso   1.000  C
  H28      1.0000 0.21790  0.73150  0.89380  Biso   1.000  H
  C65      1.0000 0.33720  0.88023  0.09084  Biso   1.000  C
  C66      1.0000 0.37170  0.84870  0.89050  Biso   1.000  C
  N3       1.0000 0.99570  0.76607  0.88220  Biso   1.000  N
  H29      1.0000 0.04940  0.80230  0.88880  Biso   1.000  H
  H30      1.0000 0.94020  0.77580  0.85510  Biso   1.000  H
  O17      1.0000 0.54444  0.53859  0.70548  Biso   1.000  O
  O18      1.0000 0.68530  0.45289  0.74322  Biso   1.000  O
  O19      1.0000 0.51263  0.83225  0.77180  Biso   1.000  O
  O20      1.0000 0.62997  0.87767  0.84850  Biso   1.000  O
  O21      1.0000 0.35570  0.80456  0.84716  Biso   1.000  O
  O22      1.0000 0.42975  0.91763  0.89928  Biso   1.000  O
  O23      1.0000 0.38909  0.95092  0.08884  Biso   1.000  O
  O24      1.0000 0.31720  0.84676  0.13388  Biso   1.000  O
  Zn5      1.0000 0.47108  0.46921  0.64365  Biso   1.000  Zn
  Zn6      1.0000 0.65811  0.32126  0.73866  Biso   1.000  Zn
  C67      1.0000 0.36600  0.02230  0.76012  Biso   1.000  C
  C68      1.0000 0.32272  0.09475  0.72071  Biso   1.000  C
  C69      1.0000 0.22850  0.08222  0.67842  Biso   1.000  C
  H31      1.0000 0.19200  0.02890  0.67550  Biso   1.000  H
  C70      1.0000 0.18947  0.14869  0.64096  Biso   1.000  C
  C71      1.0000 0.24600  0.22611  0.64511  Biso   1.000  C
  H32      1.0000 0.22160  0.27050  0.61940  Biso   1.000  H
  C72      1.0000 0.33990  0.23921  0.68750  Biso   1.000  C
  C73      1.0000 0.37620  0.17345  0.72529  Biso   1.000  C
  H33      1.0000 0.43740  0.18230  0.75410  Biso   1.000  H
  C74      1.0000 0.40450  0.32228  0.68945  Biso   1.000  C
  C75      1.0000 0.09056  0.13272  0.59489  Biso   1.000  C
  C76      1.0000 0.08692  0.05937  0.56228  Biso   1.000  C
  H34      1.0000 0.14520  0.02040  0.57060  Biso   1.000  H
  C77      1.0000 0.00032  0.03996  0.51725  Biso   1.000  C
  C78      1.0000 0.91318  0.10032  0.50763  Biso   1.000  C
  H35      1.0000 0.85370  0.09000  0.47800  Biso   1.000  H
  C79      1.0000 0.91235  0.17413  0.54032  Biso   1.000  C
  C80      1.0000 0.00160  0.19240  0.58502  Biso   1.000  C
  C81      1.0000 0.81701  0.23629  0.52862  Biso   1.000  C
  C82      1.0000 0.78210  0.27378  0.47552  Biso   1.000  C
  H36      1.0000 0.81430  0.25680  0.44600  Biso   1.000  H
  C83      1.0000 0.69910  0.33662  0.46608  Biso   1.000  C
  C84      1.0000 0.65090  0.36125  0.50991  Biso   1.000  C
  H37      1.0000 0.59810  0.40500  0.50430  Biso   1.000  H
  C85      1.0000 0.68070  0.32125  0.56236  Biso   1.000  C
  C86      1.0000 0.76280  0.25885  0.57121  Biso   1.000  C
  H38      1.0000 0.78210  0.23150  0.60620  Biso   1.000  H
  C87      1.0000 0.66280  0.38023  0.40916  Biso   1.000  C
  C88      1.0000 0.62830  0.34870  0.60950  Biso   1.000  C
  N4       1.0000 0.00430  0.26607  0.61780  Biso   1.000  N
  H39      1.0000 0.95060  0.30230  0.61120  Biso   1.000  H
  H40      1.0000 0.05980  0.27580  0.64490  Biso   1.000  H
  O25      1.0000 0.45556  0.03859  0.79452  Biso   1.000  O
  O26      1.0000 0.31470  0.95289  0.75678  Biso   1.000  O
  O27      1.0000 0.48737  0.33225  0.72820  Biso   1.000  O
  O28      1.0000 0.37003  0.37767  0.65150  Biso   1.000  O
  O29      1.0000 0.64430  0.30456  0.65284  Biso   1.000  O
  O30      1.0000 0.57025  0.41763  0.60072  Biso   1.000  O
  O31      1.0000 0.61091  0.45092  0.41116  Biso   1.000  O
  O32      1.0000 0.68280  0.34676  0.36612  Biso   1.000  O
  Zn7      1.0000 0.52892  0.96921  0.85635  Biso   1.000  Zn
  Zn8      1.0000 0.34189  0.82126  0.76134  Biso   1.000  Zn
