data_image0
_cell_length_a       29.218
_cell_length_b       11.1912
_cell_length_c       22.9833
_cell_angle_alpha    90
_cell_angle_beta     90
_cell_angle_gamma    90

_symmetry_space_group_name_H-M    "P 1"
_symmetry_int_tables_number       1

loop_
  _symmetry_equiv_pos_as_xyz
  'x, y, z'

loop_
  _atom_site_label
  _atom_site_occupancy
  _atom_site_fract_x
  _atom_site_fract_y
  _atom_site_fract_z
  _atom_site_thermal_displace_type
  _atom_site_B_iso_or_equiv
  _atom_site_type_symbol
  Cd1      1.0000 0.11480  0.54311  0.19135  Biso   1.000  Cd
  Cd2      1.0000 0.06184  0.75361  0.09348  Biso   1.000  Cd
  O1       1.0000 0.10890  0.57890  0.09210  Biso   1.000  O
  O2       1.0000 0.17900  0.54800  0.11990  Biso   1.000  O
  O3       1.0000 0.32450  0.53550  0.76240  Biso   1.000  O
  O4       1.0000 0.39530  0.53620  0.79170  Biso   1.000  O
  O5       1.0000 0.37300  0.65610  0.05880  Biso   1.000  O
  O6       1.0000 0.42520  0.69650  0.99510  Biso   1.000  O
  O7       1.0000 0.96270  0.44680  0.81260  Biso   1.000  O
  O8       1.0000 0.99190  0.37640  0.89610  Biso   1.000  O
  O9       1.0000 0.12260  0.75370  0.70980  Biso   1.000  O
  O10      1.0000 0.05980  0.66400  0.67980  Biso   1.000  O
  C1       1.0000 0.15140  0.56530  0.08120  Biso   1.000  C
  C2       1.0000 0.16640  0.56990  0.01810  Biso   1.000  C
  C3       1.0000 0.21190  0.57240  0.00480  Biso   1.000  C
  H1       1.0000 0.23360  0.56920  0.03430  Biso   1.000  H
  C4       1.0000 0.22590  0.57970  0.94680  Biso   1.000  C
  C5       1.0000 0.19280  0.58240  0.90390  Biso   1.000  C
  H2       1.0000 0.20200  0.58890  0.86530  Biso   1.000  H
  C6       1.0000 0.14660  0.57570  0.91620  Biso   1.000  C
  C7       1.0000 0.13350  0.57020  0.97460  Biso   1.000  C
  H3       1.0000 0.10260  0.56660  0.98440  Biso   1.000  H
  C8       1.0000 0.35330  0.54260  0.80120  Biso   1.000  C
  C9       1.0000 0.38560  0.65930  0.00790  Biso   1.000  C
  C10      1.0000 0.33790  0.56830  0.86200  Biso   1.000  C
  C11      1.0000 0.36860  0.59660  0.90440  Biso   1.000  C
  H4       1.0000 0.39970  0.59810  0.89580  Biso   1.000  H
  C12      1.0000 0.35350  0.62390  0.96170  Biso   1.000  C
  C13      1.0000 0.30840  0.61430  0.97350  Biso   1.000  C
  H5       1.0000 0.29880  0.62720  0.01160  Biso   1.000  H
  C14      1.0000 0.27590  0.58650  0.93220  Biso   1.000  C
  C15      1.0000 0.29160  0.55840  0.87630  Biso   1.000  C
  H6       1.0000 0.27090  0.53280  0.84820  Biso   1.000  H
  C16      1.0000 0.99360  0.43820  0.84840  Biso   1.000  C
  C17      1.0000 0.08910  0.68660  0.71770  Biso   1.000  C
  C18      1.0000 0.03750  0.50590  0.83750  Biso   1.000  C
  C19      1.0000 0.04320  0.56090  0.78580  Biso   1.000  C
  H7       1.0000 0.02050  0.55640  0.75760  Biso   1.000  H
  C20      1.0000 0.08320  0.62430  0.77480  Biso   1.000  C
  C21      1.0000 0.11630  0.63060  0.81770  Biso   1.000  C
  H8       1.0000 0.14280  0.67460  0.81060  Biso   1.000  H
  C22      1.0000 0.11140  0.57400  0.87050  Biso   1.000  C
  C23      1.0000 0.07110  0.51070  0.88000  Biso   1.000  C
  H9       1.0000 0.06660  0.47130  0.91520  Biso   1.000  H
  Cd3      1.0000 0.38520  0.95689  0.19135  Biso   1.000  Cd
  Cd4      1.0000 0.43816  0.74639  0.09348  Biso   1.000  Cd
  O11      1.0000 0.39110  0.92110  0.09210  Biso   1.000  O
  O12      1.0000 0.32100  0.95200  0.11990  Biso   1.000  O
  O13      1.0000 0.17550  0.96450  0.76240  Biso   1.000  O
  O14      1.0000 0.10470  0.96380  0.79170  Biso   1.000  O
  O15      1.0000 0.12700  0.84390  0.05880  Biso   1.000  O
  O16      1.0000 0.07480  0.80350  0.99510  Biso   1.000  O
  O17      1.0000 0.53730  0.05320  0.81260  Biso   1.000  O
  O18      1.0000 0.50810  0.12360  0.89610  Biso   1.000  O
  O19      1.0000 0.37740  0.74630  0.70980  Biso   1.000  O
  O20      1.0000 0.44020  0.83600  0.67980  Biso   1.000  O
  C24      1.0000 0.34860  0.93470  0.08120  Biso   1.000  C
  C25      1.0000 0.33360  0.93010  0.01810  Biso   1.000  C
  C26      1.0000 0.28810  0.92760  0.00480  Biso   1.000  C
  H10      1.0000 0.26640  0.93080  0.03430  Biso   1.000  H
  C27      1.0000 0.27410  0.92030  0.94680  Biso   1.000  C
  C28      1.0000 0.30720  0.91760  0.90390  Biso   1.000  C
  H11      1.0000 0.29800  0.91110  0.86530  Biso   1.000  H
  C29      1.0000 0.35340  0.92430  0.91620  Biso   1.000  C
  C30      1.0000 0.36650  0.92980  0.97460  Biso   1.000  C
  H12      1.0000 0.39740  0.93340  0.98440  Biso   1.000  H
  C31      1.0000 0.14670  0.95740  0.80120  Biso   1.000  C
  C32      1.0000 0.11440  0.84070  0.00790  Biso   1.000  C
  C33      1.0000 0.16210  0.93170  0.86200  Biso   1.000  C
  C34      1.0000 0.13140  0.90340  0.90440  Biso   1.000  C
  H13      1.0000 0.10030  0.90190  0.89580  Biso   1.000  H
  C35      1.0000 0.14650  0.87610  0.96170  Biso   1.000  C
  C36      1.0000 0.19160  0.88570  0.97350  Biso   1.000  C
  H14      1.0000 0.20120  0.87280  0.01160  Biso   1.000  H
  C37      1.0000 0.22410  0.91350  0.93220  Biso   1.000  C
  C38      1.0000 0.20840  0.94160  0.87630  Biso   1.000  C
  H15      1.0000 0.22910  0.96720  0.84820  Biso   1.000  H
  C39      1.0000 0.50640  0.06180  0.84840  Biso   1.000  C
  C40      1.0000 0.41090  0.81340  0.71770  Biso   1.000  C
  C41      1.0000 0.46250  0.99410  0.83750  Biso   1.000  C
  C42      1.0000 0.45680  0.93910  0.78580  Biso   1.000  C
  H16      1.0000 0.47950  0.94360  0.75760  Biso   1.000  H
  C43      1.0000 0.41680  0.87570  0.77480  Biso   1.000  C
  C44      1.0000 0.38370  0.86940  0.81770  Biso   1.000  C
  H17      1.0000 0.35720  0.82540  0.81060  Biso   1.000  H
  C45      1.0000 0.38860  0.92600  0.87050  Biso   1.000  C
  C46      1.0000 0.42890  0.98930  0.88000  Biso   1.000  C
  H18      1.0000 0.43340  0.02870  0.91520  Biso   1.000  H
  Cd5      1.0000 0.88520  0.04311  0.30865  Biso   1.000  Cd
  Cd6      1.0000 0.93816  0.25361  0.40652  Biso   1.000  Cd
  O21      1.0000 0.89110  0.07890  0.40790  Biso   1.000  O
  O22      1.0000 0.82100  0.04800  0.38010  Biso   1.000  O
  O23      1.0000 0.67550  0.03550  0.73760  Biso   1.000  O
  O24      1.0000 0.60470  0.03620  0.70830  Biso   1.000  O
  O25      1.0000 0.62700  0.15610  0.44120  Biso   1.000  O
  O26      1.0000 0.57480  0.19650  0.50490  Biso   1.000  O
  O27      1.0000 0.03730  0.94680  0.68740  Biso   1.000  O
  O28      1.0000 0.00810  0.87640  0.60390  Biso   1.000  O
  O29      1.0000 0.87740  0.25370  0.79020  Biso   1.000  O
  O30      1.0000 0.94020  0.16400  0.82020  Biso   1.000  O
  C47      1.0000 0.84860  0.06530  0.41880  Biso   1.000  C
  C48      1.0000 0.83360  0.06990  0.48190  Biso   1.000  C
  C49      1.0000 0.78810  0.07240  0.49520  Biso   1.000  C
  H19      1.0000 0.76640  0.06920  0.46570  Biso   1.000  H
  C50      1.0000 0.77410  0.07970  0.55320  Biso   1.000  C
  C51      1.0000 0.80720  0.08240  0.59610  Biso   1.000  C
  H20      1.0000 0.79800  0.08890  0.63470  Biso   1.000  H
  C52      1.0000 0.85340  0.07570  0.58380  Biso   1.000  C
  C53      1.0000 0.86650  0.07020  0.52540  Biso   1.000  C
  H21      1.0000 0.89740  0.06660  0.51560  Biso   1.000  H
  C54      1.0000 0.64670  0.04260  0.69880  Biso   1.000  C
  C55      1.0000 0.61440  0.15930  0.49210  Biso   1.000  C
  C56      1.0000 0.66210  0.06830  0.63800  Biso   1.000  C
  C57      1.0000 0.63140  0.09660  0.59560  Biso   1.000  C
  H22      1.0000 0.60030  0.09810  0.60420  Biso   1.000  H
  C58      1.0000 0.64650  0.12390  0.53830  Biso   1.000  C
  C59      1.0000 0.69160  0.11430  0.52650  Biso   1.000  C
  H23      1.0000 0.70120  0.12720  0.48840  Biso   1.000  H
  C60      1.0000 0.72410  0.08650  0.56780  Biso   1.000  C
  C61      1.0000 0.70840  0.05840  0.62370  Biso   1.000  C
  H24      1.0000 0.72910  0.03280  0.65180  Biso   1.000  H
  C62      1.0000 0.00640  0.93820  0.65160  Biso   1.000  C
  C63      1.0000 0.91090  0.18660  0.78230  Biso   1.000  C
  C64      1.0000 0.96250  0.00590  0.66250  Biso   1.000  C
  C65      1.0000 0.95680  0.06090  0.71420  Biso   1.000  C
  H25      1.0000 0.97950  0.05640  0.74240  Biso   1.000  H
  C66      1.0000 0.91680  0.12430  0.72520  Biso   1.000  C
  C67      1.0000 0.88370  0.13060  0.68230  Biso   1.000  C
  H26      1.0000 0.85720  0.17460  0.68940  Biso   1.000  H
  C68      1.0000 0.88860  0.07400  0.62950  Biso   1.000  C
  C69      1.0000 0.92890  0.01070  0.62000  Biso   1.000  C
  H27      1.0000 0.93340  0.97130  0.58480  Biso   1.000  H
  Cd7      1.0000 0.61480  0.45689  0.30865  Biso   1.000  Cd
  Cd8      1.0000 0.56184  0.24639  0.40652  Biso   1.000  Cd
  O31      1.0000 0.60890  0.42110  0.40790  Biso   1.000  O
  O32      1.0000 0.67900  0.45200  0.38010  Biso   1.000  O
  O33      1.0000 0.82450  0.46450  0.73760  Biso   1.000  O
  O34      1.0000 0.89530  0.46380  0.70830  Biso   1.000  O
  O35      1.0000 0.87300  0.34390  0.44120  Biso   1.000  O
  O36      1.0000 0.92520  0.30350  0.50490  Biso   1.000  O
  O37      1.0000 0.46270  0.55320  0.68740  Biso   1.000  O
  O38      1.0000 0.49190  0.62360  0.60390  Biso   1.000  O
  O39      1.0000 0.62260  0.24630  0.79020  Biso   1.000  O
  O40      1.0000 0.55980  0.33600  0.82020  Biso   1.000  O
  C70      1.0000 0.65140  0.43470  0.41880  Biso   1.000  C
  C71      1.0000 0.66640  0.43010  0.48190  Biso   1.000  C
  C72      1.0000 0.71190  0.42760  0.49520  Biso   1.000  C
  H28      1.0000 0.73360  0.43080  0.46570  Biso   1.000  H
  C73      1.0000 0.72590  0.42030  0.55320  Biso   1.000  C
  C74      1.0000 0.69280  0.41760  0.59610  Biso   1.000  C
  H29      1.0000 0.70200  0.41110  0.63470  Biso   1.000  H
  C75      1.0000 0.64660  0.42430  0.58380  Biso   1.000  C
  C76      1.0000 0.63350  0.42980  0.52540  Biso   1.000  C
  H30      1.0000 0.60260  0.43340  0.51560  Biso   1.000  H
  C77      1.0000 0.85330  0.45740  0.69880  Biso   1.000  C
  C78      1.0000 0.88560  0.34070  0.49210  Biso   1.000  C
  C79      1.0000 0.83790  0.43170  0.63800  Biso   1.000  C
  C80      1.0000 0.86860  0.40340  0.59560  Biso   1.000  C
  H31      1.0000 0.89970  0.40190  0.60420  Biso   1.000  H
  C81      1.0000 0.85350  0.37610  0.53830  Biso   1.000  C
  C82      1.0000 0.80840  0.38570  0.52650  Biso   1.000  C
  H32      1.0000 0.79880  0.37280  0.48840  Biso   1.000  H
  C83      1.0000 0.77590  0.41350  0.56780  Biso   1.000  C
  C84      1.0000 0.79160  0.44160  0.62370  Biso   1.000  C
  H33      1.0000 0.77090  0.46720  0.65180  Biso   1.000  H
  C85      1.0000 0.49360  0.56180  0.65160  Biso   1.000  C
  C86      1.0000 0.58910  0.31340  0.78230  Biso   1.000  C
  C87      1.0000 0.53750  0.49410  0.66250  Biso   1.000  C
  C88      1.0000 0.54320  0.43910  0.71420  Biso   1.000  C
  H34      1.0000 0.52050  0.44360  0.74240  Biso   1.000  H
  C89      1.0000 0.58320  0.37570  0.72520  Biso   1.000  C
  C90      1.0000 0.61630  0.36940  0.68230  Biso   1.000  C
  H35      1.0000 0.64280  0.32540  0.68940  Biso   1.000  H
  C91      1.0000 0.61140  0.42600  0.62950  Biso   1.000  C
  C92      1.0000 0.57110  0.48930  0.62000  Biso   1.000  C
  H36      1.0000 0.56660  0.52870  0.58480  Biso   1.000  H
  Cd9      1.0000 0.88520  0.45689  0.80865  Biso   1.000  Cd
  Cd10     1.0000 0.93816  0.24639  0.90652  Biso   1.000  Cd
  O41      1.0000 0.89110  0.42110  0.90790  Biso   1.000  O
  O42      1.0000 0.82100  0.45200  0.88010  Biso   1.000  O
  O43      1.0000 0.67550  0.46450  0.23760  Biso   1.000  O
  O44      1.0000 0.60470  0.46380  0.20830  Biso   1.000  O
  O45      1.0000 0.62700  0.34390  0.94120  Biso   1.000  O
  O46      1.0000 0.57480  0.30350  0.00490  Biso   1.000  O
  O47      1.0000 0.03730  0.55320  0.18740  Biso   1.000  O
  O48      1.0000 0.00810  0.62360  0.10390  Biso   1.000  O
  O49      1.0000 0.87740  0.24630  0.29020  Biso   1.000  O
  O50      1.0000 0.94020  0.33600  0.32020  Biso   1.000  O
  C93      1.0000 0.84860  0.43470  0.91880  Biso   1.000  C
  C94      1.0000 0.83360  0.43010  0.98190  Biso   1.000  C
  C95      1.0000 0.78810  0.42760  0.99520  Biso   1.000  C
  H37      1.0000 0.76640  0.43080  0.96570  Biso   1.000  H
  C96      1.0000 0.77410  0.42030  0.05320  Biso   1.000  C
  C97      1.0000 0.80720  0.41760  0.09610  Biso   1.000  C
  H38      1.0000 0.79800  0.41110  0.13470  Biso   1.000  H
  C98      1.0000 0.85340  0.42430  0.08380  Biso   1.000  C
  C99      1.0000 0.86650  0.42980  0.02540  Biso   1.000  C
  H39      1.0000 0.89740  0.43340  0.01560  Biso   1.000  H
  C100     1.0000 0.64670  0.45740  0.19880  Biso   1.000  C
  C101     1.0000 0.61440  0.34070  0.99210  Biso   1.000  C
  C102     1.0000 0.66210  0.43170  0.13800  Biso   1.000  C
  C103     1.0000 0.63140  0.40340  0.09560  Biso   1.000  C
  H40      1.0000 0.60030  0.40190  0.10420  Biso   1.000  H
  C104     1.0000 0.64650  0.37610  0.03830  Biso   1.000  C
  C105     1.0000 0.69160  0.38570  0.02650  Biso   1.000  C
  H41      1.0000 0.70120  0.37280  0.98840  Biso   1.000  H
  C106     1.0000 0.72410  0.41350  0.06780  Biso   1.000  C
  C107     1.0000 0.70840  0.44160  0.12370  Biso   1.000  C
  H42      1.0000 0.72910  0.46720  0.15180  Biso   1.000  H
  C108     1.0000 0.00640  0.56180  0.15160  Biso   1.000  C
  C109     1.0000 0.91090  0.31340  0.28230  Biso   1.000  C
  C110     1.0000 0.96250  0.49410  0.16250  Biso   1.000  C
  C111     1.0000 0.95680  0.43910  0.21420  Biso   1.000  C
  H43      1.0000 0.97950  0.44360  0.24240  Biso   1.000  H
  C112     1.0000 0.91680  0.37570  0.22520  Biso   1.000  C
  C113     1.0000 0.88370  0.36940  0.18230  Biso   1.000  C
  H44      1.0000 0.85720  0.32540  0.18940  Biso   1.000  H
  C114     1.0000 0.88860  0.42600  0.12950  Biso   1.000  C
  C115     1.0000 0.92890  0.48930  0.12000  Biso   1.000  C
  H45      1.0000 0.93340  0.52870  0.08480  Biso   1.000  H
  Cd11     1.0000 0.61480  0.04311  0.80865  Biso   1.000  Cd
  Cd12     1.0000 0.56184  0.25361  0.90652  Biso   1.000  Cd
  O51      1.0000 0.60890  0.07890  0.90790  Biso   1.000  O
  O52      1.0000 0.67900  0.04800  0.88010  Biso   1.000  O
  O53      1.0000 0.82450  0.03550  0.23760  Biso   1.000  O
  O54      1.0000 0.89530  0.03620  0.20830  Biso   1.000  O
  O55      1.0000 0.87300  0.15610  0.94120  Biso   1.000  O
  O56      1.0000 0.92520  0.19650  0.00490  Biso   1.000  O
  O57      1.0000 0.46270  0.94680  0.18740  Biso   1.000  O
  O58      1.0000 0.49190  0.87640  0.10390  Biso   1.000  O
  O59      1.0000 0.62260  0.25370  0.29020  Biso   1.000  O
  O60      1.0000 0.55980  0.16400  0.32020  Biso   1.000  O
  C116     1.0000 0.65140  0.06530  0.91880  Biso   1.000  C
  C117     1.0000 0.66640  0.06990  0.98190  Biso   1.000  C
  C118     1.0000 0.71190  0.07240  0.99520  Biso   1.000  C
  H46      1.0000 0.73360  0.06920  0.96570  Biso   1.000  H
  C119     1.0000 0.72590  0.07970  0.05320  Biso   1.000  C
  C120     1.0000 0.69280  0.08240  0.09610  Biso   1.000  C
  H47      1.0000 0.70200  0.08890  0.13470  Biso   1.000  H
  C121     1.0000 0.64660  0.07570  0.08380  Biso   1.000  C
  C122     1.0000 0.63350  0.07020  0.02540  Biso   1.000  C
  H48      1.0000 0.60260  0.06660  0.01560  Biso   1.000  H
  C123     1.0000 0.85330  0.04260  0.19880  Biso   1.000  C
  C124     1.0000 0.88560  0.15930  0.99210  Biso   1.000  C
  C125     1.0000 0.83790  0.06830  0.13800  Biso   1.000  C
  C126     1.0000 0.86860  0.09660  0.09560  Biso   1.000  C
  H49      1.0000 0.89970  0.09810  0.10420  Biso   1.000  H
  C127     1.0000 0.85350  0.12390  0.03830  Biso   1.000  C
  C128     1.0000 0.80840  0.11430  0.02650  Biso   1.000  C
  H50      1.0000 0.79880  0.12720  0.98840  Biso   1.000  H
  C129     1.0000 0.77590  0.08650  0.06780  Biso   1.000  C
  C130     1.0000 0.79160  0.05840  0.12370  Biso   1.000  C
  H51      1.0000 0.77090  0.03280  0.15180  Biso   1.000  H
  C131     1.0000 0.49360  0.93820  0.15160  Biso   1.000  C
  C132     1.0000 0.58910  0.18660  0.28230  Biso   1.000  C
  C133     1.0000 0.53750  0.00590  0.16250  Biso   1.000  C
  C134     1.0000 0.54320  0.06090  0.21420  Biso   1.000  C
  H52      1.0000 0.52050  0.05640  0.24240  Biso   1.000  H
  C135     1.0000 0.58320  0.12430  0.22520  Biso   1.000  C
  C136     1.0000 0.61630  0.13060  0.18230  Biso   1.000  C
  H53      1.0000 0.64280  0.17460  0.18940  Biso   1.000  H
  C137     1.0000 0.61140  0.07400  0.12950  Biso   1.000  C
  C138     1.0000 0.57110  0.01070  0.12000  Biso   1.000  C
  H54      1.0000 0.56660  0.97130  0.08480  Biso   1.000  H
  Cd13     1.0000 0.11480  0.95689  0.69135  Biso   1.000  Cd
  Cd14     1.0000 0.06184  0.74639  0.59348  Biso   1.000  Cd
  O61      1.0000 0.10890  0.92110  0.59210  Biso   1.000  O
  O62      1.0000 0.17900  0.95200  0.61990  Biso   1.000  O
  O63      1.0000 0.32450  0.96450  0.26240  Biso   1.000  O
  O64      1.0000 0.39530  0.96380  0.29170  Biso   1.000  O
  O65      1.0000 0.37300  0.84390  0.55880  Biso   1.000  O
  O66      1.0000 0.42520  0.80350  0.49510  Biso   1.000  O
  O67      1.0000 0.96270  0.05320  0.31260  Biso   1.000  O
  O68      1.0000 0.99190  0.12360  0.39610  Biso   1.000  O
  O69      1.0000 0.12260  0.74630  0.20980  Biso   1.000  O
  O70      1.0000 0.05980  0.83600  0.17980  Biso   1.000  O
  C139     1.0000 0.15140  0.93470  0.58120  Biso   1.000  C
  C140     1.0000 0.16640  0.93010  0.51810  Biso   1.000  C
  C141     1.0000 0.21190  0.92760  0.50480  Biso   1.000  C
  H55      1.0000 0.23360  0.93080  0.53430  Biso   1.000  H
  C142     1.0000 0.22590  0.92030  0.44680  Biso   1.000  C
  C143     1.0000 0.19280  0.91760  0.40390  Biso   1.000  C
  H56      1.0000 0.20200  0.91110  0.36530  Biso   1.000  H
  C144     1.0000 0.14660  0.92430  0.41620  Biso   1.000  C
  C145     1.0000 0.13350  0.92980  0.47460  Biso   1.000  C
  H57      1.0000 0.10260  0.93340  0.48440  Biso   1.000  H
  C146     1.0000 0.35330  0.95740  0.30120  Biso   1.000  C
  C147     1.0000 0.38560  0.84070  0.50790  Biso   1.000  C
  C148     1.0000 0.33790  0.93170  0.36200  Biso   1.000  C
  C149     1.0000 0.36860  0.90340  0.40440  Biso   1.000  C
  H58      1.0000 0.39970  0.90190  0.39580  Biso   1.000  H
  C150     1.0000 0.35350  0.87610  0.46170  Biso   1.000  C
  C151     1.0000 0.30840  0.88570  0.47350  Biso   1.000  C
  H59      1.0000 0.29880  0.87280  0.51160  Biso   1.000  H
  C152     1.0000 0.27590  0.91350  0.43220  Biso   1.000  C
  C153     1.0000 0.29160  0.94160  0.37630  Biso   1.000  C
  H60      1.0000 0.27090  0.96720  0.34820  Biso   1.000  H
  C154     1.0000 0.99360  0.06180  0.34840  Biso   1.000  C
  C155     1.0000 0.08910  0.81340  0.21770  Biso   1.000  C
  C156     1.0000 0.03750  0.99410  0.33750  Biso   1.000  C
  C157     1.0000 0.04320  0.93910  0.28580  Biso   1.000  C
  H61      1.0000 0.02050  0.94360  0.25760  Biso   1.000  H
  C158     1.0000 0.08320  0.87570  0.27480  Biso   1.000  C
  C159     1.0000 0.11630  0.86940  0.31770  Biso   1.000  C
  H62      1.0000 0.14280  0.82540  0.31060  Biso   1.000  H
  C160     1.0000 0.11140  0.92600  0.37050  Biso   1.000  C
  C161     1.0000 0.07110  0.98930  0.38000  Biso   1.000  C
  H63      1.0000 0.06660  0.02870  0.41520  Biso   1.000  H
  Cd15     1.0000 0.38520  0.54311  0.69135  Biso   1.000  Cd
  Cd16     1.0000 0.43816  0.75361  0.59348  Biso   1.000  Cd
  O71      1.0000 0.39110  0.57890  0.59210  Biso   1.000  O
  O72      1.0000 0.32100  0.54800  0.61990  Biso   1.000  O
  O73      1.0000 0.17550  0.53550  0.26240  Biso   1.000  O
  O74      1.0000 0.10470  0.53620  0.29170  Biso   1.000  O
  O75      1.0000 0.12700  0.65610  0.55880  Biso   1.000  O
  O76      1.0000 0.07480  0.69650  0.49510  Biso   1.000  O
  O77      1.0000 0.53730  0.44680  0.31260  Biso   1.000  O
  O78      1.0000 0.50810  0.37640  0.39610  Biso   1.000  O
  O79      1.0000 0.37740  0.75370  0.20980  Biso   1.000  O
  O80      1.0000 0.44020  0.66400  0.17980  Biso   1.000  O
  C162     1.0000 0.34860  0.56530  0.58120  Biso   1.000  C
  C163     1.0000 0.33360  0.56990  0.51810  Biso   1.000  C
  C164     1.0000 0.28810  0.57240  0.50480  Biso   1.000  C
  H64      1.0000 0.26640  0.56920  0.53430  Biso   1.000  H
  C165     1.0000 0.27410  0.57970  0.44680  Biso   1.000  C
  C166     1.0000 0.30720  0.58240  0.40390  Biso   1.000  C
  H65      1.0000 0.29800  0.58890  0.36530  Biso   1.000  H
  C167     1.0000 0.35340  0.57570  0.41620  Biso   1.000  C
  C168     1.0000 0.36650  0.57020  0.47460  Biso   1.000  C
  H66      1.0000 0.39740  0.56660  0.48440  Biso   1.000  H
  C169     1.0000 0.14670  0.54260  0.30120  Biso   1.000  C
  C170     1.0000 0.11440  0.65930  0.50790  Biso   1.000  C
  C171     1.0000 0.16210  0.56830  0.36200  Biso   1.000  C
  C172     1.0000 0.13140  0.59660  0.40440  Biso   1.000  C
  H67      1.0000 0.10030  0.59810  0.39580  Biso   1.000  H
  C173     1.0000 0.14650  0.62390  0.46170  Biso   1.000  C
  C174     1.0000 0.19160  0.61430  0.47350  Biso   1.000  C
  H68      1.0000 0.20120  0.62720  0.51160  Biso   1.000  H
  C175     1.0000 0.22410  0.58650  0.43220  Biso   1.000  C
  C176     1.0000 0.20840  0.55840  0.37630  Biso   1.000  C
  H69      1.0000 0.22910  0.53280  0.34820  Biso   1.000  H
  C177     1.0000 0.50640  0.43820  0.34840  Biso   1.000  C
  C178     1.0000 0.41090  0.68660  0.21770  Biso   1.000  C
  C179     1.0000 0.46250  0.50590  0.33750  Biso   1.000  C
  C180     1.0000 0.45680  0.56090  0.28580  Biso   1.000  C
  H70      1.0000 0.47950  0.55640  0.25760  Biso   1.000  H
  C181     1.0000 0.41680  0.62430  0.27480  Biso   1.000  C
  C182     1.0000 0.38370  0.63060  0.31770  Biso   1.000  C
  H71      1.0000 0.35720  0.67460  0.31060  Biso   1.000  H
  C183     1.0000 0.38860  0.57400  0.37050  Biso   1.000  C
  C184     1.0000 0.42890  0.51070  0.38000  Biso   1.000  C
  H72      1.0000 0.43340  0.47130  0.41520  Biso   1.000  H
