data_AVESAW_clean
_audit_creation_date              2014-07-02
_audit_creation_method            'Materials Studio'
_symmetry_space_group_name_H-M    'P1'
_symmetry_Int_Tables_number       1
_symmetry_cell_setting            triclinic
loop_
_symmetry_equiv_pos_as_xyz
  x,y,z
_cell_length_a                    10.3417
_cell_length_b                    13.4148
_cell_length_c                    17.5677
_cell_angle_alpha                 90.0000
_cell_angle_beta                  107.1180
_cell_angle_gamma                 90.0000
loop_
_atom_site_label
_atom_site_type_symbol
_atom_site_fract_x
_atom_site_fract_y
_atom_site_fract_z
_atom_site_U_iso_or_equiv
_atom_site_adp_type
_atom_site_occupancy
Cd1    Cd    0.43468   0.52753   0.86936   0.01267  Uiso   1.00
Cd2    Cd    0.35658   0.75208   0.71316   0.01267  Uiso   1.00
Cd3    Cd    0.31361   0.01246   0.62722   0.01267  Uiso   1.00
Cd4    Cd    0.26836   0.27614   0.53672   0.01267  Uiso   1.00
Cd5    Cd    0.56532   0.02753   0.13064   0.01267  Uiso   1.00
Cd6    Cd    0.64342   0.25208   0.28684   0.01267  Uiso   1.00
Cd7    Cd    0.68639   0.51246   0.37278   0.01267  Uiso   1.00
Cd8    Cd    0.73164   0.77614   0.46328   0.01267  Uiso   1.00
Cd9    Cd    0.89437   0.24716   0.78874   0.01267  Uiso   1.00
Cd10   Cd    0.10563   0.74716   0.21125   0.01267  Uiso   1.00
Cd11   Cd    0.98492   0.78934   0.96984   0.01267  Uiso   1.00
Cd12   Cd    0.01508   0.28934   0.03016   0.01267  Uiso   1.00
H1     H     0.20490   0.62240   0.95420   0.01267  Uiso   1.00
H2     H     0.09850   0.82690   0.79300   0.01267  Uiso   1.00
H3     H     0.58100   0.69330   0.59760   0.01267  Uiso   1.00
H4     H     0.54770   0.96540   0.52380   0.01267  Uiso   1.00
H5     H     0.01530   0.32210   0.63400   0.01267  Uiso   1.00
H6     H     0.09200   0.06710   0.73860   0.01267  Uiso   1.00
H7     H     0.62120   0.39770   0.78120   0.01267  Uiso   1.00
H8     H     0.69890   0.39380   0.00860   0.01267  Uiso   1.00
H9     H     0.79510   0.12240   0.04580   0.01267  Uiso   1.00
H10    H     0.90150   0.32690   0.20700   0.01267  Uiso   1.00
H11    H     0.41900   0.19330   0.40240   0.01267  Uiso   1.00
H12    H     0.45230   0.46540   0.47620   0.01267  Uiso   1.00
H13    H     0.98470   0.82210   0.36600   0.01267  Uiso   1.00
H14    H     0.90800   0.56710   0.26140   0.01267  Uiso   1.00
H15    H     0.37880   0.89770   0.21880   0.01267  Uiso   1.00
H16    H     0.30110   0.89380   0.99140   0.01267  Uiso   1.00
H17    H     0.25070   0.12240   0.04580   0.01267  Uiso   1.00
H18    H     0.30550   0.32690   0.20700   0.01267  Uiso   1.00
H19    H     0.98340   0.19330   0.40240   0.01267  Uiso   1.00
H20    H     0.02390   0.46540   0.47620   0.01267  Uiso   1.00
H21    H     0.38130   0.82210   0.36600   0.01267  Uiso   1.00
H22    H     0.35340   0.56710   0.26140   0.01267  Uiso   1.00
H23    H     0.84000   0.89770   0.21880   0.01267  Uiso   1.00
H24    H     0.69030   0.89380   0.99140   0.01267  Uiso   1.00
H25    H     0.74930   0.62240   0.95420   0.01267  Uiso   1.00
H26    H     0.69450   0.82690   0.79300   0.01267  Uiso   1.00
H27    H     0.01660   0.69330   0.59760   0.01267  Uiso   1.00
H28    H     0.97610   0.96540   0.52380   0.01267  Uiso   1.00
H29    H     0.61870   0.32210   0.63400   0.01267  Uiso   1.00
H30    H     0.64660   0.06710   0.73860   0.01267  Uiso   1.00
H31    H     0.16000   0.39770   0.78120   0.01267  Uiso   1.00
H32    H     0.30970   0.39380   0.00860   0.01267  Uiso   1.00
H33    H     0.35690   0.35890   0.71380   0.01267  Uiso   1.00
H34    H     0.27810   0.56650   0.55620   0.01267  Uiso   1.00
H35    H     0.64310   0.85890   0.28620   0.01267  Uiso   1.00
H36    H     0.72190   0.06650   0.44380   0.01267  Uiso   1.00
H37    H     0.02020   0.02100   0.04040   0.01267  Uiso   1.00
H38    H     0.90730   0.98580   0.81460   0.01267  Uiso   1.00
H39    H     0.97980   0.52100   0.95960   0.01267  Uiso   1.00
H40    H     0.09270   0.48580   0.18540   0.01267  Uiso   1.00
C1     C     0.19827   0.66180   0.90954   0.01267  Uiso   1.00
C2     C     0.14098   0.77230   0.82256   0.01267  Uiso   1.00
C3     C     0.55501   0.75970   0.58962   0.01267  Uiso   1.00
C4     C     0.53704   0.90680   0.54968   0.01267  Uiso   1.00
C5     C     0.05301   0.25990   0.65062   0.01267  Uiso   1.00
C6     C     0.09416   0.12240   0.70712   0.01267  Uiso   1.00
C7     C     0.66263   0.38510   0.83486   0.01267  Uiso   1.00
C8     C     0.70425   0.38330   0.95730   0.01267  Uiso   1.00
C9     C     0.80173   0.16180   0.09046   0.01267  Uiso   1.00
C10    C     0.85902   0.27230   0.17744   0.01267  Uiso   1.00
C11    C     0.44499   0.25970   0.41038   0.01267  Uiso   1.00
C12    C     0.46296   0.40680   0.45032   0.01267  Uiso   1.00
C13    C     0.94699   0.75990   0.34938   0.01267  Uiso   1.00
C14    C     0.90584   0.62240   0.29288   0.01267  Uiso   1.00
C15    C     0.33737   0.88510   0.16514   0.01267  Uiso   1.00
C16    C     0.29575   0.88330   0.04270   0.01267  Uiso   1.00
C17    C     0.28873   0.16180   0.09046   0.01267  Uiso   1.00
C18    C     0.31842   0.27230   0.17744   0.01267  Uiso   1.00
C19    C     0.96539   0.25970   0.41038   0.01267  Uiso   1.00
C20    C     0.98736   0.40680   0.45032   0.01267  Uiso   1.00
C21    C     0.40239   0.75990   0.34938   0.01267  Uiso   1.00
C22    C     0.38704   0.62240   0.29288   0.01267  Uiso   1.00
C23    C     0.82777   0.88510   0.16514   0.01267  Uiso   1.00
C24    C     0.74695   0.88330   0.04270   0.01267  Uiso   1.00
C25    C     0.71127   0.66180   0.90954   0.01267  Uiso   1.00
C26    C     0.68158   0.77230   0.82256   0.01267  Uiso   1.00
C27    C     0.03461   0.75970   0.58962   0.01267  Uiso   1.00
C28    C     0.01264   0.90680   0.54968   0.01267  Uiso   1.00
C29    C     0.59761   0.25990   0.65062   0.01267  Uiso   1.00
C30    C     0.61296   0.12240   0.70712   0.01267  Uiso   1.00
C31    C     0.17223   0.38510   0.83486   0.01267  Uiso   1.00
C32    C     0.25305   0.38330   0.95730   0.01267  Uiso   1.00
C33    C     0.34487   0.42130   0.68974   0.01267  Uiso   1.00
C34    C     0.30247   0.53330   0.60494   0.01267  Uiso   1.00
C35    C     0.65513   0.92130   0.31026   0.01267  Uiso   1.00
C36    C     0.69753   0.03330   0.39506   0.01267  Uiso   1.00
C37    C     0.99309   0.03490   0.98618   0.01267  Uiso   1.00
C38    C     0.93248   0.01470   0.86496   0.01267  Uiso   1.00
C39    C     0.00691   0.53490   0.01382   0.01267  Uiso   1.00
C40    C     0.06752   0.51470   0.13504   0.01267  Uiso   1.00
N1     N     0.27333   0.64840   0.86146   0.01267  Uiso   1.00
N2     N     0.23711   0.72050   0.80462   0.01267  Uiso   1.00
N3     N     0.11054   0.73900   0.88728   0.01267  Uiso   1.00
N4     N     0.46805   0.80220   0.62170   0.01267  Uiso   1.00
N5     N     0.45632   0.89900   0.59524   0.01267  Uiso   1.00
N6     N     0.60184   0.82190   0.54448   0.01267  Uiso   1.00
N7     N     0.14978   0.21940   0.62516   0.01267  Uiso   1.00
N8     N     0.17642   0.13000   0.66184   0.01267  Uiso   1.00
N9     N     0.01484   0.20190   0.70308   0.01267  Uiso   1.00
N10    N     0.77630   0.33540   0.86060   0.01267  Uiso   1.00
N11    N     0.80462   0.33440   0.94164   0.01267  Uiso   1.00
N12    N     0.61158   0.41600   0.89196   0.01267  Uiso   1.00
N13    N     0.72667   0.14840   0.13854   0.01267  Uiso   1.00
N14    N     0.76289   0.22050   0.19538   0.01267  Uiso   1.00
N15    N     0.88946   0.23900   0.11272   0.01267  Uiso   1.00
N16    N     0.53195   0.30220   0.37830   0.01267  Uiso   1.00
N17    N     0.54368   0.39900   0.40476   0.01267  Uiso   1.00
N18    N     0.39816   0.32190   0.45552   0.01267  Uiso   1.00
N19    N     0.85022   0.71940   0.37484   0.01267  Uiso   1.00
N20    N     0.82358   0.63000   0.33816   0.01267  Uiso   1.00
N21    N     0.98516   0.70190   0.29692   0.01267  Uiso   1.00
N22    N     0.22370   0.83540   0.13940   0.01267  Uiso   1.00
N23    N     0.19538   0.83440   0.05836   0.01267  Uiso   1.00
N24    N     0.38842   0.91600   0.10804   0.01267  Uiso   1.00
N25    N     0.41187   0.14840   0.13854   0.01267  Uiso   1.00
N26    N     0.43249   0.22050   0.19538   0.01267  Uiso   1.00
N27    N     0.22326   0.23900   0.11272   0.01267  Uiso   1.00
N28    N     0.84635   0.30220   0.37830   0.01267  Uiso   1.00
N29    N     0.86108   0.39900   0.40476   0.01267  Uiso   1.00
N30    N     0.05736   0.32190   0.45552   0.01267  Uiso   1.00
N31    N     0.52462   0.71940   0.37484   0.01267  Uiso   1.00
N32    N     0.51458   0.63000   0.33816   0.01267  Uiso   1.00
N33    N     0.31176   0.70190   0.29692   0.01267  Uiso   1.00
N34    N     0.91570   0.83540   0.13940   0.01267  Uiso   1.00
N35    N     0.86298   0.83440   0.05836   0.01267  Uiso   1.00
N36    N     0.71962   0.91600   0.10804   0.01267  Uiso   1.00
N37    N     0.58813   0.64840   0.86146   0.01267  Uiso   1.00
N38    N     0.56751   0.72050   0.80462   0.01267  Uiso   1.00
N39    N     0.77674   0.73900   0.88728   0.01267  Uiso   1.00
N40    N     0.15365   0.80220   0.62170   0.01267  Uiso   1.00
N41    N     0.13892   0.89900   0.59524   0.01267  Uiso   1.00
N42    N     0.94264   0.82190   0.54448   0.01267  Uiso   1.00
N43    N     0.47538   0.21940   0.62516   0.01267  Uiso   1.00
N44    N     0.48542   0.13000   0.66184   0.01267  Uiso   1.00
N45    N     0.68824   0.20190   0.70308   0.01267  Uiso   1.00
N46    N     0.08430   0.33540   0.86060   0.01267  Uiso   1.00
N47    N     0.13702   0.33440   0.94164   0.01267  Uiso   1.00
N48    N     0.28038   0.41600   0.89196   0.01267  Uiso   1.00
N49    N     0.36540   0.50510   0.73080   0.01267  Uiso   1.00
N50    N     0.33713   0.58040   0.67426   0.01267  Uiso   1.00
N51    N     0.30549   0.43300   0.61098   0.01267  Uiso   1.00
N52    N     0.63460   0.00510   0.26920   0.01267  Uiso   1.00
N53    N     0.66287   0.08040   0.32574   0.01267  Uiso   1.00
N54    N     0.69451   0.93300   0.38902   0.01267  Uiso   1.00
N55    N     0.93819   0.11430   0.87638   0.01267  Uiso   1.00
N56    N     0.97927   0.12540   0.95854   0.01267  Uiso   1.00
N57    N     0.96521   0.96260   0.93042   0.01267  Uiso   1.00
N58    N     0.06181   0.61430   0.12362   0.01267  Uiso   1.00
N59    N     0.02073   0.62540   0.04146   0.01267  Uiso   1.00
N60    N     0.03479   0.46260   0.06958   0.01267  Uiso   1.00
Cl1    Cl    0.38642   0.93834   0.77284   0.01267  Uiso   1.00
Cl2    Cl    0.23979   0.09007   0.47958   0.01267  Uiso   1.00
Cl3    Cl    0.61358   0.43834   0.22716   0.01267  Uiso   1.00
Cl4    Cl    0.76021   0.59007   0.52042   0.01267  Uiso   1.00
