data_image0
_cell_length_a       29.22
_cell_length_b       29.22
_cell_length_c       9.3882
_cell_angle_alpha    90
_cell_angle_beta     90
_cell_angle_gamma    90

_symmetry_space_group_name_H-M    "P 1"
_symmetry_int_tables_number       1

loop_
  _symmetry_equiv_pos_as_xyz
  'x, y, z'

loop_
  _atom_site_label
  _atom_site_occupancy
  _atom_site_fract_x
  _atom_site_fract_y
  _atom_site_fract_z
  _atom_site_thermal_displace_type
  _atom_site_B_iso_or_equiv
  _atom_site_type_symbol
  O1       1.0000 0.51230  0.06680  0.65780  Biso   1.000  O
  O2       1.0000 0.45260  0.05680  0.52230  Biso   1.000  O
  O3       1.0000 0.38940  0.19435  0.26440  Biso   1.000  O
  O4       1.0000 0.42140  0.26070  0.29450  Biso   1.000  O
  O5       1.0000 0.68970  0.17350  0.45600  Biso   1.000  O
  O6       1.0000 0.72850  0.22450  0.57520  Biso   1.000  O
  C1       1.0000 0.48180  0.08100  0.57480  Biso   1.000  C
  C2       1.0000 0.41900  0.21940  0.31810  Biso   1.000  C
  C3       1.0000 0.48460  0.13110  0.53210  Biso   1.000  C
  C4       1.0000 0.45220  0.15060  0.44910  Biso   1.000  C
  H1       1.0000 0.42830  0.13280  0.41380  Biso   1.000  H
  C5       1.0000 0.45410  0.19740  0.41560  Biso   1.000  C
  C6       1.0000 0.49030  0.22330  0.46580  Biso   1.000  C
  H2       1.0000 0.49200  0.25440  0.44470  Biso   1.000  H
  C7       1.0000 0.52370  0.20320  0.54630  Biso   1.000  C
  C8       1.0000 0.52060  0.15630  0.57960  Biso   1.000  C
  H3       1.0000 0.54320  0.14260  0.63440  Biso   1.000  H
  C9       1.0000 0.68910  0.20540  0.53070  Biso   1.000  C
  C10      1.0000 0.65080  0.23030  0.58990  Biso   1.000  C
  C11      1.0000 0.60710  0.21090  0.55180  Biso   1.000  C
  H4       1.0000 0.60700  0.18430  0.49730  Biso   1.000  H
  C12      1.0000 0.56690  0.22870  0.59000  Biso   1.000  C
  O7       1.0000 0.70800  0.17330  0.58100  Biso   1.000  O
  O8       1.0000 0.70640  0.21450  0.40600  Biso   1.000  O
  O9       1.0000 0.01230  0.56680  0.15780  Biso   1.000  O
  O10      1.0000 0.95260  0.55680  0.02230  Biso   1.000  O
  O11      1.0000 0.88940  0.69435  0.76440  Biso   1.000  O
  O12      1.0000 0.92140  0.76070  0.79450  Biso   1.000  O
  O13      1.0000 0.18970  0.67350  0.95600  Biso   1.000  O
  O14      1.0000 0.22850  0.72450  0.07520  Biso   1.000  O
  C13      1.0000 0.98180  0.58100  0.07480  Biso   1.000  C
  C14      1.0000 0.91900  0.71940  0.81810  Biso   1.000  C
  C15      1.0000 0.98460  0.63110  0.03210  Biso   1.000  C
  C16      1.0000 0.95220  0.65060  0.94910  Biso   1.000  C
  H5       1.0000 0.92830  0.63280  0.91380  Biso   1.000  H
  C17      1.0000 0.95410  0.69740  0.91560  Biso   1.000  C
  C18      1.0000 0.99030  0.72330  0.96580  Biso   1.000  C
  H6       1.0000 0.99200  0.75440  0.94470  Biso   1.000  H
  C19      1.0000 0.02370  0.70320  0.04630  Biso   1.000  C
  C20      1.0000 0.02060  0.65630  0.07960  Biso   1.000  C
  H7       1.0000 0.04320  0.64260  0.13440  Biso   1.000  H
  C21      1.0000 0.18910  0.70540  0.03070  Biso   1.000  C
  C22      1.0000 0.15080  0.73030  0.08990  Biso   1.000  C
  C23      1.0000 0.10710  0.71090  0.05180  Biso   1.000  C
  H8       1.0000 0.10700  0.68430  0.99730  Biso   1.000  H
  C24      1.0000 0.06690  0.72870  0.09000  Biso   1.000  C
  O15      1.0000 0.20800  0.67330  0.08100  Biso   1.000  O
  O16      1.0000 0.20640  0.71450  0.90600  Biso   1.000  O
  O17      1.0000 0.48770  0.93320  0.65780  Biso   1.000  O
  O18      1.0000 0.54740  0.94320  0.52230  Biso   1.000  O
  O19      1.0000 0.61060  0.80565  0.26440  Biso   1.000  O
  O20      1.0000 0.57860  0.73930  0.29450  Biso   1.000  O
  O21      1.0000 0.31030  0.82650  0.45600  Biso   1.000  O
  O22      1.0000 0.27150  0.77550  0.57520  Biso   1.000  O
  C25      1.0000 0.51820  0.91900  0.57480  Biso   1.000  C
  C26      1.0000 0.58100  0.78060  0.31810  Biso   1.000  C
  C27      1.0000 0.51540  0.86890  0.53210  Biso   1.000  C
  C28      1.0000 0.54780  0.84940  0.44910  Biso   1.000  C
  H9       1.0000 0.57170  0.86720  0.41380  Biso   1.000  H
  C29      1.0000 0.54590  0.80260  0.41560  Biso   1.000  C
  C30      1.0000 0.50970  0.77670  0.46580  Biso   1.000  C
  H10      1.0000 0.50800  0.74560  0.44470  Biso   1.000  H
  C31      1.0000 0.47630  0.79680  0.54630  Biso   1.000  C
  C32      1.0000 0.47940  0.84370  0.57960  Biso   1.000  C
  H11      1.0000 0.45680  0.85740  0.63440  Biso   1.000  H
  C33      1.0000 0.31090  0.79460  0.53070  Biso   1.000  C
  C34      1.0000 0.34920  0.76970  0.58990  Biso   1.000  C
  C35      1.0000 0.39290  0.78910  0.55180  Biso   1.000  C
  H12      1.0000 0.39300  0.81570  0.49730  Biso   1.000  H
  C36      1.0000 0.43310  0.77130  0.59000  Biso   1.000  C
  O23      1.0000 0.29200  0.82670  0.58100  Biso   1.000  O
  O24      1.0000 0.29360  0.78550  0.40600  Biso   1.000  O
  O25      1.0000 0.98770  0.43320  0.15780  Biso   1.000  O
  O26      1.0000 0.04740  0.44320  0.02230  Biso   1.000  O
  O27      1.0000 0.11060  0.30565  0.76440  Biso   1.000  O
  O28      1.0000 0.07860  0.23930  0.79450  Biso   1.000  O
  O29      1.0000 0.81030  0.32650  0.95600  Biso   1.000  O
  O30      1.0000 0.77150  0.27550  0.07520  Biso   1.000  O
  C37      1.0000 0.01820  0.41900  0.07480  Biso   1.000  C
  C38      1.0000 0.08100  0.28060  0.81810  Biso   1.000  C
  C39      1.0000 0.01540  0.36890  0.03210  Biso   1.000  C
  C40      1.0000 0.04780  0.34940  0.94910  Biso   1.000  C
  H13      1.0000 0.07170  0.36720  0.91380  Biso   1.000  H
  C41      1.0000 0.04590  0.30260  0.91560  Biso   1.000  C
  C42      1.0000 0.00970  0.27670  0.96580  Biso   1.000  C
  H14      1.0000 0.00800  0.24560  0.94470  Biso   1.000  H
  C43      1.0000 0.97630  0.29680  0.04630  Biso   1.000  C
  C44      1.0000 0.97940  0.34370  0.07960  Biso   1.000  C
  H15      1.0000 0.95680  0.35740  0.13440  Biso   1.000  H
  C45      1.0000 0.81090  0.29460  0.03070  Biso   1.000  C
  C46      1.0000 0.84920  0.26970  0.08990  Biso   1.000  C
  C47      1.0000 0.89290  0.28910  0.05180  Biso   1.000  C
  H16      1.0000 0.89300  0.31570  0.99730  Biso   1.000  H
  C48      1.0000 0.93310  0.27130  0.09000  Biso   1.000  C
  O31      1.0000 0.79200  0.32670  0.08100  Biso   1.000  O
  O32      1.0000 0.79360  0.28550  0.90600  Biso   1.000  O
  O33      1.0000 0.06680  0.48770  0.34220  Biso   1.000  O
  O34      1.0000 0.05680  0.54740  0.47770  Biso   1.000  O
  O35      1.0000 0.19435  0.61060  0.73560  Biso   1.000  O
  O36      1.0000 0.26070  0.57860  0.70550  Biso   1.000  O
  O37      1.0000 0.17350  0.31030  0.54400  Biso   1.000  O
  O38      1.0000 0.22450  0.27150  0.42480  Biso   1.000  O
  C49      1.0000 0.08100  0.51820  0.42520  Biso   1.000  C
  C50      1.0000 0.21940  0.58100  0.68190  Biso   1.000  C
  C51      1.0000 0.13110  0.51540  0.46790  Biso   1.000  C
  C52      1.0000 0.15060  0.54780  0.55090  Biso   1.000  C
  H17      1.0000 0.13280  0.57170  0.58620  Biso   1.000  H
  C53      1.0000 0.19740  0.54590  0.58440  Biso   1.000  C
  C54      1.0000 0.22330  0.50970  0.53420  Biso   1.000  C
  H18      1.0000 0.25440  0.50800  0.55530  Biso   1.000  H
  C55      1.0000 0.20320  0.47630  0.45370  Biso   1.000  C
  C56      1.0000 0.15630  0.47940  0.42040  Biso   1.000  C
  H19      1.0000 0.14260  0.45680  0.36560  Biso   1.000  H
  C57      1.0000 0.20540  0.31090  0.46930  Biso   1.000  C
  C58      1.0000 0.23030  0.34920  0.41010  Biso   1.000  C
  C59      1.0000 0.21090  0.39290  0.44820  Biso   1.000  C
  H20      1.0000 0.18430  0.39300  0.50270  Biso   1.000  H
  C60      1.0000 0.22870  0.43310  0.41000  Biso   1.000  C
  O39      1.0000 0.17330  0.29200  0.41900  Biso   1.000  O
  O40      1.0000 0.21450  0.29360  0.59400  Biso   1.000  O
  O41      1.0000 0.56680  0.98770  0.84220  Biso   1.000  O
  O42      1.0000 0.55680  0.04740  0.97770  Biso   1.000  O
  O43      1.0000 0.69435  0.11060  0.23560  Biso   1.000  O
  O44      1.0000 0.76070  0.07860  0.20550  Biso   1.000  O
  O45      1.0000 0.67350  0.81030  0.04400  Biso   1.000  O
  O46      1.0000 0.72450  0.77150  0.92480  Biso   1.000  O
  C61      1.0000 0.58100  0.01820  0.92520  Biso   1.000  C
  C62      1.0000 0.71940  0.08100  0.18190  Biso   1.000  C
  C63      1.0000 0.63110  0.01540  0.96790  Biso   1.000  C
  C64      1.0000 0.65060  0.04780  0.05090  Biso   1.000  C
  H21      1.0000 0.63280  0.07170  0.08620  Biso   1.000  H
  C65      1.0000 0.69740  0.04590  0.08440  Biso   1.000  C
  C66      1.0000 0.72330  0.00970  0.03420  Biso   1.000  C
  H22      1.0000 0.75440  0.00800  0.05530  Biso   1.000  H
  C67      1.0000 0.70320  0.97630  0.95370  Biso   1.000  C
  C68      1.0000 0.65630  0.97940  0.92040  Biso   1.000  C
  H23      1.0000 0.64260  0.95680  0.86560  Biso   1.000  H
  C69      1.0000 0.70540  0.81090  0.96930  Biso   1.000  C
  C70      1.0000 0.73030  0.84920  0.91010  Biso   1.000  C
  C71      1.0000 0.71090  0.89290  0.94820  Biso   1.000  C
  H24      1.0000 0.68430  0.89300  0.00270  Biso   1.000  H
  C72      1.0000 0.72870  0.93310  0.91000  Biso   1.000  C
  O47      1.0000 0.67330  0.79200  0.91900  Biso   1.000  O
  O48      1.0000 0.71450  0.79360  0.09400  Biso   1.000  O
  O49      1.0000 0.93320  0.51230  0.34220  Biso   1.000  O
  O50      1.0000 0.94320  0.45260  0.47770  Biso   1.000  O
  O51      1.0000 0.80565  0.38940  0.73560  Biso   1.000  O
  O52      1.0000 0.73930  0.42140  0.70550  Biso   1.000  O
  O53      1.0000 0.82650  0.68970  0.54400  Biso   1.000  O
  O54      1.0000 0.77550  0.72850  0.42480  Biso   1.000  O
  C73      1.0000 0.91900  0.48180  0.42520  Biso   1.000  C
  C74      1.0000 0.78060  0.41900  0.68190  Biso   1.000  C
  C75      1.0000 0.86890  0.48460  0.46790  Biso   1.000  C
  C76      1.0000 0.84940  0.45220  0.55090  Biso   1.000  C
  H25      1.0000 0.86720  0.42830  0.58620  Biso   1.000  H
  C77      1.0000 0.80260  0.45410  0.58440  Biso   1.000  C
  C78      1.0000 0.77670  0.49030  0.53420  Biso   1.000  C
  H26      1.0000 0.74560  0.49200  0.55530  Biso   1.000  H
  C79      1.0000 0.79680  0.52370  0.45370  Biso   1.000  C
  C80      1.0000 0.84370  0.52060  0.42040  Biso   1.000  C
  H27      1.0000 0.85740  0.54320  0.36560  Biso   1.000  H
  C81      1.0000 0.79460  0.68910  0.46930  Biso   1.000  C
  C82      1.0000 0.76970  0.65080  0.41010  Biso   1.000  C
  C83      1.0000 0.78910  0.60710  0.44820  Biso   1.000  C
  H28      1.0000 0.81570  0.60700  0.50270  Biso   1.000  H
  C84      1.0000 0.77130  0.56690  0.41000  Biso   1.000  C
  O55      1.0000 0.82670  0.70800  0.41900  Biso   1.000  O
  O56      1.0000 0.78550  0.70640  0.59400  Biso   1.000  O
  O57      1.0000 0.43320  0.01230  0.84220  Biso   1.000  O
  O58      1.0000 0.44320  0.95260  0.97770  Biso   1.000  O
  O59      1.0000 0.30565  0.88940  0.23560  Biso   1.000  O
  O60      1.0000 0.23930  0.92140  0.20550  Biso   1.000  O
  O61      1.0000 0.32650  0.18970  0.04400  Biso   1.000  O
  O62      1.0000 0.27550  0.22850  0.92480  Biso   1.000  O
  C85      1.0000 0.41900  0.98180  0.92520  Biso   1.000  C
  C86      1.0000 0.28060  0.91900  0.18190  Biso   1.000  C
  C87      1.0000 0.36890  0.98460  0.96790  Biso   1.000  C
  C88      1.0000 0.34940  0.95220  0.05090  Biso   1.000  C
  H29      1.0000 0.36720  0.92830  0.08620  Biso   1.000  H
  C89      1.0000 0.30260  0.95410  0.08440  Biso   1.000  C
  C90      1.0000 0.27670  0.99030  0.03420  Biso   1.000  C
  H30      1.0000 0.24560  0.99200  0.05530  Biso   1.000  H
  C91      1.0000 0.29680  0.02370  0.95370  Biso   1.000  C
  C92      1.0000 0.34370  0.02060  0.92040  Biso   1.000  C
  H31      1.0000 0.35740  0.04320  0.86560  Biso   1.000  H
  C93      1.0000 0.29460  0.18910  0.96930  Biso   1.000  C
  C94      1.0000 0.26970  0.15080  0.91010  Biso   1.000  C
  C95      1.0000 0.28910  0.10710  0.94820  Biso   1.000  C
  H32      1.0000 0.31570  0.10700  0.00270  Biso   1.000  H
  C96      1.0000 0.27130  0.06690  0.91000  Biso   1.000  C
  O63      1.0000 0.32670  0.20800  0.91900  Biso   1.000  O
  O64      1.0000 0.28550  0.20640  0.09400  Biso   1.000  O
  O65      1.0000 0.98770  0.06680  0.09220  Biso   1.000  O
  O66      1.0000 0.04740  0.05680  0.22770  Biso   1.000  O
  O67      1.0000 0.11060  0.19435  0.48560  Biso   1.000  O
  O68      1.0000 0.07860  0.26070  0.45550  Biso   1.000  O
  O69      1.0000 0.81030  0.17350  0.29400  Biso   1.000  O
  O70      1.0000 0.77150  0.22450  0.17480  Biso   1.000  O
  C97      1.0000 0.01820  0.08100  0.17520  Biso   1.000  C
  C98      1.0000 0.08100  0.21940  0.43190  Biso   1.000  C
  C99      1.0000 0.01540  0.13110  0.21790  Biso   1.000  C
  C100     1.0000 0.04780  0.15060  0.30090  Biso   1.000  C
  H33      1.0000 0.07170  0.13280  0.33620  Biso   1.000  H
  C101     1.0000 0.04590  0.19740  0.33440  Biso   1.000  C
  C102     1.0000 0.00970  0.22330  0.28420  Biso   1.000  C
  H34      1.0000 0.00800  0.25440  0.30530  Biso   1.000  H
  C103     1.0000 0.97630  0.20320  0.20370  Biso   1.000  C
  C104     1.0000 0.97940  0.15630  0.17040  Biso   1.000  C
  H35      1.0000 0.95680  0.14260  0.11560  Biso   1.000  H
  C105     1.0000 0.81090  0.20540  0.21930  Biso   1.000  C
  C106     1.0000 0.84920  0.23030  0.16010  Biso   1.000  C
  C107     1.0000 0.89290  0.21090  0.19820  Biso   1.000  C
  H36      1.0000 0.89300  0.18430  0.25270  Biso   1.000  H
  C108     1.0000 0.93310  0.22870  0.16000  Biso   1.000  C
  O71      1.0000 0.79200  0.17330  0.16900  Biso   1.000  O
  O72      1.0000 0.79360  0.21450  0.34400  Biso   1.000  O
  O73      1.0000 0.48770  0.56680  0.59220  Biso   1.000  O
  O74      1.0000 0.54740  0.55680  0.72770  Biso   1.000  O
  O75      1.0000 0.61060  0.69435  0.98560  Biso   1.000  O
  O76      1.0000 0.57860  0.76070  0.95550  Biso   1.000  O
  O77      1.0000 0.31030  0.67350  0.79400  Biso   1.000  O
  O78      1.0000 0.27150  0.72450  0.67480  Biso   1.000  O
  C109     1.0000 0.51820  0.58100  0.67520  Biso   1.000  C
  C110     1.0000 0.58100  0.71940  0.93190  Biso   1.000  C
  C111     1.0000 0.51540  0.63110  0.71790  Biso   1.000  C
  C112     1.0000 0.54780  0.65060  0.80090  Biso   1.000  C
  H37      1.0000 0.57170  0.63280  0.83620  Biso   1.000  H
  C113     1.0000 0.54590  0.69740  0.83440  Biso   1.000  C
  C114     1.0000 0.50970  0.72330  0.78420  Biso   1.000  C
  H38      1.0000 0.50800  0.75440  0.80530  Biso   1.000  H
  C115     1.0000 0.47630  0.70320  0.70370  Biso   1.000  C
  C116     1.0000 0.47940  0.65630  0.67040  Biso   1.000  C
  H39      1.0000 0.45680  0.64260  0.61560  Biso   1.000  H
  C117     1.0000 0.31090  0.70540  0.71930  Biso   1.000  C
  C118     1.0000 0.34920  0.73030  0.66010  Biso   1.000  C
  C119     1.0000 0.39290  0.71090  0.69820  Biso   1.000  C
  H40      1.0000 0.39300  0.68430  0.75270  Biso   1.000  H
  C120     1.0000 0.43310  0.72870  0.66000  Biso   1.000  C
  O79      1.0000 0.29200  0.67330  0.66900  Biso   1.000  O
  O80      1.0000 0.29360  0.71450  0.84400  Biso   1.000  O
  O81      1.0000 0.01230  0.93320  0.09220  Biso   1.000  O
  O82      1.0000 0.95260  0.94320  0.22770  Biso   1.000  O
  O83      1.0000 0.88940  0.80565  0.48560  Biso   1.000  O
  O84      1.0000 0.92140  0.73930  0.45550  Biso   1.000  O
  O85      1.0000 0.18970  0.82650  0.29400  Biso   1.000  O
  O86      1.0000 0.22850  0.77550  0.17480  Biso   1.000  O
  C121     1.0000 0.98180  0.91900  0.17520  Biso   1.000  C
  C122     1.0000 0.91900  0.78060  0.43190  Biso   1.000  C
  C123     1.0000 0.98460  0.86890  0.21790  Biso   1.000  C
  C124     1.0000 0.95220  0.84940  0.30090  Biso   1.000  C
  H41      1.0000 0.92830  0.86720  0.33620  Biso   1.000  H
  C125     1.0000 0.95410  0.80260  0.33440  Biso   1.000  C
  C126     1.0000 0.99030  0.77670  0.28420  Biso   1.000  C
  H42      1.0000 0.99200  0.74560  0.30530  Biso   1.000  H
  C127     1.0000 0.02370  0.79680  0.20370  Biso   1.000  C
  C128     1.0000 0.02060  0.84370  0.17040  Biso   1.000  C
  H43      1.0000 0.04320  0.85740  0.11560  Biso   1.000  H
  C129     1.0000 0.18910  0.79460  0.21930  Biso   1.000  C
  C130     1.0000 0.15080  0.76970  0.16010  Biso   1.000  C
  C131     1.0000 0.10710  0.78910  0.19820  Biso   1.000  C
  H44      1.0000 0.10700  0.81570  0.25270  Biso   1.000  H
  C132     1.0000 0.06690  0.77130  0.16000  Biso   1.000  C
  O87      1.0000 0.20800  0.82670  0.16900  Biso   1.000  O
  O88      1.0000 0.20640  0.78550  0.34400  Biso   1.000  O
  O89      1.0000 0.51230  0.43320  0.59220  Biso   1.000  O
  O90      1.0000 0.45260  0.44320  0.72770  Biso   1.000  O
  O91      1.0000 0.38940  0.30565  0.98560  Biso   1.000  O
  O92      1.0000 0.42140  0.23930  0.95550  Biso   1.000  O
  O93      1.0000 0.68970  0.32650  0.79400  Biso   1.000  O
  O94      1.0000 0.72850  0.27550  0.67480  Biso   1.000  O
  C133     1.0000 0.48180  0.41900  0.67520  Biso   1.000  C
  C134     1.0000 0.41900  0.28060  0.93190  Biso   1.000  C
  C135     1.0000 0.48460  0.36890  0.71790  Biso   1.000  C
  C136     1.0000 0.45220  0.34940  0.80090  Biso   1.000  C
  H45      1.0000 0.42830  0.36720  0.83620  Biso   1.000  H
  C137     1.0000 0.45410  0.30260  0.83440  Biso   1.000  C
  C138     1.0000 0.49030  0.27670  0.78420  Biso   1.000  C
  H46      1.0000 0.49200  0.24560  0.80530  Biso   1.000  H
  C139     1.0000 0.52370  0.29680  0.70370  Biso   1.000  C
  C140     1.0000 0.52060  0.34370  0.67040  Biso   1.000  C
  H47      1.0000 0.54320  0.35740  0.61560  Biso   1.000  H
  C141     1.0000 0.68910  0.29460  0.71930  Biso   1.000  C
  C142     1.0000 0.65080  0.26970  0.66010  Biso   1.000  C
  C143     1.0000 0.60710  0.28910  0.69820  Biso   1.000  C
  H48      1.0000 0.60700  0.31570  0.75270  Biso   1.000  H
  C144     1.0000 0.56690  0.27130  0.66000  Biso   1.000  C
  O95      1.0000 0.70800  0.32670  0.66900  Biso   1.000  O
  O96      1.0000 0.70640  0.28550  0.84400  Biso   1.000  O
  O97      1.0000 0.43320  0.48770  0.40780  Biso   1.000  O
  O98      1.0000 0.44320  0.54740  0.27230  Biso   1.000  O
  O99      1.0000 0.30565  0.61060  0.01440  Biso   1.000  O
  O100     1.0000 0.23930  0.57860  0.04450  Biso   1.000  O
  O101     1.0000 0.32650  0.31030  0.20600  Biso   1.000  O
  O102     1.0000 0.27550  0.27150  0.32520  Biso   1.000  O
  C145     1.0000 0.41900  0.51820  0.32480  Biso   1.000  C
  C146     1.0000 0.28060  0.58100  0.06810  Biso   1.000  C
  C147     1.0000 0.36890  0.51540  0.28210  Biso   1.000  C
  C148     1.0000 0.34940  0.54780  0.19910  Biso   1.000  C
  H49      1.0000 0.36720  0.57170  0.16380  Biso   1.000  H
  C149     1.0000 0.30260  0.54590  0.16560  Biso   1.000  C
  C150     1.0000 0.27670  0.50970  0.21580  Biso   1.000  C
  H50      1.0000 0.24560  0.50800  0.19470  Biso   1.000  H
  C151     1.0000 0.29680  0.47630  0.29630  Biso   1.000  C
  C152     1.0000 0.34370  0.47940  0.32960  Biso   1.000  C
  H51      1.0000 0.35740  0.45680  0.38440  Biso   1.000  H
  C153     1.0000 0.29460  0.31090  0.28070  Biso   1.000  C
  C154     1.0000 0.26970  0.34920  0.33990  Biso   1.000  C
  C155     1.0000 0.28910  0.39290  0.30180  Biso   1.000  C
  H52      1.0000 0.31570  0.39300  0.24730  Biso   1.000  H
  C156     1.0000 0.27130  0.43310  0.34000  Biso   1.000  C
  O103     1.0000 0.32670  0.29200  0.33100  Biso   1.000  O
  O104     1.0000 0.28550  0.29360  0.15600  Biso   1.000  O
  O105     1.0000 0.93320  0.98770  0.90780  Biso   1.000  O
  O106     1.0000 0.94320  0.04740  0.77230  Biso   1.000  O
  O107     1.0000 0.80565  0.11060  0.51440  Biso   1.000  O
  O108     1.0000 0.73930  0.07860  0.54450  Biso   1.000  O
  O109     1.0000 0.82650  0.81030  0.70600  Biso   1.000  O
  O110     1.0000 0.77550  0.77150  0.82520  Biso   1.000  O
  C157     1.0000 0.91900  0.01820  0.82480  Biso   1.000  C
  C158     1.0000 0.78060  0.08100  0.56810  Biso   1.000  C
  C159     1.0000 0.86890  0.01540  0.78210  Biso   1.000  C
  C160     1.0000 0.84940  0.04780  0.69910  Biso   1.000  C
  H53      1.0000 0.86720  0.07170  0.66380  Biso   1.000  H
  C161     1.0000 0.80260  0.04590  0.66560  Biso   1.000  C
  C162     1.0000 0.77670  0.00970  0.71580  Biso   1.000  C
  H54      1.0000 0.74560  0.00800  0.69470  Biso   1.000  H
  C163     1.0000 0.79680  0.97630  0.79630  Biso   1.000  C
  C164     1.0000 0.84370  0.97940  0.82960  Biso   1.000  C
  H55      1.0000 0.85740  0.95680  0.88440  Biso   1.000  H
  C165     1.0000 0.79460  0.81090  0.78070  Biso   1.000  C
  C166     1.0000 0.76970  0.84920  0.83990  Biso   1.000  C
  C167     1.0000 0.78910  0.89290  0.80180  Biso   1.000  C
  H56      1.0000 0.81570  0.89300  0.74730  Biso   1.000  H
  C168     1.0000 0.77130  0.93310  0.84000  Biso   1.000  C
  O111     1.0000 0.82670  0.79200  0.83100  Biso   1.000  O
  O112     1.0000 0.78550  0.79360  0.65600  Biso   1.000  O
  O113     1.0000 0.56680  0.51230  0.40780  Biso   1.000  O
  O114     1.0000 0.55680  0.45260  0.27230  Biso   1.000  O
  O115     1.0000 0.69435  0.38940  0.01440  Biso   1.000  O
  O116     1.0000 0.76070  0.42140  0.04450  Biso   1.000  O
  O117     1.0000 0.67350  0.68970  0.20600  Biso   1.000  O
  O118     1.0000 0.72450  0.72850  0.32520  Biso   1.000  O
  C169     1.0000 0.58100  0.48180  0.32480  Biso   1.000  C
  C170     1.0000 0.71940  0.41900  0.06810  Biso   1.000  C
  C171     1.0000 0.63110  0.48460  0.28210  Biso   1.000  C
  C172     1.0000 0.65060  0.45220  0.19910  Biso   1.000  C
  H57      1.0000 0.63280  0.42830  0.16380  Biso   1.000  H
  C173     1.0000 0.69740  0.45410  0.16560  Biso   1.000  C
  C174     1.0000 0.72330  0.49030  0.21580  Biso   1.000  C
  H58      1.0000 0.75440  0.49200  0.19470  Biso   1.000  H
  C175     1.0000 0.70320  0.52370  0.29630  Biso   1.000  C
  C176     1.0000 0.65630  0.52060  0.32960  Biso   1.000  C
  H59      1.0000 0.64260  0.54320  0.38440  Biso   1.000  H
  C177     1.0000 0.70540  0.68910  0.28070  Biso   1.000  C
  C178     1.0000 0.73030  0.65080  0.33990  Biso   1.000  C
  C179     1.0000 0.71090  0.60710  0.30180  Biso   1.000  C
  H60      1.0000 0.68430  0.60700  0.24730  Biso   1.000  H
  C180     1.0000 0.72870  0.56690  0.34000  Biso   1.000  C
  O119     1.0000 0.67330  0.70800  0.33100  Biso   1.000  O
  O120     1.0000 0.71450  0.70640  0.15600  Biso   1.000  O
  O121     1.0000 0.06680  0.01230  0.90780  Biso   1.000  O
  O122     1.0000 0.05680  0.95260  0.77230  Biso   1.000  O
  O123     1.0000 0.19435  0.88940  0.51440  Biso   1.000  O
  O124     1.0000 0.26070  0.92140  0.54450  Biso   1.000  O
  O125     1.0000 0.17350  0.18970  0.70600  Biso   1.000  O
  O126     1.0000 0.22450  0.22850  0.82520  Biso   1.000  O
  C181     1.0000 0.08100  0.98180  0.82480  Biso   1.000  C
  C182     1.0000 0.21940  0.91900  0.56810  Biso   1.000  C
  C183     1.0000 0.13110  0.98460  0.78210  Biso   1.000  C
  C184     1.0000 0.15060  0.95220  0.69910  Biso   1.000  C
  H61      1.0000 0.13280  0.92830  0.66380  Biso   1.000  H
  C185     1.0000 0.19740  0.95410  0.66560  Biso   1.000  C
  C186     1.0000 0.22330  0.99030  0.71580  Biso   1.000  C
  H62      1.0000 0.25440  0.99200  0.69470  Biso   1.000  H
  C187     1.0000 0.20320  0.02370  0.79630  Biso   1.000  C
  C188     1.0000 0.15630  0.02060  0.82960  Biso   1.000  C
  H63      1.0000 0.14260  0.04320  0.88440  Biso   1.000  H
  C189     1.0000 0.20540  0.18910  0.78070  Biso   1.000  C
  C190     1.0000 0.23030  0.15080  0.83990  Biso   1.000  C
  C191     1.0000 0.21090  0.10710  0.80180  Biso   1.000  C
  H64      1.0000 0.18430  0.10700  0.74730  Biso   1.000  H
  C192     1.0000 0.22870  0.06690  0.84000  Biso   1.000  C
  O127     1.0000 0.17330  0.20800  0.83100  Biso   1.000  O
  O128     1.0000 0.21450  0.20640  0.65600  Biso   1.000  O
  Cd1      1.0000 0.50000  0.00000  0.75000  Biso   1.000  Cd
  Cd2      1.0000 0.00000  0.50000  0.25000  Biso   1.000  Cd
  Cd3      1.0000 0.00000  0.00000  0.00000  Biso   1.000  Cd
  Cd4      1.0000 0.50000  0.50000  0.50000  Biso   1.000  Cd
  Cd5      1.0000 0.35563  0.25000  0.12500  Biso   1.000  Cd
  Cd6      1.0000 0.64437  0.75000  0.12500  Biso   1.000  Cd
  Cd7      1.0000 0.14437  0.25000  0.62500  Biso   1.000  Cd
  Cd8      1.0000 0.25000  0.64437  0.87500  Biso   1.000  Cd
  Cd9      1.0000 0.75000  0.14437  0.37500  Biso   1.000  Cd
  Cd10     1.0000 0.75000  0.35563  0.87500  Biso   1.000  Cd
  Cd11     1.0000 0.25000  0.85563  0.37500  Biso   1.000  Cd
  Cd12     1.0000 0.85563  0.75000  0.62500  Biso   1.000  Cd
