data_image0
_cell_length_a       10.255
_cell_length_b       10.255
_cell_length_c       14.494
_cell_angle_alpha    90
_cell_angle_beta     90
_cell_angle_gamma    90

_symmetry_space_group_name_H-M    "P 1"
_symmetry_int_tables_number       1

loop_
  _symmetry_equiv_pos_as_xyz
  'x, y, z'

loop_
  _atom_site_label
  _atom_site_occupancy
  _atom_site_fract_x
  _atom_site_fract_y
  _atom_site_fract_z
  _atom_site_thermal_displace_type
  _atom_site_B_iso_or_equiv
  _atom_site_type_symbol
  Ho1      1.0000 0.85022  0.84983  0.70535  Biso   1.000  Ho
  O1       1.0000 0.93390  0.66430  0.64080  Biso   1.000  O
  C1       1.0000 0.90900  0.18310  0.74060  Biso   1.000  C
  C2       1.0000 0.04470  0.39360  0.50400  Biso   1.000  C
  H1       1.0000 0.07560  0.43870  0.45290  Biso   1.000  H
  C3       1.0000 0.08440  0.18270  0.41990  Biso   1.000  C
  O2       1.0000 0.09430  0.24120  0.34430  Biso   1.000  O
  C4       1.0000 0.95820  0.39380  0.65830  Biso   1.000  C
  H2       1.0000 0.93040  0.43930  0.71020  Biso   1.000  H
  C5       1.0000 0.00200  0.46180  0.58140  Biso   1.000  C
  O3       1.0000 0.07890  0.66290  0.52510  Biso   1.000  O
  C6       1.0000 0.95580  0.25950  0.65830  Biso   1.000  C
  O4       1.0000 0.10820  0.06520  0.42960  Biso   1.000  O
  C7       1.0000 0.04120  0.26040  0.50320  Biso   1.000  C
  C8       1.0000 0.00360  0.61050  0.58290  Biso   1.000  C
  C9       1.0000 0.99780  0.19170  0.57970  Biso   1.000  C
  H3       1.0000 0.99660  0.10100  0.57890  Biso   1.000  H
  O5       1.0000 0.90530  0.23880  0.81620  Biso   1.000  O
  O6       1.0000 0.87980  0.06790  0.72970  Biso   1.000  O
  Ho2      1.0000 0.14978  0.15017  0.20535  Biso   1.000  Ho
  O7       1.0000 0.06610  0.33570  0.14080  Biso   1.000  O
  C10      1.0000 0.09100  0.81690  0.24060  Biso   1.000  C
  C11      1.0000 0.95530  0.60640  0.00400  Biso   1.000  C
  H4       1.0000 0.92440  0.56130  0.95290  Biso   1.000  H
  C12      1.0000 0.91560  0.81730  0.91990  Biso   1.000  C
  O8       1.0000 0.90570  0.75880  0.84430  Biso   1.000  O
  C13      1.0000 0.04180  0.60620  0.15830  Biso   1.000  C
  H5       1.0000 0.06960  0.56070  0.21020  Biso   1.000  H
  C14      1.0000 0.99800  0.53820  0.08140  Biso   1.000  C
  O9       1.0000 0.92110  0.33710  0.02510  Biso   1.000  O
  C15      1.0000 0.04420  0.74050  0.15830  Biso   1.000  C
  O10      1.0000 0.89180  0.93480  0.92960  Biso   1.000  O
  C16      1.0000 0.95880  0.73960  0.00320  Biso   1.000  C
  C17      1.0000 0.99640  0.38950  0.08290  Biso   1.000  C
  C18      1.0000 0.00220  0.80830  0.07970  Biso   1.000  C
  H6       1.0000 0.00340  0.89900  0.07890  Biso   1.000  H
  O11      1.0000 0.09470  0.76120  0.31620  Biso   1.000  O
  O12      1.0000 0.12020  0.93210  0.22970  Biso   1.000  O
  Ho3      1.0000 0.15017  0.85022  0.45535  Biso   1.000  Ho
  O13      1.0000 0.33570  0.93390  0.39080  Biso   1.000  O
  C19      1.0000 0.81690  0.90900  0.49060  Biso   1.000  C
  C20      1.0000 0.60640  0.04470  0.25400  Biso   1.000  C
  H7       1.0000 0.56130  0.07560  0.20290  Biso   1.000  H
  C21      1.0000 0.81730  0.08440  0.16990  Biso   1.000  C
  O14      1.0000 0.75880  0.09430  0.09430  Biso   1.000  O
  C22      1.0000 0.60620  0.95820  0.40830  Biso   1.000  C
  H8       1.0000 0.56070  0.93040  0.46020  Biso   1.000  H
  C23      1.0000 0.53820  0.00200  0.33140  Biso   1.000  C
  O15      1.0000 0.33710  0.07890  0.27510  Biso   1.000  O
  C24      1.0000 0.74050  0.95580  0.40830  Biso   1.000  C
  O16      1.0000 0.93480  0.10820  0.17960  Biso   1.000  O
  C25      1.0000 0.73960  0.04120  0.25320  Biso   1.000  C
  C26      1.0000 0.38950  0.00360  0.33290  Biso   1.000  C
  C27      1.0000 0.80830  0.99780  0.32970  Biso   1.000  C
  H9       1.0000 0.89900  0.99660  0.32890  Biso   1.000  H
  O17      1.0000 0.76120  0.90530  0.56620  Biso   1.000  O
  O18      1.0000 0.93210  0.87980  0.47970  Biso   1.000  O
  Ho4      1.0000 0.84983  0.14978  0.95535  Biso   1.000  Ho
  O19      1.0000 0.66430  0.06610  0.89080  Biso   1.000  O
  C28      1.0000 0.18310  0.09100  0.99060  Biso   1.000  C
  C29      1.0000 0.39360  0.95530  0.75400  Biso   1.000  C
  H10      1.0000 0.43870  0.92440  0.70290  Biso   1.000  H
  C30      1.0000 0.18270  0.91560  0.66990  Biso   1.000  C
  O20      1.0000 0.24120  0.90570  0.59430  Biso   1.000  O
  C31      1.0000 0.39380  0.04180  0.90830  Biso   1.000  C
  H11      1.0000 0.43930  0.06960  0.96020  Biso   1.000  H
  C32      1.0000 0.46180  0.99800  0.83140  Biso   1.000  C
  O21      1.0000 0.66290  0.92110  0.77510  Biso   1.000  O
  C33      1.0000 0.25950  0.04420  0.90830  Biso   1.000  C
  O22      1.0000 0.06520  0.89180  0.67960  Biso   1.000  O
  C34      1.0000 0.26040  0.95880  0.75320  Biso   1.000  C
  C35      1.0000 0.61050  0.99640  0.83290  Biso   1.000  C
  C36      1.0000 0.19170  0.00220  0.82970  Biso   1.000  C
  H12      1.0000 0.10100  0.00340  0.82890  Biso   1.000  H
  O23      1.0000 0.23880  0.09470  0.06620  Biso   1.000  O
  O24      1.0000 0.06790  0.12020  0.97970  Biso   1.000  O
