data_image0
_cell_length_a       10.2
_cell_length_b       10.2
_cell_length_c       14.4386
_cell_angle_alpha    90
_cell_angle_beta     90
_cell_angle_gamma    90

_symmetry_space_group_name_H-M    "P 1"
_symmetry_int_tables_number       1

loop_
  _symmetry_equiv_pos_as_xyz
  'x, y, z'

loop_
  _atom_site_label
  _atom_site_occupancy
  _atom_site_fract_x
  _atom_site_fract_y
  _atom_site_fract_z
  _atom_site_thermal_displace_type
  _atom_site_B_iso_or_equiv
  _atom_site_type_symbol
  O1       1.0000 0.33500  0.92650  0.19190  Biso   1.000  O
  O2       1.0000 0.93520  0.88520  0.10010  Biso   1.000  O
  O3       1.0000 0.76010  0.90390  0.01280  Biso   1.000  O
  C1       1.0000 0.81890  0.91150  0.08980  Biso   1.000  C
  C2       1.0000 0.74060  0.95840  0.17270  Biso   1.000  C
  C3       1.0000 0.60570  0.95730  0.17270  Biso   1.000  C
  H1       1.0000 0.55930  0.92720  0.11980  Biso   1.000  H
  O4       1.0000 0.66500  0.07350  0.69190  Biso   1.000  O
  O5       1.0000 0.06480  0.11480  0.60010  Biso   1.000  O
  O6       1.0000 0.23990  0.09610  0.51280  Biso   1.000  O
  C4       1.0000 0.18110  0.08850  0.58980  Biso   1.000  C
  C5       1.0000 0.25940  0.04160  0.67270  Biso   1.000  C
  C6       1.0000 0.39430  0.04270  0.67270  Biso   1.000  C
  H2       1.0000 0.44070  0.07280  0.61980  Biso   1.000  H
  O7       1.0000 0.07350  0.33500  0.44190  Biso   1.000  O
  O8       1.0000 0.11480  0.93520  0.35010  Biso   1.000  O
  O9       1.0000 0.09610  0.76010  0.26280  Biso   1.000  O
  C7       1.0000 0.08850  0.81890  0.33980  Biso   1.000  C
  C8       1.0000 0.04160  0.74060  0.42270  Biso   1.000  C
  C9       1.0000 0.04270  0.60570  0.42270  Biso   1.000  C
  H3       1.0000 0.07280  0.55930  0.36980  Biso   1.000  H
  O10      1.0000 0.92650  0.66500  0.94190  Biso   1.000  O
  O11      1.0000 0.88520  0.06480  0.85010  Biso   1.000  O
  O12      1.0000 0.90390  0.23990  0.76280  Biso   1.000  O
  C10      1.0000 0.91150  0.18110  0.83980  Biso   1.000  C
  C11      1.0000 0.95840  0.25940  0.92270  Biso   1.000  C
  C12      1.0000 0.95730  0.39430  0.92270  Biso   1.000  C
  H4       1.0000 0.92720  0.44070  0.86980  Biso   1.000  H
  O13      1.0000 0.66500  0.92650  0.80810  Biso   1.000  O
  O14      1.0000 0.06480  0.88520  0.89990  Biso   1.000  O
  O15      1.0000 0.23990  0.90390  0.98720  Biso   1.000  O
  C13      1.0000 0.18110  0.91150  0.91020  Biso   1.000  C
  C14      1.0000 0.25940  0.95840  0.82730  Biso   1.000  C
  C15      1.0000 0.39430  0.95730  0.82730  Biso   1.000  C
  H5       1.0000 0.44070  0.92720  0.88020  Biso   1.000  H
  O16      1.0000 0.33500  0.07350  0.30810  Biso   1.000  O
  O17      1.0000 0.93520  0.11480  0.39990  Biso   1.000  O
  O18      1.0000 0.76010  0.09610  0.48720  Biso   1.000  O
  C16      1.0000 0.81890  0.08850  0.41020  Biso   1.000  C
  C17      1.0000 0.74060  0.04160  0.32730  Biso   1.000  C
  C18      1.0000 0.60570  0.04270  0.32730  Biso   1.000  C
  H6       1.0000 0.55930  0.07280  0.38020  Biso   1.000  H
  O19      1.0000 0.92650  0.33500  0.55810  Biso   1.000  O
  O20      1.0000 0.88520  0.93520  0.64990  Biso   1.000  O
  O21      1.0000 0.90390  0.76010  0.73720  Biso   1.000  O
  C19      1.0000 0.91150  0.81890  0.66020  Biso   1.000  C
  C20      1.0000 0.95840  0.74060  0.57730  Biso   1.000  C
  C21      1.0000 0.95730  0.60570  0.57730  Biso   1.000  C
  H7       1.0000 0.92720  0.55930  0.63020  Biso   1.000  H
  O22      1.0000 0.07350  0.66500  0.05810  Biso   1.000  O
  O23      1.0000 0.11480  0.06480  0.14990  Biso   1.000  O
  O24      1.0000 0.09610  0.23990  0.23720  Biso   1.000  O
  C22      1.0000 0.08850  0.18110  0.16020  Biso   1.000  C
  C23      1.0000 0.04160  0.25940  0.07730  Biso   1.000  C
  C24      1.0000 0.04270  0.39430  0.07730  Biso   1.000  C
  H8       1.0000 0.07280  0.44070  0.13020  Biso   1.000  H
  Tm1      1.0000 0.14978  0.85022  0.12500  Biso   1.000  Tm
  Tm2      1.0000 0.85022  0.14978  0.62500  Biso   1.000  Tm
  Tm3      1.0000 0.14978  0.14978  0.37500  Biso   1.000  Tm
  Tm4      1.0000 0.85022  0.85022  0.87500  Biso   1.000  Tm
  C25      1.0000 0.53750  0.00000  0.25000  Biso   1.000  C
  C26      1.0000 0.80820  0.00000  0.25000  Biso   1.000  C
  H9       1.0000 0.90130  0.00000  0.25000  Biso   1.000  H
  C27      1.0000 0.38980  0.00000  0.25000  Biso   1.000  C
  C28      1.0000 0.46250  0.00000  0.75000  Biso   1.000  C
  C29      1.0000 0.19180  0.00000  0.75000  Biso   1.000  C
  H10      1.0000 0.09870  0.00000  0.75000  Biso   1.000  H
  C30      1.0000 0.61020  0.00000  0.75000  Biso   1.000  C
  C31      1.0000 0.00000  0.53750  0.50000  Biso   1.000  C
  C32      1.0000 0.00000  0.80820  0.50000  Biso   1.000  C
  H11      1.0000 0.00000  0.90130  0.50000  Biso   1.000  H
  C33      1.0000 0.00000  0.38980  0.50000  Biso   1.000  C
  C34      1.0000 0.00000  0.46250  0.00000  Biso   1.000  C
  C35      1.0000 0.00000  0.19180  0.00000  Biso   1.000  C
  H12      1.0000 0.00000  0.09870  0.00000  Biso   1.000  H
  C36      1.0000 0.00000  0.61020  0.00000  Biso   1.000  C
