data_AVIMUO_clean
_audit_creation_date              2014-07-02
_audit_creation_method            'Materials Studio'
_symmetry_space_group_name_H-M    'P1'
_symmetry_Int_Tables_number       1
_symmetry_cell_setting            triclinic
loop_
_symmetry_equiv_pos_as_xyz
  x,y,z
_cell_length_a                    8.6801
_cell_length_b                    13.9279
_cell_length_c                    28.7080
_cell_angle_alpha                 90.0000
_cell_angle_beta                  90.0000
_cell_angle_gamma                 90.9100
loop_
_atom_site_label
_atom_site_type_symbol
_atom_site_fract_x
_atom_site_fract_y
_atom_site_fract_z
_atom_site_U_iso_or_equiv
_atom_site_adp_type
_atom_site_occupancy
Mn1    Mn    0.02907   0.94851   0.12671   0.01267  Uiso   1.00
Mn2    Mn    0.42118   0.93774   0.16490   0.01267  Uiso   1.00
Mn3    Mn    0.97093   0.55149   0.62671   0.01267  Uiso   1.00
Mn4    Mn    0.57882   0.56226   0.66490   0.01267  Uiso   1.00
Mn5    Mn    0.97093   0.05149   0.87329   0.01267  Uiso   1.00
Mn6    Mn    0.57882   0.06226   0.83510   0.01267  Uiso   1.00
Mn7    Mn    0.02907   0.44851   0.37329   0.01267  Uiso   1.00
Mn8    Mn    0.42118   0.43774   0.33510   0.01267  Uiso   1.00
H1     H     0.96520   0.70380   0.13240   0.01267  Uiso   1.00
H2     H     0.88680   0.48780   0.22290   0.01267  Uiso   1.00
H3     H     0.26470   0.65460   0.23660   0.01267  Uiso   1.00
H4     H     0.88190   0.48050   0.10680   0.01267  Uiso   1.00
H5     H     0.82440   0.57560   0.08400   0.01267  Uiso   1.00
H6     H     0.75950   0.37720   0.04550   0.01267  Uiso   1.00
H7     H     0.54790   0.28640   0.02570   0.01267  Uiso   1.00
H8     H     0.28840   0.47830   0.09310   0.01267  Uiso   1.00
H9     H     0.50870   0.55710   0.11870   0.01267  Uiso   1.00
H10    H     0.13750   0.19000   0.95710   0.01267  Uiso   1.00
H11    H     0.35710   0.26760   0.98450   0.01267  Uiso   1.00
H12    H     0.12000   0.36340   0.09520   0.01267  Uiso   1.00
H13    H     0.91060   0.26920   0.07170   0.01267  Uiso   1.00
H14    H     0.56890   0.19300   0.93540   0.01267  Uiso   1.00
H15    H     0.19540   0.04900   0.98150   0.01267  Uiso   1.00
H16    H     0.53520   0.12010   0.07100   0.01267  Uiso   1.00
H17    H     0.87330   0.11010   0.99960   0.01267  Uiso   1.00
H18    H     0.85850   0.18590   0.95980   0.01267  Uiso   1.00
H19    H     0.03480   0.79620   0.63240   0.01267  Uiso   1.00
H20    H     0.11320   0.01220   0.72290   0.01267  Uiso   1.00
H21    H     0.73530   0.84540   0.73660   0.01267  Uiso   1.00
H22    H     0.11810   0.01950   0.60680   0.01267  Uiso   1.00
H23    H     0.17560   0.92440   0.58400   0.01267  Uiso   1.00
H24    H     0.24050   0.12280   0.54550   0.01267  Uiso   1.00
H25    H     0.45210   0.21360   0.52570   0.01267  Uiso   1.00
H26    H     0.71160   0.02170   0.59310   0.01267  Uiso   1.00
H27    H     0.49130   0.94290   0.61870   0.01267  Uiso   1.00
H28    H     0.86250   0.31000   0.45710   0.01267  Uiso   1.00
H29    H     0.64290   0.23240   0.48450   0.01267  Uiso   1.00
H30    H     0.88000   0.13660   0.59520   0.01267  Uiso   1.00
H31    H     0.08940   0.23080   0.57170   0.01267  Uiso   1.00
H32    H     0.43110   0.30700   0.43540   0.01267  Uiso   1.00
H33    H     0.80460   0.45100   0.48150   0.01267  Uiso   1.00
H34    H     0.46480   0.37990   0.57100   0.01267  Uiso   1.00
H35    H     0.12670   0.38990   0.49960   0.01267  Uiso   1.00
H36    H     0.14150   0.31410   0.45980   0.01267  Uiso   1.00
H37    H     0.03480   0.29620   0.86760   0.01267  Uiso   1.00
H38    H     0.11320   0.51220   0.77710   0.01267  Uiso   1.00
H39    H     0.73530   0.34540   0.76340   0.01267  Uiso   1.00
H40    H     0.11810   0.51950   0.89320   0.01267  Uiso   1.00
H41    H     0.17560   0.42440   0.91600   0.01267  Uiso   1.00
H42    H     0.24050   0.62280   0.95450   0.01267  Uiso   1.00
H43    H     0.45210   0.71360   0.97430   0.01267  Uiso   1.00
H44    H     0.71160   0.52170   0.90690   0.01267  Uiso   1.00
H45    H     0.49130   0.44290   0.88130   0.01267  Uiso   1.00
H46    H     0.86250   0.81000   0.04290   0.01267  Uiso   1.00
H47    H     0.64290   0.73240   0.01550   0.01267  Uiso   1.00
H48    H     0.88000   0.63660   0.90480   0.01267  Uiso   1.00
H49    H     0.08940   0.73080   0.92830   0.01267  Uiso   1.00
H50    H     0.43110   0.80700   0.06460   0.01267  Uiso   1.00
H51    H     0.80460   0.95100   0.01850   0.01267  Uiso   1.00
H52    H     0.46480   0.87990   0.92900   0.01267  Uiso   1.00
H53    H     0.12670   0.88990   0.00040   0.01267  Uiso   1.00
H54    H     0.14150   0.81410   0.04020   0.01267  Uiso   1.00
H55    H     0.96520   0.20380   0.36760   0.01267  Uiso   1.00
H56    H     0.88680   0.98780   0.27710   0.01267  Uiso   1.00
H57    H     0.26470   0.15460   0.26340   0.01267  Uiso   1.00
H58    H     0.88190   0.98050   0.39320   0.01267  Uiso   1.00
H59    H     0.82440   0.07560   0.41600   0.01267  Uiso   1.00
H60    H     0.75950   0.87720   0.45450   0.01267  Uiso   1.00
H61    H     0.54790   0.78640   0.47430   0.01267  Uiso   1.00
H62    H     0.28840   0.97830   0.40690   0.01267  Uiso   1.00
H63    H     0.50870   0.05710   0.38130   0.01267  Uiso   1.00
H64    H     0.13750   0.69000   0.54290   0.01267  Uiso   1.00
H65    H     0.35710   0.76760   0.51550   0.01267  Uiso   1.00
H66    H     0.12000   0.86340   0.40480   0.01267  Uiso   1.00
H67    H     0.91060   0.76920   0.42830   0.01267  Uiso   1.00
H68    H     0.56890   0.69300   0.56460   0.01267  Uiso   1.00
H69    H     0.19540   0.54900   0.51850   0.01267  Uiso   1.00
H70    H     0.53520   0.62010   0.42900   0.01267  Uiso   1.00
H71    H     0.87330   0.61010   0.50040   0.01267  Uiso   1.00
H72    H     0.85850   0.68590   0.54020   0.01267  Uiso   1.00
C1     C     0.12800   0.69250   0.18294   0.01267  Uiso   1.00
C2     C     0.99390   0.66900   0.15854   0.01267  Uiso   1.00
C3     C     0.90350   0.59140   0.17460   0.01267  Uiso   1.00
C4     C     0.94790   0.53910   0.21281   0.01267  Uiso   1.00
C5     C     0.08390   0.56220   0.23655   0.01267  Uiso   1.00
C6     C     0.17350   0.63890   0.22119   0.01267  Uiso   1.00
C7     C     0.21940   0.77806   0.16730   0.01267  Uiso   1.00
C8     C     0.11710   0.50840   0.28010   0.01267  Uiso   1.00
C9     C     0.79630   0.52440   0.10541   0.01267  Uiso   1.00
C10    C     0.66050   0.47240   0.08683   0.01267  Uiso   1.00
C11    C     0.66410   0.39490   0.05707   0.01267  Uiso   1.00
C12    C     0.53820   0.34210   0.04329   0.01267  Uiso   1.00
C13    C     0.39590   0.37530   0.05674   0.01267  Uiso   1.00
C14    C     0.38480   0.45600   0.08456   0.01267  Uiso   1.00
C15    C     0.51700   0.50350   0.09965   0.01267  Uiso   1.00
C16    C     0.13410   0.22380   0.98502   0.01267  Uiso   1.00
C17    C     0.26560   0.27070   0.00128   0.01267  Uiso   1.00
C18    C     0.26060   0.32270   0.04291   0.01267  Uiso   1.00
C19    C     0.12550   0.32640   0.06834   0.01267  Uiso   1.00
C20    C     0.99760   0.27340   0.05285   0.01267  Uiso   1.00
C21    C     0.99650   0.22700   0.01023   0.01267  Uiso   1.00
C22    C     0.57710   0.16250   0.00433   0.01267  Uiso   1.00
C23    C     0.51490   0.16350   0.95962   0.01267  Uiso   1.00
C24    C     0.37120   0.12030   0.95109   0.01267  Uiso   1.00
C25    C     0.29150   0.07700   0.98712   0.01267  Uiso   1.00
C26    C     0.35350   0.07490   0.03181   0.01267  Uiso   1.00
C27    C     0.49540   0.11930   0.04097   0.01267  Uiso   1.00
C28    C     0.30930   0.12140   0.90416   0.01267  Uiso   1.00
C29    C     0.27410   0.02680   0.07218   0.01267  Uiso   1.00
C30    C     0.86230   0.17810   0.99337   0.01267  Uiso   1.00
C31    C     0.87200   0.80750   0.68294   0.01267  Uiso   1.00
C32    C     0.00610   0.83100   0.65854   0.01267  Uiso   1.00
C33    C     0.09650   0.90860   0.67460   0.01267  Uiso   1.00
C34    C     0.05210   0.96090   0.71281   0.01267  Uiso   1.00
C35    C     0.91610   0.93780   0.73655   0.01267  Uiso   1.00
C36    C     0.82650   0.86110   0.72119   0.01267  Uiso   1.00
C37    C     0.78060   0.72194   0.66730   0.01267  Uiso   1.00
C38    C     0.88290   0.99160   0.78010   0.01267  Uiso   1.00
C39    C     0.20370   0.97560   0.60541   0.01267  Uiso   1.00
C40    C     0.33950   0.02760   0.58683   0.01267  Uiso   1.00
C41    C     0.33590   0.10510   0.55707   0.01267  Uiso   1.00
C42    C     0.46180   0.15790   0.54329   0.01267  Uiso   1.00
C43    C     0.60410   0.12470   0.55674   0.01267  Uiso   1.00
C44    C     0.61520   0.04400   0.58456   0.01267  Uiso   1.00
C45    C     0.48300   0.99650   0.59965   0.01267  Uiso   1.00
C46    C     0.86590   0.27620   0.48502   0.01267  Uiso   1.00
C47    C     0.73440   0.22930   0.50128   0.01267  Uiso   1.00
C48    C     0.73940   0.17730   0.54291   0.01267  Uiso   1.00
C49    C     0.87450   0.17360   0.56834   0.01267  Uiso   1.00
C50    C     0.00240   0.22660   0.55285   0.01267  Uiso   1.00
C51    C     0.00350   0.27300   0.51023   0.01267  Uiso   1.00
C52    C     0.42290   0.33750   0.50433   0.01267  Uiso   1.00
C53    C     0.48510   0.33650   0.45962   0.01267  Uiso   1.00
C54    C     0.62880   0.37970   0.45109   0.01267  Uiso   1.00
C55    C     0.70850   0.42300   0.48712   0.01267  Uiso   1.00
C56    C     0.64650   0.42510   0.53181   0.01267  Uiso   1.00
C57    C     0.50460   0.38070   0.54097   0.01267  Uiso   1.00
C58    C     0.69070   0.37860   0.40416   0.01267  Uiso   1.00
C59    C     0.72590   0.47320   0.57218   0.01267  Uiso   1.00
C60    C     0.13770   0.32190   0.49337   0.01267  Uiso   1.00
C61    C     0.87200   0.30750   0.81706   0.01267  Uiso   1.00
C62    C     0.00610   0.33100   0.84146   0.01267  Uiso   1.00
C63    C     0.09650   0.40860   0.82540   0.01267  Uiso   1.00
C64    C     0.05210   0.46090   0.78719   0.01267  Uiso   1.00
C65    C     0.91610   0.43780   0.76345   0.01267  Uiso   1.00
C66    C     0.82650   0.36110   0.77881   0.01267  Uiso   1.00
C67    C     0.78060   0.22194   0.83270   0.01267  Uiso   1.00
C68    C     0.88290   0.49160   0.71990   0.01267  Uiso   1.00
C69    C     0.20370   0.47560   0.89459   0.01267  Uiso   1.00
C70    C     0.33950   0.52760   0.91317   0.01267  Uiso   1.00
C71    C     0.33590   0.60510   0.94293   0.01267  Uiso   1.00
C72    C     0.46180   0.65790   0.95671   0.01267  Uiso   1.00
C73    C     0.60410   0.62470   0.94326   0.01267  Uiso   1.00
C74    C     0.61520   0.54400   0.91544   0.01267  Uiso   1.00
C75    C     0.48300   0.49650   0.90035   0.01267  Uiso   1.00
C76    C     0.86590   0.77620   0.01498   0.01267  Uiso   1.00
C77    C     0.73440   0.72930   0.99872   0.01267  Uiso   1.00
C78    C     0.73940   0.67730   0.95709   0.01267  Uiso   1.00
C79    C     0.87450   0.67360   0.93166   0.01267  Uiso   1.00
C80    C     0.00240   0.72660   0.94715   0.01267  Uiso   1.00
C81    C     0.00350   0.77300   0.98977   0.01267  Uiso   1.00
C82    C     0.42290   0.83750   0.99567   0.01267  Uiso   1.00
C83    C     0.48510   0.83650   0.04038   0.01267  Uiso   1.00
C84    C     0.62880   0.87970   0.04891   0.01267  Uiso   1.00
C85    C     0.70850   0.92300   0.01288   0.01267  Uiso   1.00
C86    C     0.64650   0.92510   0.96819   0.01267  Uiso   1.00
C87    C     0.50460   0.88070   0.95903   0.01267  Uiso   1.00
C88    C     0.69070   0.87860   0.09584   0.01267  Uiso   1.00
C89    C     0.72590   0.97320   0.92782   0.01267  Uiso   1.00
C90    C     0.13770   0.82190   0.00663   0.01267  Uiso   1.00
C91    C     0.12800   0.19250   0.31706   0.01267  Uiso   1.00
C92    C     0.99390   0.16900   0.34146   0.01267  Uiso   1.00
C93    C     0.90350   0.09140   0.32540   0.01267  Uiso   1.00
C94    C     0.94790   0.03910   0.28719   0.01267  Uiso   1.00
C95    C     0.08390   0.06220   0.26345   0.01267  Uiso   1.00
C96    C     0.17350   0.13890   0.27881   0.01267  Uiso   1.00
C97    C     0.21940   0.27806   0.33270   0.01267  Uiso   1.00
C98    C     0.11710   0.00840   0.21990   0.01267  Uiso   1.00
C99    C     0.79630   0.02440   0.39459   0.01267  Uiso   1.00
C100   C     0.66050   0.97240   0.41317   0.01267  Uiso   1.00
C101   C     0.66410   0.89490   0.44293   0.01267  Uiso   1.00
C102   C     0.53820   0.84210   0.45671   0.01267  Uiso   1.00
C103   C     0.39590   0.87530   0.44326   0.01267  Uiso   1.00
C104   C     0.38480   0.95600   0.41544   0.01267  Uiso   1.00
C105   C     0.51700   0.00350   0.40035   0.01267  Uiso   1.00
C106   C     0.13410   0.72380   0.51498   0.01267  Uiso   1.00
C107   C     0.26560   0.77070   0.49872   0.01267  Uiso   1.00
C108   C     0.26060   0.82270   0.45709   0.01267  Uiso   1.00
C109   C     0.12550   0.82640   0.43166   0.01267  Uiso   1.00
C110   C     0.99760   0.77340   0.44715   0.01267  Uiso   1.00
C111   C     0.99650   0.72700   0.48977   0.01267  Uiso   1.00
C112   C     0.57710   0.66250   0.49567   0.01267  Uiso   1.00
C113   C     0.51490   0.66350   0.54038   0.01267  Uiso   1.00
C114   C     0.37120   0.62030   0.54891   0.01267  Uiso   1.00
C115   C     0.29150   0.57700   0.51288   0.01267  Uiso   1.00
C116   C     0.35350   0.57490   0.46819   0.01267  Uiso   1.00
C117   C     0.49540   0.61930   0.45903   0.01267  Uiso   1.00
C118   C     0.30930   0.62140   0.59584   0.01267  Uiso   1.00
C119   C     0.27410   0.52680   0.42782   0.01267  Uiso   1.00
C120   C     0.86230   0.67810   0.50663   0.01267  Uiso   1.00
O1     O     0.17050   0.82810   0.13331   0.01267  Uiso   1.00
O2     O     0.34240   0.79897   0.18834   0.01267  Uiso   1.00
O3     O     0.26200   0.51154   0.28819   0.01267  Uiso   1.00
O4     O     0.02410   0.45552   0.30016   0.01267  Uiso   1.00
O5     O     0.77360   0.56525   0.15109   0.01267  Uiso   1.00
O6     O     0.71460   0.20856   0.01277   0.01267  Uiso   1.00
O7     O     0.39520   0.12884   0.86850   0.01267  Uiso   1.00
O8     O     0.16240   0.11860   0.90120   0.01267  Uiso   1.00
O9     O     0.14200   0.99436   0.06379   0.01267  Uiso   1.00
O10    O     0.34880   0.02258   0.11017   0.01267  Uiso   1.00
O11    O     0.82950   0.67190   0.63331   0.01267  Uiso   1.00
O12    O     0.65760   0.70103   0.68834   0.01267  Uiso   1.00
O13    O     0.73800   0.98846   0.78819   0.01267  Uiso   1.00
O14    O     0.97590   0.04448   0.80016   0.01267  Uiso   1.00
O15    O     0.22640   0.93475   0.65109   0.01267  Uiso   1.00
O16    O     0.28540   0.29144   0.51277   0.01267  Uiso   1.00
O17    O     0.60480   0.37116   0.36850   0.01267  Uiso   1.00
O18    O     0.83760   0.38140   0.40120   0.01267  Uiso   1.00
O19    O     0.85800   0.50564   0.56379   0.01267  Uiso   1.00
O20    O     0.65120   0.47742   0.61017   0.01267  Uiso   1.00
O21    O     0.82950   0.17190   0.86669   0.01267  Uiso   1.00
O22    O     0.65760   0.20103   0.81166   0.01267  Uiso   1.00
O23    O     0.73800   0.48846   0.71181   0.01267  Uiso   1.00
O24    O     0.97590   0.54448   0.69984   0.01267  Uiso   1.00
O25    O     0.22640   0.43475   0.84891   0.01267  Uiso   1.00
O26    O     0.28540   0.79144   0.98723   0.01267  Uiso   1.00
O27    O     0.60480   0.87116   0.13150   0.01267  Uiso   1.00
O28    O     0.83760   0.88140   0.09880   0.01267  Uiso   1.00
O29    O     0.85800   0.00564   0.93621   0.01267  Uiso   1.00
O30    O     0.65120   0.97742   0.88983   0.01267  Uiso   1.00
O31    O     0.17050   0.32810   0.36669   0.01267  Uiso   1.00
O32    O     0.34240   0.29897   0.31166   0.01267  Uiso   1.00
O33    O     0.26200   0.01154   0.21181   0.01267  Uiso   1.00
O34    O     0.02410   0.95552   0.19984   0.01267  Uiso   1.00
O35    O     0.77360   0.06525   0.34891   0.01267  Uiso   1.00
O36    O     0.71460   0.70856   0.48723   0.01267  Uiso   1.00
O37    O     0.39520   0.62884   0.63150   0.01267  Uiso   1.00
O38    O     0.16240   0.61860   0.59880   0.01267  Uiso   1.00
O39    O     0.14200   0.49436   0.43621   0.01267  Uiso   1.00
O40    O     0.34880   0.52258   0.38983   0.01267  Uiso   1.00
