data_image0
_cell_length_a       13.7442
_cell_length_b       14.2887
_cell_length_c       14.1178
_cell_angle_alpha    90
_cell_angle_beta     104.912
_cell_angle_gamma    90

_symmetry_space_group_name_H-M    "P 1"
_symmetry_int_tables_number       1

loop_
  _symmetry_equiv_pos_as_xyz
  'x, y, z'

loop_
  _atom_site_label
  _atom_site_occupancy
  _atom_site_fract_x
  _atom_site_fract_y
  _atom_site_fract_z
  _atom_site_thermal_displace_type
  _atom_site_B_iso_or_equiv
  _atom_site_type_symbol
  Mg1      1.0000 0.12529  0.20877  0.51738  Biso   1.000  Mg
  Mg2      1.0000 0.38341  0.09888  0.55142  Biso   1.000  Mg
  O1       1.0000 0.19145  0.22052  0.40448  Biso   1.000  O
  O2       1.0000 0.35618  0.18963  0.43698  Biso   1.000  O
  O3       1.0000 0.13693  0.49403  0.04613  Biso   1.000  O
  O4       1.0000 0.03124  0.41132  0.10807  Biso   1.000  O
  O5       1.0000 0.38565  0.20130  0.65092  Biso   1.000  O
  O6       1.0000 0.23710  0.27378  0.61779  Biso   1.000  O
  O7       1.0000 0.31728  0.57459  0.95772  Biso   1.000  O
  O8       1.0000 0.18032  0.50920  0.86580  Biso   1.000  O
  N1       1.0000 0.37116  0.31887  0.17735  Biso   1.000  N
  N2       1.0000 0.48396  0.34107  0.91229  Biso   1.000  N
  C1       1.0000 0.27576  0.22438  0.38628  Biso   1.000  C
  C2       1.0000 0.27990  0.27669  0.29475  Biso   1.000  C
  C3       1.0000 0.36424  0.27390  0.25820  Biso   1.000  C
  H1       1.0000 0.41920  0.23870  0.29190  Biso   1.000  H
  C4       1.0000 0.29223  0.37090  0.13069  Biso   1.000  C
  H2       1.0000 0.29720  0.40460  0.07580  Biso   1.000  H
  C5       1.0000 0.20354  0.37721  0.15988  Biso   1.000  C
  C6       1.0000 0.11645  0.43276  0.09951  Biso   1.000  C
  C7       1.0000 0.19757  0.32831  0.24281  Biso   1.000  C
  H3       1.0000 0.13870  0.33000  0.26370  Biso   1.000  H
  C8       1.0000 0.32456  0.25948  0.66813  Biso   1.000  C
  C9       1.0000 0.35959  0.31742  0.75953  Biso   1.000  C
  C10      1.0000 0.45061  0.29710  0.82593  Biso   1.000  C
  H4       1.0000 0.49070  0.25050  0.80980  Biso   1.000  H
  C11      1.0000 0.42648  0.40988  0.93231  Biso   1.000  C
  H5       1.0000 0.44840  0.44120  0.99170  Biso   1.000  H
  C12      1.0000 0.33553  0.43730  0.86910  Biso   1.000  C
  C13      1.0000 0.27400  0.51340  0.89882  Biso   1.000  C
  C14      1.0000 0.30124  0.38875  0.78197  Biso   1.000  C
  H6       1.0000 0.23970  0.40390  0.73910  Biso   1.000  H
  Mg3      1.0000 0.37471  0.70877  0.98262  Biso   1.000  Mg
  Mg4      1.0000 0.11659  0.59888  0.94858  Biso   1.000  Mg
  O9       1.0000 0.30855  0.72052  0.09552  Biso   1.000  O
  O10      1.0000 0.14382  0.68963  0.06302  Biso   1.000  O
  O11      1.0000 0.36307  0.99403  0.45387  Biso   1.000  O
  O12      1.0000 0.46876  0.91132  0.39193  Biso   1.000  O
  O13      1.0000 0.11435  0.70130  0.84908  Biso   1.000  O
  O14      1.0000 0.26290  0.77378  0.88221  Biso   1.000  O
  O15      1.0000 0.18272  0.07459  0.54228  Biso   1.000  O
  O16      1.0000 0.31968  0.00920  0.63420  Biso   1.000  O
  N3       1.0000 0.12884  0.81887  0.32265  Biso   1.000  N
  N4       1.0000 0.01604  0.84107  0.58771  Biso   1.000  N
  C15      1.0000 0.22424  0.72438  0.11372  Biso   1.000  C
  C16      1.0000 0.22010  0.77669  0.20525  Biso   1.000  C
  C17      1.0000 0.13576  0.77390  0.24180  Biso   1.000  C
  H7       1.0000 0.08080  0.73870  0.20810  Biso   1.000  H
  C18      1.0000 0.20777  0.87090  0.36931  Biso   1.000  C
  H8       1.0000 0.20280  0.90460  0.42420  Biso   1.000  H
  C19      1.0000 0.29646  0.87721  0.34012  Biso   1.000  C
  C20      1.0000 0.38355  0.93276  0.40049  Biso   1.000  C
  C21      1.0000 0.30243  0.82831  0.25719  Biso   1.000  C
  H9       1.0000 0.36130  0.83000  0.23630  Biso   1.000  H
  C22      1.0000 0.17544  0.75948  0.83187  Biso   1.000  C
  C23      1.0000 0.14041  0.81742  0.74047  Biso   1.000  C
  C24      1.0000 0.04939  0.79710  0.67407  Biso   1.000  C
  H10      1.0000 0.00930  0.75050  0.69020  Biso   1.000  H
  C25      1.0000 0.07352  0.90988  0.56769  Biso   1.000  C
  H11      1.0000 0.05160  0.94120  0.50830  Biso   1.000  H
  C26      1.0000 0.16447  0.93730  0.63090  Biso   1.000  C
  C27      1.0000 0.22600  0.01340  0.60118  Biso   1.000  C
  C28      1.0000 0.19876  0.88875  0.71803  Biso   1.000  C
  H12      1.0000 0.26030  0.90390  0.76090  Biso   1.000  H
  Mg5      1.0000 0.87471  0.79123  0.48262  Biso   1.000  Mg
  Mg6      1.0000 0.61659  0.90112  0.44858  Biso   1.000  Mg
  O17      1.0000 0.80855  0.77948  0.59552  Biso   1.000  O
  O18      1.0000 0.64382  0.81037  0.56302  Biso   1.000  O
  O19      1.0000 0.86307  0.50597  0.95387  Biso   1.000  O
  O20      1.0000 0.96876  0.58868  0.89193  Biso   1.000  O
  O21      1.0000 0.61435  0.79870  0.34908  Biso   1.000  O
  O22      1.0000 0.76290  0.72622  0.38221  Biso   1.000  O
  O23      1.0000 0.68272  0.42541  0.04228  Biso   1.000  O
  O24      1.0000 0.81968  0.49080  0.13420  Biso   1.000  O
  N5       1.0000 0.62884  0.68113  0.82265  Biso   1.000  N
  N6       1.0000 0.51604  0.65893  0.08771  Biso   1.000  N
  C29      1.0000 0.72424  0.77562  0.61372  Biso   1.000  C
  C30      1.0000 0.72010  0.72331  0.70525  Biso   1.000  C
  C31      1.0000 0.63576  0.72610  0.74180  Biso   1.000  C
  H13      1.0000 0.58080  0.76130  0.70810  Biso   1.000  H
  C32      1.0000 0.70777  0.62910  0.86931  Biso   1.000  C
  H14      1.0000 0.70280  0.59540  0.92420  Biso   1.000  H
  C33      1.0000 0.79646  0.62279  0.84012  Biso   1.000  C
  C34      1.0000 0.88355  0.56724  0.90049  Biso   1.000  C
  C35      1.0000 0.80243  0.67169  0.75719  Biso   1.000  C
  H15      1.0000 0.86130  0.67000  0.73630  Biso   1.000  H
  C36      1.0000 0.67544  0.74052  0.33187  Biso   1.000  C
  C37      1.0000 0.64041  0.68258  0.24047  Biso   1.000  C
  C38      1.0000 0.54939  0.70290  0.17407  Biso   1.000  C
  H16      1.0000 0.50930  0.74950  0.19020  Biso   1.000  H
  C39      1.0000 0.57352  0.59012  0.06769  Biso   1.000  C
  H17      1.0000 0.55160  0.55880  0.00830  Biso   1.000  H
  C40      1.0000 0.66447  0.56270  0.13090  Biso   1.000  C
  C41      1.0000 0.72600  0.48660  0.10118  Biso   1.000  C
  C42      1.0000 0.69876  0.61125  0.21803  Biso   1.000  C
  H18      1.0000 0.76030  0.59610  0.26090  Biso   1.000  H
  Mg7      1.0000 0.62529  0.29123  0.01738  Biso   1.000  Mg
  Mg8      1.0000 0.88341  0.40112  0.05142  Biso   1.000  Mg
  O25      1.0000 0.69145  0.27948  0.90448  Biso   1.000  O
  O26      1.0000 0.85618  0.31037  0.93698  Biso   1.000  O
  O27      1.0000 0.63693  0.00597  0.54613  Biso   1.000  O
  O28      1.0000 0.53124  0.08868  0.60807  Biso   1.000  O
  O29      1.0000 0.88565  0.29870  0.15092  Biso   1.000  O
  O30      1.0000 0.73710  0.22622  0.11779  Biso   1.000  O
  O31      1.0000 0.81728  0.92541  0.45772  Biso   1.000  O
  O32      1.0000 0.68032  0.99080  0.36580  Biso   1.000  O
  N7       1.0000 0.87116  0.18113  0.67735  Biso   1.000  N
  N8       1.0000 0.98396  0.15893  0.41229  Biso   1.000  N
  C43      1.0000 0.77576  0.27562  0.88628  Biso   1.000  C
  C44      1.0000 0.77990  0.22331  0.79475  Biso   1.000  C
  C45      1.0000 0.86424  0.22610  0.75820  Biso   1.000  C
  H19      1.0000 0.91920  0.26130  0.79190  Biso   1.000  H
  C46      1.0000 0.79223  0.12910  0.63069  Biso   1.000  C
  H20      1.0000 0.79720  0.09540  0.57580  Biso   1.000  H
  C47      1.0000 0.70354  0.12279  0.65988  Biso   1.000  C
  C48      1.0000 0.61645  0.06724  0.59951  Biso   1.000  C
  C49      1.0000 0.69757  0.17169  0.74281  Biso   1.000  C
  H21      1.0000 0.63870  0.17000  0.76370  Biso   1.000  H
  C50      1.0000 0.82456  0.24052  0.16813  Biso   1.000  C
  C51      1.0000 0.85959  0.18258  0.25953  Biso   1.000  C
  C52      1.0000 0.95061  0.20290  0.32593  Biso   1.000  C
  H22      1.0000 0.99070  0.24950  0.30980  Biso   1.000  H
  C53      1.0000 0.92648  0.09012  0.43231  Biso   1.000  C
  H23      1.0000 0.94840  0.05880  0.49170  Biso   1.000  H
  C54      1.0000 0.83553  0.06270  0.36910  Biso   1.000  C
  C55      1.0000 0.77400  0.98660  0.39882  Biso   1.000  C
  C56      1.0000 0.80124  0.11125  0.28197  Biso   1.000  C
  H24      1.0000 0.73970  0.09610  0.23910  Biso   1.000  H
