data_AVOSIO_charged
_audit_creation_date              2014-07-02
_audit_creation_method            'Materials Studio'
_symmetry_space_group_name_H-M    'P1'
_symmetry_Int_Tables_number       1
_symmetry_cell_setting            triclinic
loop_
_symmetry_equiv_pos_as_xyz
  x,y,z
_cell_length_a                    13.7461
_cell_length_b                    24.4020
_cell_length_c                    24.4020
_cell_angle_alpha                 120.0000
_cell_angle_beta                  90.0000
_cell_angle_gamma                 90.0000
loop_
_atom_site_label
_atom_site_type_symbol
_atom_site_fract_x
_atom_site_fract_y
_atom_site_fract_z
_atom_site_U_iso_or_equiv
_atom_site_adp_type
_atom_site_occupancy
Ag1    Ag    0.90779   0.09474   0.32485   0.01267  Uiso   1.00
Ag2    Ag    0.75371   0.16454   0.82050   0.01267  Uiso   1.00
Ag3    Ag    0.24112   0.23011   0.90526   0.01267  Uiso   1.00
Ag4    Ag    0.08704   0.65596   0.83546   0.01267  Uiso   1.00
Ag5    Ag    0.57446   0.67515   0.76989   0.01267  Uiso   1.00
Ag6    Ag    0.42038   0.17950   0.34404   0.01267  Uiso   1.00
H1     H     0.73130   0.90570   0.09770   0.01267  Uiso   1.00
H2     H     0.72930   0.11590   0.15070   0.01267  Uiso   1.00
H3     H     0.56340   0.02520   0.02950   0.01267  Uiso   1.00
H4     H     0.59010   0.09610   0.08150   0.01267  Uiso   1.00
H5     H     0.72150   0.15050   0.06600   0.01267  Uiso   1.00
H6     H     0.73670   0.99360   0.85420   0.01267  Uiso   1.00
H7     H     0.59770   0.94190   0.87040   0.01267  Uiso   1.00
H8     H     0.56860   0.95950   0.94080   0.01267  Uiso   1.00
H9     H     0.74040   0.88570   0.82430   0.01267  Uiso   1.00
H10    H     0.76280   0.82870   0.97830   0.01267  Uiso   1.00
H11    H     0.61500   0.87800   0.01900   0.01267  Uiso   1.00
H12    H     0.57190   0.92930   0.00310   0.01267  Uiso   1.00
H13    H     0.79580   0.90010   0.19870   0.01267  Uiso   1.00
H14    H     0.91100   0.90320   0.19080   0.01267  Uiso   1.00
H15    H     0.84020   0.88690   0.13260   0.01267  Uiso   1.00
H16    H     0.76280   0.17930   0.25600   0.01267  Uiso   1.00
H17    H     0.86400   0.17400   0.22010   0.01267  Uiso   1.00
H18    H     0.84880   0.21870   0.35120   0.01267  Uiso   1.00
H19    H     0.01780   0.16060   0.28130   0.01267  Uiso   1.00
H20    H     0.01020   0.20480   0.35890   0.01267  Uiso   1.00
H21    H     0.76440   0.24710   0.07230   0.01267  Uiso   1.00
H22    H     0.87600   0.26230   0.06680   0.01267  Uiso   1.00
H23    H     0.84870   0.20860   0.08350   0.01267  Uiso   1.00
H24    H     0.78030   0.02570   0.79450   0.01267  Uiso   1.00
H25    H     0.88850   0.01380   0.81130   0.01267  Uiso   1.00
H26    H     0.88060   0.05350   0.73120   0.01267  Uiso   1.00
H27    H     0.93220   0.15280   0.84650   0.01267  Uiso   1.00
H28    H     0.95120   0.14550   0.77650   0.01267  Uiso   1.00
H29    H     0.81370   0.80630   0.72640   0.01267  Uiso   1.00
H30    H     0.92640   0.78750   0.71520   0.01267  Uiso   1.00
H31    H     0.89460   0.85710   0.76870   0.01267  Uiso   1.00
H32    H     0.83000   0.74070   0.94550   0.01267  Uiso   1.00
H33    H     0.94210   0.76310   0.95410   0.01267  Uiso   1.00
H34    H     0.97750   0.68330   0.95750   0.01267  Uiso   1.00
H35    H     0.99280   0.61160   0.89680   0.01267  Uiso   1.00
H36    H     0.91060   0.64000   0.83890   0.01267  Uiso   1.00
H37    H     0.21770   0.16570   0.51150   0.01267  Uiso   1.00
H38    H     0.21530   0.36360   0.52810   0.01267  Uiso   1.00
H39    H     0.39880   0.35230   0.61870   0.01267  Uiso   1.00
H40    H     0.35920   0.39220   0.58760   0.01267  Uiso   1.00
H41    H     0.23130   0.46630   0.63520   0.01267  Uiso   1.00
H42    H     0.25440   0.44770   0.81480   0.01267  Uiso   1.00
H43    H     0.40890   0.34410   0.69530   0.01267  Uiso   1.00
H44    H     0.39330   0.37820   0.77030   0.01267  Uiso   1.00
H45    H     0.24880   0.35170   0.81080   0.01267  Uiso   1.00
H46    H     0.22440   0.16050   0.61820   0.01267  Uiso   1.00
H47    H     0.35280   0.19230   0.57920   0.01267  Uiso   1.00
H48    H     0.39680   0.26230   0.61560   0.01267  Uiso   1.00
H49    H     0.14600   0.36220   0.45840   0.01267  Uiso   1.00
H50    H     0.03700   0.36930   0.48410   0.01267  Uiso   1.00
H51    H     0.05670   0.33800   0.40980   0.01267  Uiso   1.00
H52    H     0.05120   0.10150   0.44070   0.01267  Uiso   1.00
H53    H     0.16540   0.09920   0.42540   0.01267  Uiso   1.00
H54    H     0.10770   0.08070   0.31650   0.01267  Uiso   1.00
H55    H     0.98750   0.01020   0.35330   0.01267  Uiso   1.00
H56    H     0.00260   0.99560   0.28030   0.01267  Uiso   1.00
H57    H     0.13510   0.50190   0.88120   0.01267  Uiso   1.00
H58    H     0.10590   0.57520   0.91980   0.01267  Uiso   1.00
H59    H     0.21790   0.55510   0.90510   0.01267  Uiso   1.00
H60    H     0.08950   0.55380   0.66120   0.01267  Uiso   1.00
H61    H     0.20290   0.56790   0.67750   0.01267  Uiso   1.00
H62    H     0.16800   0.68080   0.73730   0.01267  Uiso   1.00
H63    H     0.96970   0.65480   0.74900   0.01267  Uiso   1.00
H64    H     0.01670   0.72540   0.77400   0.01267  Uiso   1.00
H65    H     0.10240   0.11450   0.62190   0.01267  Uiso   1.00
H66    H     0.05590   0.08190   0.65870   0.01267  Uiso   1.00
H67    H     0.17150   0.08310   0.65150   0.01267  Uiso   1.00
H68    H     0.08850   0.35600   0.87170   0.01267  Uiso   1.00
H69    H     0.20190   0.34730   0.88180   0.01267  Uiso   1.00
H70    H     0.12140   0.34830   0.97410   0.01267  Uiso   1.00
H71    H     0.05910   0.23120   0.87720   0.01267  Uiso   1.00
H72    H     0.05450   0.25610   0.95350   0.01267  Uiso   1.00
H73    H     0.06463   0.19200   0.09430   0.01267  Uiso   1.00
H74    H     0.06263   0.03480   0.88410   0.01267  Uiso   1.00
H75    H     0.89673   0.00430   0.97480   0.01267  Uiso   1.00
H76    H     0.92343   0.98540   0.90390   0.01267  Uiso   1.00
H77    H     0.05483   0.91550   0.84950   0.01267  Uiso   1.00
H78    H     0.07003   0.86060   0.00640   0.01267  Uiso   1.00
H79    H     0.93103   0.92850   0.05810   0.01267  Uiso   1.00
H80    H     0.90193   0.98130   0.04050   0.01267  Uiso   1.00
H81    H     0.07373   0.93860   0.11430   0.01267  Uiso   1.00
H82    H     0.09613   0.14960   0.17130   0.01267  Uiso   1.00
H83    H     0.94833   0.14100   0.12200   0.01267  Uiso   1.00
H84    H     0.90523   0.07380   0.07070   0.01267  Uiso   1.00
H85    H     0.12913   0.29860   0.09990   0.01267  Uiso   1.00
H86    H     0.24433   0.28760   0.09680   0.01267  Uiso   1.00
H87    H     0.17353   0.24570   0.11310   0.01267  Uiso   1.00
H88    H     0.09613   0.07670   0.82070   0.01267  Uiso   1.00
H89    H     0.19733   0.04610   0.82600   0.01267  Uiso   1.00
H90    H     0.18213   0.13250   0.78130   0.01267  Uiso   1.00
H91    H     0.35113   0.12070   0.83940   0.01267  Uiso   1.00
H92    H     0.34353   0.15410   0.79520   0.01267  Uiso   1.00
H93    H     0.09773   0.82520   0.75290   0.01267  Uiso   1.00
H94    H     0.20933   0.80450   0.73770   0.01267  Uiso   1.00
H95    H     0.18203   0.87490   0.79140   0.01267  Uiso   1.00
H96    H     0.11363   0.76880   0.97430   0.01267  Uiso   1.00
H97    H     0.22183   0.79750   0.98620   0.01267  Uiso   1.00
H98    H     0.21393   0.67770   0.94650   0.01267  Uiso   1.00
H99    H     0.26553   0.69370   0.84720   0.01267  Uiso   1.00
H100   H     0.28453   0.63100   0.85450   0.01267  Uiso   1.00
H101   H     0.14703   0.92010   0.19370   0.01267  Uiso   1.00
H102   H     0.25973   0.92770   0.21250   0.01267  Uiso   1.00
H103   H     0.22793   0.91160   0.14290   0.01267  Uiso   1.00
H104   H     0.16333   0.20480   0.25930   0.01267  Uiso   1.00
H105   H     0.27543   0.19100   0.23690   0.01267  Uiso   1.00
H106   H     0.31083   0.27420   0.31670   0.01267  Uiso   1.00
H107   H     0.32613   0.28520   0.38840   0.01267  Uiso   1.00
H108   H     0.24393   0.19890   0.36000   0.01267  Uiso   1.00
H109   H     0.55103   0.34580   0.83430   0.01267  Uiso   1.00
H110   H     0.54863   0.16450   0.63640   0.01267  Uiso   1.00
H111   H     0.73213   0.26640   0.64770   0.01267  Uiso   1.00
H112   H     0.69253   0.19540   0.60780   0.01267  Uiso   1.00
H113   H     0.56463   0.16890   0.53370   0.01267  Uiso   1.00
H114   H     0.58773   0.36710   0.55230   0.01267  Uiso   1.00
H115   H     0.74223   0.35120   0.65590   0.01267  Uiso   1.00
H116   H     0.72663   0.39210   0.62180   0.01267  Uiso   1.00
H117   H     0.58213   0.45910   0.64830   0.01267  Uiso   1.00
H118   H     0.55773   0.45770   0.83950   0.01267  Uiso   1.00
H119   H     0.68613   0.38690   0.80770   0.01267  Uiso   1.00
H120   H     0.73013   0.35330   0.73770   0.01267  Uiso   1.00
H121   H     0.47933   0.09620   0.63780   0.01267  Uiso   1.00
H122   H     0.37033   0.11480   0.63070   0.01267  Uiso   1.00
H123   H     0.39003   0.07180   0.66200   0.01267  Uiso   1.00
H124   H     0.38453   0.33920   0.89850   0.01267  Uiso   1.00
H125   H     0.49873   0.32620   0.90080   0.01267  Uiso   1.00
H126   H     0.44103   0.23580   0.91930   0.01267  Uiso   1.00
H127   H     0.32083   0.34310   0.98980   0.01267  Uiso   1.00
H128   H     0.33593   0.28470   0.00440   0.01267  Uiso   1.00
H129   H     0.46843   0.37930   0.49810   0.01267  Uiso   1.00
H130   H     0.43923   0.34460   0.42480   0.01267  Uiso   1.00
H131   H     0.55123   0.35000   0.44490   0.01267  Uiso   1.00
H132   H     0.42283   0.10740   0.44620   0.01267  Uiso   1.00
H133   H     0.53623   0.10960   0.43210   0.01267  Uiso   1.00
H134   H     0.50133   0.05650   0.31920   0.01267  Uiso   1.00
H135   H     0.30303   0.09420   0.34520   0.01267  Uiso   1.00
H136   H     0.35003   0.04860   0.27460   0.01267  Uiso   1.00
H137   H     0.43573   0.50740   0.88550   0.01267  Uiso   1.00
H138   H     0.38923   0.57680   0.91810   0.01267  Uiso   1.00
H139   H     0.50483   0.56840   0.91690   0.01267  Uiso   1.00
H140   H     0.42183   0.51570   0.64400   0.01267  Uiso   1.00
H141   H     0.53523   0.53450   0.65270   0.01267  Uiso   1.00
H142   H     0.45473   0.62580   0.65170   0.01267  Uiso   1.00
H143   H     0.39243   0.64600   0.76880   0.01267  Uiso   1.00
H144   H     0.38783   0.69740   0.74390   0.01267  Uiso   1.00
H145   H     0.39797   0.90230   0.80800   0.01267  Uiso   1.00
H146   H     0.39597   0.84930   0.96520   0.01267  Uiso   1.00
H147   H     0.23007   0.97050   0.99570   0.01267  Uiso   1.00
H148   H     0.25677   0.91850   0.01460   0.01267  Uiso   1.00
H149   H     0.38817   0.93400   0.08450   0.01267  Uiso   1.00
H150   H     0.40337   0.14580   0.13940   0.01267  Uiso   1.00
H151   H     0.26437   0.12960   0.07150   0.01267  Uiso   1.00
H152   H     0.23527   0.05920   0.01870   0.01267  Uiso   1.00
H153   H     0.40707   0.17570   0.06140   0.01267  Uiso   1.00
H154   H     0.42947   0.02170   0.85040   0.01267  Uiso   1.00
H155   H     0.28167   0.98100   0.85900   0.01267  Uiso   1.00
H156   H     0.23857   0.99690   0.92620   0.01267  Uiso   1.00
H157   H     0.46247   0.80130   0.70140   0.01267  Uiso   1.00
H158   H     0.57767   0.80920   0.71240   0.01267  Uiso   1.00
H159   H     0.50687   0.86740   0.75430   0.01267  Uiso   1.00
H160   H     0.42947   0.74400   0.92330   0.01267  Uiso   1.00
H161   H     0.53067   0.77990   0.95390   0.01267  Uiso   1.00
H162   H     0.51547   0.64880   0.86750   0.01267  Uiso   1.00
H163   H     0.68447   0.71870   0.87930   0.01267  Uiso   1.00
H164   H     0.67687   0.64110   0.84590   0.01267  Uiso   1.00
H165   H     0.43107   0.92770   0.17480   0.01267  Uiso   1.00
H166   H     0.54267   0.93320   0.19550   0.01267  Uiso   1.00
H167   H     0.51537   0.91650   0.12510   0.01267  Uiso   1.00
H168   H     0.44697   0.20550   0.23120   0.01267  Uiso   1.00
H169   H     0.55517   0.18870   0.20250   0.01267  Uiso   1.00
H170   H     0.54727   0.26880   0.32230   0.01267  Uiso   1.00
H171   H     0.59887   0.15350   0.30630   0.01267  Uiso   1.00
H172   H     0.61787   0.22350   0.36900   0.01267  Uiso   1.00
H173   H     0.48037   0.27360   0.07990   0.01267  Uiso   1.00
H174   H     0.59307   0.28480   0.07230   0.01267  Uiso   1.00
H175   H     0.56127   0.23130   0.08840   0.01267  Uiso   1.00
H176   H     0.49667   0.05450   0.79520   0.01267  Uiso   1.00
H177   H     0.60877   0.04590   0.80900   0.01267  Uiso   1.00
H178   H     0.64417   0.04250   0.72580   0.01267  Uiso   1.00
H179   H     0.65947   0.10320   0.71480   0.01267  Uiso   1.00
H180   H     0.57727   0.16110   0.80110   0.01267  Uiso   1.00
H181   H     0.88437   0.48850   0.65420   0.01267  Uiso   1.00
H182   H     0.88197   0.47190   0.83550   0.01267  Uiso   1.00
H183   H     0.06547   0.38130   0.73360   0.01267  Uiso   1.00
H184   H     0.02587   0.41240   0.80460   0.01267  Uiso   1.00
H185   H     0.89797   0.36480   0.83110   0.01267  Uiso   1.00
H186   H     0.92107   0.18520   0.63290   0.01267  Uiso   1.00
H187   H     0.07557   0.30470   0.64880   0.01267  Uiso   1.00
H188   H     0.05997   0.22970   0.60790   0.01267  Uiso   1.00
H189   H     0.91547   0.18920   0.54090   0.01267  Uiso   1.00
H190   H     0.89107   0.38180   0.54230   0.01267  Uiso   1.00
H191   H     0.01947   0.42080   0.61310   0.01267  Uiso   1.00
H192   H     0.06347   0.38440   0.64670   0.01267  Uiso   1.00
H193   H     0.81267   0.54160   0.90380   0.01267  Uiso   1.00
H194   H     0.70367   0.51590   0.88520   0.01267  Uiso   1.00
H195   H     0.72337   0.59020   0.92820   0.01267  Uiso   1.00
H196   H     0.71787   0.55930   0.66080   0.01267  Uiso   1.00
H197   H     0.83207   0.57460   0.67380   0.01267  Uiso   1.00
H198   H     0.77437   0.68350   0.76420   0.01267  Uiso   1.00
H199   H     0.65417   0.64670   0.65690   0.01267  Uiso   1.00
H200   H     0.66927   0.71970   0.71530   0.01267  Uiso   1.00
H201   H     0.80177   0.11880   0.62070   0.01267  Uiso   1.00
H202   H     0.77257   0.08020   0.65540   0.01267  Uiso   1.00
H203   H     0.88457   0.09490   0.65000   0.01267  Uiso   1.00
H204   H     0.75617   0.33880   0.89260   0.01267  Uiso   1.00
H205   H     0.86957   0.32250   0.89040   0.01267  Uiso   1.00
H206   H     0.83467   0.26270   0.94350   0.01267  Uiso   1.00
H207   H     0.63637   0.25100   0.90580   0.01267  Uiso   1.00
H208   H     0.68337   0.22600   0.95140   0.01267  Uiso   1.00
H209   H     0.76907   0.37810   0.49260   0.01267  Uiso   1.00
H210   H     0.72257   0.34130   0.42320   0.01267  Uiso   1.00
H211   H     0.83817   0.34850   0.43160   0.01267  Uiso   1.00
H212   H     0.75517   0.12830   0.48430   0.01267  Uiso   1.00
H213   H     0.86857   0.11820   0.46550   0.01267  Uiso   1.00
H214   H     0.78807   0.02590   0.37420   0.01267  Uiso   1.00
H215   H     0.72577   0.12280   0.35400   0.01267  Uiso   1.00
H216   H     0.72117   0.04650   0.30260   0.01267  Uiso   1.00
C1     C     0.68160   0.96550   0.07010   0.01267  Uiso   1.00
C2     C     0.73180   0.94870   0.10770   0.01267  Uiso   1.00
C3     C     0.78280   0.99240   0.15930   0.01267  Uiso   1.00
C4     C     0.78020   0.05630   0.17530   0.01267  Uiso   1.00
C5     C     0.72960   0.07260   0.13970   0.01267  Uiso   1.00
C6     C     0.67730   0.03000   0.08740   0.01267  Uiso   1.00
C7     C     0.61830   0.05460   0.05070   0.01267  Uiso   1.00
C8     C     0.67230   0.06220   0.00240   0.01267  Uiso   1.00
C9     C     0.72320   0.11840   0.02270   0.01267  Uiso   1.00
C10    C     0.77840   0.12760   0.97800   0.01267  Uiso   1.00
C11    C     0.77930   0.08120   0.91460   0.01267  Uiso   1.00
C12    C     0.73160   0.02660   0.89700   0.01267  Uiso   1.00
C13    C     0.67530   0.01590   0.93810   0.01267  Uiso   1.00
C14    C     0.62410   0.95430   0.91280   0.01267  Uiso   1.00
C15    C     0.69110   0.90040   0.90750   0.01267  Uiso   1.00
C16    C     0.74520   0.87300   0.85520   0.01267  Uiso   1.00
C17    C     0.81220   0.82280   0.84680   0.01267  Uiso   1.00
C18    C     0.81840   0.80600   0.89240   0.01267  Uiso   1.00
C19    C     0.75860   0.83890   0.94560   0.01267  Uiso   1.00
C20    C     0.69300   0.88580   0.95290   0.01267  Uiso   1.00
C21    C     0.63290   0.91260   0.01080   0.01267  Uiso   1.00
C22    C     0.84730   0.91180   0.17870   0.01267  Uiso   1.00
C23    C     0.83090   0.16430   0.25030   0.01267  Uiso   1.00
C24    C     0.88480   0.19350   0.31340   0.01267  Uiso   1.00
C25    C     0.98020   0.18550   0.31830   0.01267  Uiso   1.00
C26    C     0.82950   0.22880   0.05910   0.01267  Uiso   1.00
C27    C     0.84340   0.04620   0.81300   0.01267  Uiso   1.00
C28    C     0.88560   0.07620   0.77600   0.01267  Uiso   1.00
C29    C     0.92620   0.12910   0.80180   0.01267  Uiso   1.00
C30    C     0.87700   0.81220   0.74710   0.01267  Uiso   1.00
C31    C     0.89150   0.73720   0.92290   0.01267  Uiso   1.00
C32    C     0.96730   0.65320   0.91410   0.01267  Uiso   1.00
C33    C     0.92410   0.66710   0.88260   0.01267  Uiso   1.00
C34    C     0.27480   0.25520   0.56200   0.01267  Uiso   1.00
C35    C     0.21460   0.20680   0.51640   0.01267  Uiso   1.00
C36    C     0.15110   0.21780   0.47880   0.01267  Uiso   1.00
C37    C     0.15050   0.27640   0.48340   0.01267  Uiso   1.00
C38    C     0.21360   0.32390   0.52640   0.01267  Uiso   1.00
C39    C     0.27290   0.31390   0.56590   0.01267  Uiso   1.00
C40    C     0.33930   0.36930   0.60970   0.01267  Uiso   1.00
C41    C     0.29110   0.41520   0.67140   0.01267  Uiso   1.00
C42    C     0.23600   0.46290   0.67230   0.01267  Uiso   1.00
C43    C     0.18550   0.50750   0.72880   0.01267  Uiso   1.00
C44    C     0.19570   0.50350   0.78540   0.01267  Uiso   1.00
C45    C     0.25040   0.45330   0.77900   0.01267  Uiso   1.00
C46    C     0.29820   0.41200   0.72710   0.01267  Uiso   1.00
C47    C     0.35910   0.35990   0.72910   0.01267  Uiso   1.00
C48    C     0.29520   0.30500   0.72050   0.01267  Uiso   1.00
C49    C     0.24300   0.31300   0.77190   0.01267  Uiso   1.00
C50    C     0.18300   0.26680   0.76880   0.01267  Uiso   1.00
C51    C     0.17630   0.20670   0.71120   0.01267  Uiso   1.00
C52    C     0.22820   0.19910   0.65730   0.01267  Uiso   1.00
C53    C     0.28510   0.24960   0.66290   0.01267  Uiso   1.00
C54    C     0.33550   0.23770   0.60400   0.01267  Uiso   1.00
C55    C     0.08140   0.34260   0.44960   0.01267  Uiso   1.00
C56    C     0.10020   0.10960   0.41590   0.01267  Uiso   1.00
C57    C     0.07840   0.07030   0.34540   0.01267  Uiso   1.00
C58    C     0.01670   0.02040   0.32430   0.01267  Uiso   1.00
C59    C     0.15130   0.54430   0.88880   0.01267  Uiso   1.00
C60    C     0.13680   0.57660   0.69600   0.01267  Uiso   1.00
C61    C     0.11500   0.65350   0.73170   0.01267  Uiso   1.00
C62    C     0.02420   0.68070   0.75380   0.01267  Uiso   1.00
C63    C     0.11100   0.10670   0.65730   0.01267  Uiso   1.00
C64    C     0.13660   0.32780   0.87520   0.01267  Uiso   1.00
C65    C     0.10950   0.31630   0.93170   0.01267  Uiso   1.00
C66    C     0.07100   0.26320   0.91980   0.01267  Uiso   1.00
C67    C     0.01493   0.10460   0.03450   0.01267  Uiso   1.00
C68    C     0.06513   0.15900   0.05130   0.01267  Uiso   1.00
C69    C     0.11613   0.16690   0.00760   0.01267  Uiso   1.00
C70    C     0.11353   0.11900   0.94370   0.01267  Uiso   1.00
C71    C     0.06293   0.06710   0.92740   0.01267  Uiso   1.00
C72    C     0.01063   0.05740   0.97000   0.01267  Uiso   1.00
C73    C     0.95163   0.99610   0.94540   0.01267  Uiso   1.00
C74    C     0.00563   0.94020   0.93780   0.01267  Uiso   1.00
C75    C     0.05653   0.90430   0.88160   0.01267  Uiso   1.00
C76    C     0.11173   0.85040   0.87240   0.01267  Uiso   1.00
C77    C     0.11263   0.83340   0.91880   0.01267  Uiso   1.00
C78    C     0.06493   0.87040   0.97340   0.01267  Uiso   1.00
C79    C     0.00863   0.92220   0.98410   0.01267  Uiso   1.00
C80    C     0.95743   0.95850   0.04570   0.01267  Uiso   1.00
C81    C     0.02443   0.00710   0.09960   0.01267  Uiso   1.00
C82    C     0.07853   0.98220   0.12700   0.01267  Uiso   1.00
C83    C     0.14553   0.02400   0.17720   0.01267  Uiso   1.00
C84    C     0.15173   0.08640   0.19400   0.01267  Uiso   1.00
C85    C     0.09193   0.10670   0.16110   0.01267  Uiso   1.00
C86    C     0.02633   0.06710   0.11420   0.01267  Uiso   1.00
C87    C     0.96623   0.09820   0.08740   0.01267  Uiso   1.00
C88    C     0.18063   0.26690   0.08820   0.01267  Uiso   1.00
C89    C     0.16423   0.08600   0.83570   0.01267  Uiso   1.00
C90    C     0.21813   0.11990   0.80650   0.01267  Uiso   1.00
C91    C     0.31353   0.13280   0.81450   0.01267  Uiso   1.00
C92    C     0.16283   0.83030   0.77120   0.01267  Uiso   1.00
C93    C     0.17673   0.76680   0.95380   0.01267  Uiso   1.00
C94    C     0.21893   0.69980   0.92380   0.01267  Uiso   1.00
C95    C     0.25953   0.67270   0.87090   0.01267  Uiso   1.00
C96    C     0.21033   0.93490   0.18780   0.01267  Uiso   1.00
C97    C     0.22483   0.18570   0.26280   0.01267  Uiso   1.00
C98    C     0.30063   0.26090   0.34680   0.01267  Uiso   1.00
C99    C     0.25743   0.21550   0.33290   0.01267  Uiso   1.00
C100   C     0.60813   0.30680   0.74480   0.01267  Uiso   1.00
C101   C     0.54793   0.30960   0.79320   0.01267  Uiso   1.00
C102   C     0.48443   0.26100   0.78220   0.01267  Uiso   1.00
C103   C     0.48383   0.20700   0.72360   0.01267  Uiso   1.00
C104   C     0.54693   0.20250   0.67610   0.01267  Uiso   1.00
C105   C     0.60623   0.25200   0.68610   0.01267  Uiso   1.00
C106   C     0.67263   0.24040   0.63070   0.01267  Uiso   1.00
C107   C     0.62443   0.25620   0.58480   0.01267  Uiso   1.00
C108   C     0.56933   0.20940   0.53710   0.01267  Uiso   1.00
C109   C     0.51883   0.22130   0.49250   0.01267  Uiso   1.00
C110   C     0.52903   0.28190   0.49650   0.01267  Uiso   1.00
C111   C     0.58373   0.32570   0.54670   0.01267  Uiso   1.00
C112   C     0.63153   0.31510   0.58800   0.01267  Uiso   1.00
C113   C     0.69243   0.36920   0.64010   0.01267  Uiso   1.00
C114   C     0.62853   0.41550   0.69500   0.01267  Uiso   1.00
C115   C     0.57633   0.45890   0.68700   0.01267  Uiso   1.00
C116   C     0.51633   0.50200   0.73320   0.01267  Uiso   1.00
C117   C     0.50963   0.50450   0.79330   0.01267  Uiso   1.00
C118   C     0.56153   0.45820   0.80090   0.01267  Uiso   1.00
C119   C     0.61843   0.41330   0.75040   0.01267  Uiso   1.00
C120   C     0.66883   0.36630   0.76230   0.01267  Uiso   1.00
C121   C     0.41473   0.10700   0.65740   0.01267  Uiso   1.00
C122   C     0.43353   0.30630   0.89040   0.01267  Uiso   1.00
C123   C     0.41173   0.27510   0.92970   0.01267  Uiso   1.00
C124   C     0.35003   0.30390   0.97960   0.01267  Uiso   1.00
C125   C     0.48463   0.34450   0.45570   0.01267  Uiso   1.00
C126   C     0.47013   0.11940   0.42340   0.01267  Uiso   1.00
C127   C     0.44833   0.07820   0.34650   0.01267  Uiso   1.00
C128   C     0.35753   0.07310   0.31930   0.01267  Uiso   1.00
C129   C     0.44433   0.55060   0.89330   0.01267  Uiso   1.00
C130   C     0.46993   0.54740   0.67220   0.01267  Uiso   1.00
C131   C     0.44283   0.61540   0.68370   0.01267  Uiso   1.00
C132   C     0.40433   0.65660   0.73680   0.01267  Uiso   1.00
C133   C     0.34827   0.92990   0.89540   0.01267  Uiso   1.00
C134   C     0.39847   0.89230   0.84100   0.01267  Uiso   1.00
C135   C     0.44947   0.84070   0.83310   0.01267  Uiso   1.00
C136   C     0.44687   0.82470   0.88100   0.01267  Uiso   1.00
C137   C     0.39627   0.86030   0.93290   0.01267  Uiso   1.00
C138   C     0.34397   0.91260   0.94260   0.01267  Uiso   1.00
C139   C     0.28497   0.94930   0.00390   0.01267  Uiso   1.00
C140   C     0.33897   0.99760   0.05980   0.01267  Uiso   1.00
C141   C     0.38987   0.97730   0.09570   0.01267  Uiso   1.00
C142   C     0.44507   0.02200   0.14960   0.01267  Uiso   1.00
C143   C     0.44597   0.08540   0.16660   0.01267  Uiso   1.00
C144   C     0.39827   0.10300   0.12960   0.01267  Uiso   1.00
C145   C     0.34197   0.06190   0.07780   0.01267  Uiso   1.00
C146   C     0.29077   0.08720   0.04150   0.01267  Uiso   1.00
C147   C     0.35777   0.09250   0.99290   0.01267  Uiso   1.00
C148   C     0.41187   0.14480   0.01780   0.01267  Uiso   1.00
C149   C     0.47887   0.15320   0.97600   0.01267  Uiso   1.00
C150   C     0.48507   0.10760   0.91360   0.01267  Uiso   1.00
C151   C     0.42527   0.05440   0.89330   0.01267  Uiso   1.00
C152   C     0.35967   0.04710   0.93290   0.01267  Uiso   1.00
C153   C     0.29957   0.98920   0.90180   0.01267  Uiso   1.00
C154   C     0.51397   0.82130   0.73310   0.01267  Uiso   1.00
C155   C     0.49757   0.74970   0.91400   0.01267  Uiso   1.00
C156   C     0.55147   0.68660   0.88010   0.01267  Uiso   1.00
C157   C     0.64687   0.68170   0.86720   0.01267  Uiso   1.00
C158   C     0.49617   0.94090   0.16970   0.01267  Uiso   1.00
C159   C     0.51007   0.18700   0.23320   0.01267  Uiso   1.00
C160   C     0.55227   0.22400   0.30020   0.01267  Uiso   1.00
C161   C     0.59287   0.19820   0.32730   0.01267  Uiso   1.00
C162   C     0.54367   0.25290   0.06510   0.01267  Uiso   1.00
C163   C     0.55817   0.07710   0.81430   0.01267  Uiso   1.00
C164   C     0.63397   0.08590   0.73910   0.01267  Uiso   1.00
C165   C     0.59077   0.11740   0.78450   0.01267  Uiso   1.00
C166   C     0.94147   0.43800   0.69320   0.01267  Uiso   1.00
C167   C     0.88127   0.48360   0.69040   0.01267  Uiso   1.00
C168   C     0.81777   0.52120   0.73900   0.01267  Uiso   1.00
C169   C     0.81717   0.51660   0.79300   0.01267  Uiso   1.00
C170   C     0.88027   0.47360   0.79750   0.01267  Uiso   1.00
C171   C     0.93957   0.43410   0.74800   0.01267  Uiso   1.00
C172   C     0.00597   0.39030   0.75960   0.01267  Uiso   1.00
C173   C     0.95777   0.32860   0.74380   0.01267  Uiso   1.00
C174   C     0.90267   0.32770   0.79060   0.01267  Uiso   1.00
C175   C     0.85217   0.27120   0.77870   0.01267  Uiso   1.00
C176   C     0.86237   0.21460   0.71810   0.01267  Uiso   1.00
C177   C     0.91707   0.22100   0.67430   0.01267  Uiso   1.00
C178   C     0.96487   0.27290   0.68490   0.01267  Uiso   1.00
C179   C     0.02577   0.27090   0.63080   0.01267  Uiso   1.00
C180   C     0.96187   0.27950   0.58450   0.01267  Uiso   1.00
C181   C     0.90967   0.22810   0.54110   0.01267  Uiso   1.00
C182   C     0.84967   0.23120   0.49800   0.01267  Uiso   1.00
C183   C     0.84297   0.28880   0.49550   0.01267  Uiso   1.00
C184   C     0.89487   0.34270   0.54180   0.01267  Uiso   1.00
C185   C     0.95177   0.33710   0.58670   0.01267  Uiso   1.00
C186   C     0.00217   0.39600   0.63370   0.01267  Uiso   1.00
C187   C     0.74807   0.55040   0.89300   0.01267  Uiso   1.00
C188   C     0.76687   0.58410   0.69370   0.01267  Uiso   1.00
C189   C     0.74507   0.65460   0.72490   0.01267  Uiso   1.00
C190   C     0.68337   0.67570   0.69610   0.01267  Uiso   1.00
C191   C     0.81797   0.11120   0.65550   0.01267  Uiso   1.00
C192   C     0.80347   0.30400   0.88060   0.01267  Uiso   1.00
C193   C     0.78167   0.26830   0.92180   0.01267  Uiso   1.00
C194   C     0.69087   0.24620   0.92690   0.01267  Uiso   1.00
C195   C     0.77767   0.34270   0.44940   0.01267  Uiso   1.00
C196   C     0.80327   0.12480   0.45260   0.01267  Uiso   1.00
C197   C     0.77617   0.06830   0.38460   0.01267  Uiso   1.00
C198   C     0.73767   0.08020   0.34340   0.01267  Uiso   1.00
O1     O     0.83960   0.97900   0.19930   0.01267  Uiso   1.00
O2     O     0.83570   0.09460   0.22850   0.01267  Uiso   1.00
O3     O     0.82850   0.18350   0.99440   0.01267  Uiso   1.00
O4     O     0.83040   0.09560   0.87660   0.01267  Uiso   1.00
O5     O     0.87120   0.79030   0.79400   0.01267  Uiso   1.00
O6     O     0.87880   0.75550   0.87730   0.01267  Uiso   1.00
O7     O     0.08760   0.28460   0.44440   0.01267  Uiso   1.00
O8     O     0.09680   0.17140   0.43040   0.01267  Uiso   1.00
O9     O     0.11550   0.16350   0.71310   0.01267  Uiso   1.00
O10    O     0.13580   0.26790   0.82030   0.01267  Uiso   1.00
O11    O     0.14450   0.54510   0.83430   0.01267  Uiso   1.00
O12    O     0.13000   0.55690   0.73510   0.01267  Uiso   1.00
O13    O     0.17293   0.22030   0.02100   0.01267  Uiso   1.00
O14    O     0.16903   0.13390   0.90540   0.01267  Uiso   1.00
O15    O     0.16183   0.81090   0.81650   0.01267  Uiso   1.00
O16    O     0.16373   0.78100   0.90440   0.01267  Uiso   1.00
O17    O     0.20453   0.00370   0.20970   0.01267  Uiso   1.00
O18    O     0.21213   0.12180   0.24450   0.01267  Uiso   1.00
O19    O     0.42093   0.15980   0.71540   0.01267  Uiso   1.00
O20    O     0.43013   0.25900   0.82860   0.01267  Uiso   1.00
O21    O     0.44883   0.54960   0.83650   0.01267  Uiso   1.00
O22    O     0.46913   0.55240   0.73210   0.01267  Uiso   1.00
O23    O     0.47783   0.28920   0.45490   0.01267  Uiso   1.00
O24    O     0.46333   0.17820   0.44310   0.01267  Uiso   1.00
O25    O     0.50627   0.80070   0.77970   0.01267  Uiso   1.00
O26    O     0.50237   0.77150   0.86610   0.01267  Uiso   1.00
O27    O     0.49517   0.00560   0.18910   0.01267  Uiso   1.00
O28    O     0.49707   0.12340   0.21900   0.01267  Uiso   1.00
O29    O     0.53787   0.20600   0.99630   0.01267  Uiso   1.00
O30    O     0.54547   0.12270   0.87820   0.01267  Uiso   1.00
O31    O     0.75427   0.55560   0.84020   0.01267  Uiso   1.00
O32    O     0.76347   0.56960   0.74100   0.01267  Uiso   1.00
O33    O     0.78217   0.28690   0.45040   0.01267  Uiso   1.00
O34    O     0.80247   0.17970   0.44760   0.01267  Uiso   1.00
O35    O     0.81117   0.16570   0.71080   0.01267  Uiso   1.00
O36    O     0.79667   0.26490   0.82180   0.01267  Uiso   1.00
Sb1    Sb    0.04350   0.74453   0.10477   0.01267  Uiso   1.00
F1     F     0.10300   0.68420   0.04500   0.01267  Uiso   1.00
F2     F     0.96100   0.73400   0.12900   0.01267  Uiso   1.00
F3     F     0.01900   0.79440   0.07530   0.01267  Uiso   1.00
F4     F     0.03500   0.81860   0.16860   0.01267  Uiso   1.00
F5     F     0.16800   0.79200   0.09740   0.01267  Uiso   1.00
F6     F     0.12600   0.72300   0.15060   0.01267  Uiso   1.00
Sb2    Sb    0.37683   0.36024   0.25547   0.01267  Uiso   1.00
F7     F     0.43633   0.36080   0.31580   0.01267  Uiso   1.00
F8     F     0.29433   0.39500   0.26600   0.01267  Uiso   1.00
F9     F     0.35233   0.28090   0.20560   0.01267  Uiso   1.00
F10    F     0.36833   0.35000   0.18140   0.01267  Uiso   1.00
F11    F     0.50133   0.30540   0.20800   0.01267  Uiso   1.00
F12    F     0.45933   0.42760   0.27700   0.01267  Uiso   1.00
Sb3    Sb    0.71017   0.89523   0.63976   0.01267  Uiso   1.00
F13    F     0.76967   0.95500   0.63920   0.01267  Uiso   1.00
F14    F     0.62767   0.87100   0.60500   0.01267  Uiso   1.00
F15    F     0.68567   0.92470   0.71910   0.01267  Uiso   1.00
F16    F     0.70167   0.83140   0.65000   0.01267  Uiso   1.00
F17    F     0.83467   0.90260   0.69460   0.01267  Uiso   1.00
F18    F     0.79267   0.84940   0.57240   0.01267  Uiso   1.00
