data_AVUDAX_clean
_audit_creation_date              2014-07-02
_audit_creation_method            'Materials Studio'
_symmetry_space_group_name_H-M    'P1'
_symmetry_Int_Tables_number       1
_symmetry_cell_setting            triclinic
loop_
_symmetry_equiv_pos_as_xyz
  x,y,z
_cell_length_a                    13.2012
_cell_length_b                    16.7640
_cell_length_c                    23.0355
_cell_angle_alpha                 105.5580
_cell_angle_beta                  90.0000
_cell_angle_gamma                 90.0000
loop_
_atom_site_label
_atom_site_type_symbol
_atom_site_fract_x
_atom_site_fract_y
_atom_site_fract_z
_atom_site_U_iso_or_equiv
_atom_site_adp_type
_atom_site_occupancy
Cu1    Cu    0.28924   0.16159   0.75156   0.01267  Uiso   1.00
Cu2    Cu    0.78924   0.33841   0.74844   0.01267  Uiso   1.00
Cu3    Cu    0.71076   0.83841   0.24844   0.01267  Uiso   1.00
Cu4    Cu    0.21076   0.66159   0.25156   0.01267  Uiso   1.00
Cu5    Cu    0.00000   0.00000   0.00000   0.01267  Uiso   1.00
Cu6    Cu    0.50000   0.50000   0.50000   0.01267  Uiso   1.00
H1     H     0.34700   0.96900   0.69010   0.01267  Uiso   1.00
H2     H     0.08740   0.07430   0.70230   0.01267  Uiso   1.00
H3     H     0.97580   0.94010   0.66460   0.01267  Uiso   1.00
H4     H     0.03410   0.85620   0.65440   0.01267  Uiso   1.00
H5     H     0.23690   0.77980   0.38320   0.01267  Uiso   1.00
H6     H     0.08590   0.82820   0.25180   0.01267  Uiso   1.00
H7     H     0.13500   0.98490   0.44280   0.01267  Uiso   1.00
H8     H     0.21480   0.92600   0.46010   0.01267  Uiso   1.00
H9     H     0.71420   0.87290   0.39050   0.01267  Uiso   1.00
H10    H     0.84420   0.68770   0.27860   0.01267  Uiso   1.00
H11    H     0.80030   0.74850   0.48000   0.01267  Uiso   1.00
H12    H     0.75470   0.83690   0.48710   0.01267  Uiso   1.00
H13    H     0.88060   0.83960   0.57690   0.01267  Uiso   1.00
H14    H     0.14830   0.94070   0.55730   0.01267  Uiso   1.00
H15    H     0.96990   0.85430   0.41560   0.01267  Uiso   1.00
H16    H     0.22150   0.03870   0.82860   0.01267  Uiso   1.00
H17    H     0.47830   0.15550   0.83780   0.01267  Uiso   1.00
H18    H     0.52370   0.00510   0.91600   0.01267  Uiso   1.00
H19    H     0.57650   0.08330   0.90500   0.01267  Uiso   1.00
H20    H     0.35800   0.13380   0.98890   0.01267  Uiso   1.00
H21    H     0.49250   0.20940   0.15080   0.01267  Uiso   1.00
H22    H     0.65530   0.10030   0.00480   0.01267  Uiso   1.00
H23    H     0.28290   0.24720   0.08900   0.01267  Uiso   1.00
H24    H     0.31690   0.22440   0.14790   0.01267  Uiso   1.00
H25    H     0.13270   0.16180   0.03760   0.01267  Uiso   1.00
H26    H     0.16340   0.96900   0.09470   0.01267  Uiso   1.00
H27    H     0.67950   0.13290   0.14970   0.01267  Uiso   1.00
H28    H     0.68220   0.22560   0.14790   0.01267  Uiso   1.00
H29    H     0.94280   0.19900   0.01600   0.01267  Uiso   1.00
H30    H     0.81000   0.03540   0.08350   0.01267  Uiso   1.00
H31    H     0.84700   0.53100   0.80990   0.01267  Uiso   1.00
H32    H     0.58740   0.42570   0.79770   0.01267  Uiso   1.00
H33    H     0.47580   0.55990   0.83540   0.01267  Uiso   1.00
H34    H     0.53410   0.64380   0.84560   0.01267  Uiso   1.00
H35    H     0.73690   0.72020   0.11680   0.01267  Uiso   1.00
H36    H     0.58590   0.67180   0.24820   0.01267  Uiso   1.00
H37    H     0.63500   0.51510   0.05720   0.01267  Uiso   1.00
H38    H     0.71480   0.57400   0.03990   0.01267  Uiso   1.00
H39    H     0.21420   0.62710   0.10950   0.01267  Uiso   1.00
H40    H     0.34420   0.81230   0.22140   0.01267  Uiso   1.00
H41    H     0.30030   0.75150   0.02000   0.01267  Uiso   1.00
H42    H     0.25470   0.66310   0.01290   0.01267  Uiso   1.00
H43    H     0.38060   0.66040   0.92310   0.01267  Uiso   1.00
H44    H     0.64830   0.55930   0.94270   0.01267  Uiso   1.00
H45    H     0.46990   0.64570   0.08440   0.01267  Uiso   1.00
H46    H     0.72150   0.46130   0.67140   0.01267  Uiso   1.00
H47    H     0.97830   0.34450   0.66220   0.01267  Uiso   1.00
H48    H     0.02370   0.49490   0.58400   0.01267  Uiso   1.00
H49    H     0.07650   0.41670   0.59500   0.01267  Uiso   1.00
H50    H     0.85800   0.36620   0.51110   0.01267  Uiso   1.00
H51    H     0.99250   0.29060   0.34920   0.01267  Uiso   1.00
H52    H     0.15530   0.39970   0.49520   0.01267  Uiso   1.00
H53    H     0.78290   0.25280   0.41100   0.01267  Uiso   1.00
H54    H     0.81690   0.27560   0.35210   0.01267  Uiso   1.00
H55    H     0.63270   0.33820   0.46240   0.01267  Uiso   1.00
H56    H     0.66340   0.53100   0.40530   0.01267  Uiso   1.00
H57    H     0.17950   0.36710   0.35030   0.01267  Uiso   1.00
H58    H     0.18220   0.27440   0.35210   0.01267  Uiso   1.00
H59    H     0.44280   0.30100   0.48400   0.01267  Uiso   1.00
H60    H     0.31000   0.46460   0.41650   0.01267  Uiso   1.00
H61    H     0.65300   0.03100   0.30990   0.01267  Uiso   1.00
H62    H     0.91260   0.92570   0.29770   0.01267  Uiso   1.00
H63    H     0.02420   0.05990   0.33540   0.01267  Uiso   1.00
H64    H     0.96590   0.14380   0.34560   0.01267  Uiso   1.00
H65    H     0.76310   0.22020   0.61680   0.01267  Uiso   1.00
H66    H     0.91410   0.17180   0.74820   0.01267  Uiso   1.00
H67    H     0.86500   0.01510   0.55720   0.01267  Uiso   1.00
H68    H     0.78520   0.07400   0.53990   0.01267  Uiso   1.00
H69    H     0.28580   0.12710   0.60950   0.01267  Uiso   1.00
H70    H     0.15580   0.31230   0.72140   0.01267  Uiso   1.00
H71    H     0.19970   0.25150   0.52000   0.01267  Uiso   1.00
H72    H     0.24530   0.16310   0.51290   0.01267  Uiso   1.00
H73    H     0.11940   0.16040   0.42310   0.01267  Uiso   1.00
H74    H     0.85170   0.05930   0.44270   0.01267  Uiso   1.00
H75    H     0.03010   0.14570   0.58440   0.01267  Uiso   1.00
H76    H     0.77850   0.96130   0.17140   0.01267  Uiso   1.00
H77    H     0.52170   0.84450   0.16220   0.01267  Uiso   1.00
H78    H     0.47630   0.99490   0.08400   0.01267  Uiso   1.00
H79    H     0.42350   0.91670   0.09500   0.01267  Uiso   1.00
H80    H     0.64200   0.86620   0.01110   0.01267  Uiso   1.00
H81    H     0.50750   0.79060   0.84920   0.01267  Uiso   1.00
H82    H     0.34470   0.89970   0.99520   0.01267  Uiso   1.00
H83    H     0.71710   0.75280   0.91100   0.01267  Uiso   1.00
H84    H     0.68310   0.77560   0.85210   0.01267  Uiso   1.00
H85    H     0.86730   0.83820   0.96240   0.01267  Uiso   1.00
H86    H     0.83660   0.03100   0.90530   0.01267  Uiso   1.00
H87    H     0.32050   0.86710   0.85030   0.01267  Uiso   1.00
H88    H     0.31780   0.77440   0.85210   0.01267  Uiso   1.00
H89    H     0.05720   0.80100   0.98400   0.01267  Uiso   1.00
H90    H     0.19000   0.96460   0.91650   0.01267  Uiso   1.00
H91    H     0.15300   0.46900   0.19010   0.01267  Uiso   1.00
H92    H     0.41260   0.57430   0.20230   0.01267  Uiso   1.00
H93    H     0.52420   0.44010   0.16460   0.01267  Uiso   1.00
H94    H     0.46590   0.35620   0.15440   0.01267  Uiso   1.00
H95    H     0.26310   0.27980   0.88320   0.01267  Uiso   1.00
H96    H     0.41410   0.32820   0.75180   0.01267  Uiso   1.00
H97    H     0.36500   0.48490   0.94280   0.01267  Uiso   1.00
H98    H     0.28520   0.42600   0.96010   0.01267  Uiso   1.00
H99    H     0.78580   0.37290   0.89050   0.01267  Uiso   1.00
H100   H     0.65580   0.18770   0.77860   0.01267  Uiso   1.00
H101   H     0.69970   0.24850   0.98000   0.01267  Uiso   1.00
H102   H     0.74530   0.33690   0.98710   0.01267  Uiso   1.00
H103   H     0.61940   0.33960   0.07690   0.01267  Uiso   1.00
H104   H     0.35170   0.44070   0.05730   0.01267  Uiso   1.00
H105   H     0.53010   0.35430   0.91560   0.01267  Uiso   1.00
H106   H     0.27850   0.53870   0.32860   0.01267  Uiso   1.00
H107   H     0.02170   0.65550   0.33780   0.01267  Uiso   1.00
H108   H     0.97630   0.50510   0.41600   0.01267  Uiso   1.00
H109   H     0.92350   0.58330   0.40500   0.01267  Uiso   1.00
H110   H     0.14200   0.63380   0.48890   0.01267  Uiso   1.00
H111   H     0.00750   0.70940   0.65080   0.01267  Uiso   1.00
H112   H     0.84470   0.60030   0.50480   0.01267  Uiso   1.00
H113   H     0.21710   0.74720   0.58900   0.01267  Uiso   1.00
H114   H     0.18310   0.72440   0.64790   0.01267  Uiso   1.00
H115   H     0.36730   0.66180   0.53760   0.01267  Uiso   1.00
H116   H     0.33660   0.46900   0.59470   0.01267  Uiso   1.00
H117   H     0.82050   0.63290   0.64970   0.01267  Uiso   1.00
H118   H     0.81780   0.72560   0.64790   0.01267  Uiso   1.00
H119   H     0.55720   0.69900   0.51600   0.01267  Uiso   1.00
H120   H     0.69000   0.53540   0.58350   0.01267  Uiso   1.00
C1     C     0.27760   0.97640   0.68660   0.01267  Uiso   1.00
C2     C     0.13890   0.03510   0.69450   0.01267  Uiso   1.00
C3     C     0.03340   0.90880   0.64430   0.01267  Uiso   1.00
C4     C     0.19640   0.80550   0.36050   0.01267  Uiso   1.00
C5     C     0.11310   0.83320   0.28980   0.01267  Uiso   1.00
C6     C     0.14840   0.92790   0.44250   0.01267  Uiso   1.00
C7     C     0.75170   0.82530   0.37370   0.01267  Uiso   1.00
C8     C     0.82270   0.72510   0.31410   0.01267  Uiso   1.00
C9     C     0.80880   0.79960   0.46840   0.01267  Uiso   1.00
C10    C     0.90930   0.83810   0.49230   0.01267  Uiso   1.00
C11    C     0.92880   0.85440   0.55230   0.01267  Uiso   1.00
C12    C     0.01850   0.89240   0.57870   0.01267  Uiso   1.00
C13    C     0.08840   0.91520   0.54100   0.01267  Uiso   1.00
C14    C     0.07160   0.90100   0.48020   0.01267  Uiso   1.00
C15    C     0.98220   0.86330   0.45660   0.01267  Uiso   1.00
C16    C     0.28650   0.05760   0.84060   0.01267  Uiso   1.00
C17    C     0.42650   0.12150   0.84470   0.01267  Uiso   1.00
C18    C     0.51540   0.06390   0.92010   0.01267  Uiso   1.00
C19    C     0.50520   0.10760   0.98580   0.01267  Uiso   1.00
C20    C     0.41600   0.13730   0.01240   0.01267  Uiso   1.00
C21    C     0.41030   0.17350   0.07580   0.01267  Uiso   1.00
C22    C     0.49600   0.18340   0.10980   0.01267  Uiso   1.00
C23    C     0.58890   0.15470   0.08360   0.01267  Uiso   1.00
C24    C     0.59310   0.11830   0.02250   0.01267  Uiso   1.00
C25    C     0.30850   0.20290   0.10470   0.01267  Uiso   1.00
C26    C     0.15680   0.12420   0.05760   0.01267  Uiso   1.00
C27    C     0.17520   0.02080   0.08850   0.01267  Uiso   1.00
C28    C     0.68270   0.16880   0.12300   0.01267  Uiso   1.00
C29    C     0.89760   0.17420   0.03680   0.01267  Uiso   1.00
C30    C     0.82680   0.08420   0.07380   0.01267  Uiso   1.00
C31    C     0.77760   0.52360   0.81340   0.01267  Uiso   1.00
C32    C     0.63890   0.46490   0.80550   0.01267  Uiso   1.00
C33    C     0.53340   0.59120   0.85570   0.01267  Uiso   1.00
C34    C     0.69640   0.69450   0.13950   0.01267  Uiso   1.00
C35    C     0.61310   0.66680   0.21020   0.01267  Uiso   1.00
C36    C     0.64840   0.57210   0.05750   0.01267  Uiso   1.00
C37    C     0.25170   0.67470   0.12630   0.01267  Uiso   1.00
C38    C     0.32270   0.77490   0.18590   0.01267  Uiso   1.00
C39    C     0.30880   0.70040   0.03160   0.01267  Uiso   1.00
C40    C     0.40930   0.66190   0.00770   0.01267  Uiso   1.00
C41    C     0.42880   0.64560   0.94770   0.01267  Uiso   1.00
C42    C     0.51850   0.60760   0.92130   0.01267  Uiso   1.00
C43    C     0.58840   0.58480   0.95900   0.01267  Uiso   1.00
C44    C     0.57160   0.59900   0.01980   0.01267  Uiso   1.00
C45    C     0.48220   0.63670   0.04340   0.01267  Uiso   1.00
C46    C     0.78650   0.44240   0.65940   0.01267  Uiso   1.00
C47    C     0.92650   0.37850   0.65530   0.01267  Uiso   1.00
C48    C     0.01540   0.43610   0.57990   0.01267  Uiso   1.00
C49    C     0.00520   0.39240   0.51420   0.01267  Uiso   1.00
C50    C     0.91600   0.36270   0.48760   0.01267  Uiso   1.00
C51    C     0.91030   0.32650   0.42420   0.01267  Uiso   1.00
C52    C     0.99600   0.31660   0.39020   0.01267  Uiso   1.00
C53    C     0.08890   0.34530   0.41640   0.01267  Uiso   1.00
C54    C     0.09310   0.38170   0.47750   0.01267  Uiso   1.00
C55    C     0.80850   0.29710   0.39530   0.01267  Uiso   1.00
C56    C     0.65680   0.37580   0.44240   0.01267  Uiso   1.00
C57    C     0.67520   0.47920   0.41150   0.01267  Uiso   1.00
C58    C     0.18270   0.33120   0.37700   0.01267  Uiso   1.00
C59    C     0.39760   0.32580   0.46320   0.01267  Uiso   1.00
C60    C     0.32680   0.41580   0.42620   0.01267  Uiso   1.00
C61    C     0.72240   0.02360   0.31340   0.01267  Uiso   1.00
C62    C     0.86110   0.96490   0.30550   0.01267  Uiso   1.00
C63    C     0.96660   0.09120   0.35570   0.01267  Uiso   1.00
C64    C     0.80360   0.19450   0.63950   0.01267  Uiso   1.00
C65    C     0.88690   0.16680   0.71020   0.01267  Uiso   1.00
C66    C     0.85160   0.07210   0.55750   0.01267  Uiso   1.00
C67    C     0.24830   0.17470   0.62630   0.01267  Uiso   1.00
C68    C     0.17730   0.27490   0.68590   0.01267  Uiso   1.00
C69    C     0.19120   0.20040   0.53160   0.01267  Uiso   1.00
C70    C     0.09070   0.16190   0.50770   0.01267  Uiso   1.00
C71    C     0.07120   0.14560   0.44770   0.01267  Uiso   1.00
C72    C     0.98150   0.10760   0.42130   0.01267  Uiso   1.00
C73    C     0.91160   0.08480   0.45900   0.01267  Uiso   1.00
C74    C     0.92840   0.09900   0.51980   0.01267  Uiso   1.00
C75    C     0.01780   0.13670   0.54340   0.01267  Uiso   1.00
C76    C     0.71350   0.94240   0.15940   0.01267  Uiso   1.00
C77    C     0.57350   0.87850   0.15530   0.01267  Uiso   1.00
C78    C     0.48460   0.93610   0.07990   0.01267  Uiso   1.00
C79    C     0.49480   0.89240   0.01420   0.01267  Uiso   1.00
C80    C     0.58400   0.86270   0.98760   0.01267  Uiso   1.00
C81    C     0.58970   0.82650   0.92420   0.01267  Uiso   1.00
C82    C     0.50400   0.81660   0.89020   0.01267  Uiso   1.00
C83    C     0.41110   0.84530   0.91640   0.01267  Uiso   1.00
C84    C     0.40690   0.88170   0.97750   0.01267  Uiso   1.00
C85    C     0.69150   0.79710   0.89530   0.01267  Uiso   1.00
C86    C     0.84320   0.87580   0.94240   0.01267  Uiso   1.00
C87    C     0.82480   0.97920   0.91150   0.01267  Uiso   1.00
C88    C     0.31730   0.83120   0.87700   0.01267  Uiso   1.00
C89    C     0.10240   0.82580   0.96320   0.01267  Uiso   1.00
C90    C     0.17320   0.91580   0.92620   0.01267  Uiso   1.00
C91    C     0.22240   0.47640   0.18660   0.01267  Uiso   1.00
C92    C     0.36110   0.53510   0.19450   0.01267  Uiso   1.00
C93    C     0.46660   0.40880   0.14430   0.01267  Uiso   1.00
C94    C     0.30360   0.30550   0.86050   0.01267  Uiso   1.00
C95    C     0.38690   0.33320   0.78980   0.01267  Uiso   1.00
C96    C     0.35160   0.42790   0.94250   0.01267  Uiso   1.00
C97    C     0.74830   0.32530   0.87370   0.01267  Uiso   1.00
C98    C     0.67730   0.22510   0.81410   0.01267  Uiso   1.00
C99    C     0.69120   0.29960   0.96840   0.01267  Uiso   1.00
C100   C     0.59070   0.33810   0.99230   0.01267  Uiso   1.00
C101   C     0.57120   0.35440   0.05230   0.01267  Uiso   1.00
C102   C     0.48150   0.39240   0.07870   0.01267  Uiso   1.00
C103   C     0.41160   0.41520   0.04100   0.01267  Uiso   1.00
C104   C     0.42840   0.40100   0.98020   0.01267  Uiso   1.00
C105   C     0.51780   0.36330   0.95660   0.01267  Uiso   1.00
C106   C     0.21350   0.55760   0.34060   0.01267  Uiso   1.00
C107   C     0.07350   0.62150   0.34470   0.01267  Uiso   1.00
C108   C     0.98460   0.56390   0.42010   0.01267  Uiso   1.00
C109   C     0.99480   0.60760   0.48580   0.01267  Uiso   1.00
C110   C     0.08400   0.63730   0.51240   0.01267  Uiso   1.00
C111   C     0.08970   0.67350   0.57580   0.01267  Uiso   1.00
C112   C     0.00400   0.68340   0.60980   0.01267  Uiso   1.00
C113   C     0.91110   0.65470   0.58360   0.01267  Uiso   1.00
C114   C     0.90690   0.61830   0.52250   0.01267  Uiso   1.00
C115   C     0.19150   0.70290   0.60470   0.01267  Uiso   1.00
C116   C     0.34320   0.62420   0.55760   0.01267  Uiso   1.00
C117   C     0.32480   0.52080   0.58850   0.01267  Uiso   1.00
C118   C     0.81730   0.66880   0.62300   0.01267  Uiso   1.00
C119   C     0.60240   0.67420   0.53680   0.01267  Uiso   1.00
C120   C     0.67320   0.58420   0.57380   0.01267  Uiso   1.00
N1     N     0.23390   0.05000   0.70780   0.01267  Uiso   1.00
N2     N     0.21900   0.91630   0.66110   0.01267  Uiso   1.00
N3     N     0.12690   0.95440   0.66780   0.01267  Uiso   1.00
N4     N     0.17560   0.77580   0.30230   0.01267  Uiso   1.00
N5     N     0.15000   0.87790   0.38120   0.01267  Uiso   1.00
N6     N     0.09450   0.89640   0.33600   0.01267  Uiso   1.00
N7     N     0.76380   0.79210   0.31480   0.01267  Uiso   1.00
N8     N     0.79940   0.78230   0.40460   0.01267  Uiso   1.00
N9     N     0.84590   0.71790   0.36680   0.01267  Uiso   1.00
N10    N     0.33810   0.11270   0.81800   0.01267  Uiso   1.00
N11    N     0.34060   0.03360   0.88210   0.01267  Uiso   1.00
N12    N     0.43150   0.07480   0.88290   0.01267  Uiso   1.00
N13    N     0.90620   0.09460   0.04040   0.01267  Uiso   1.00
N14    N     0.81820   0.21190   0.06600   0.01267  Uiso   1.00
N15    N     0.77660   0.15390   0.09030   0.01267  Uiso   1.00
N16    N     0.11580   0.05390   0.05480   0.01267  Uiso   1.00
N17    N     0.25110   0.06720   0.11200   0.01267  Uiso   1.00
N18    N     0.23730   0.13580   0.09220   0.01267  Uiso   1.00
N19    N     0.73390   0.45000   0.79220   0.01267  Uiso   1.00
N20    N     0.71900   0.58370   0.83890   0.01267  Uiso   1.00
N21    N     0.62690   0.54560   0.83220   0.01267  Uiso   1.00
N22    N     0.67560   0.72420   0.19770   0.01267  Uiso   1.00
N23    N     0.65000   0.62210   0.11880   0.01267  Uiso   1.00
N24    N     0.59450   0.60360   0.16400   0.01267  Uiso   1.00
N25    N     0.26380   0.70790   0.18520   0.01267  Uiso   1.00
N26    N     0.29940   0.71770   0.09540   0.01267  Uiso   1.00
N27    N     0.34590   0.78210   0.13320   0.01267  Uiso   1.00
N28    N     0.83810   0.38730   0.68200   0.01267  Uiso   1.00
N29    N     0.84060   0.46640   0.61790   0.01267  Uiso   1.00
N30    N     0.93150   0.42520   0.61710   0.01267  Uiso   1.00
N31    N     0.40620   0.40540   0.45960   0.01267  Uiso   1.00
N32    N     0.31820   0.28810   0.43400   0.01267  Uiso   1.00
N33    N     0.27660   0.34610   0.40970   0.01267  Uiso   1.00
N34    N     0.61580   0.44610   0.44520   0.01267  Uiso   1.00
N35    N     0.75110   0.43280   0.38800   0.01267  Uiso   1.00
N36    N     0.73730   0.36420   0.40780   0.01267  Uiso   1.00
N37    N     0.76610   0.95000   0.29220   0.01267  Uiso   1.00
N38    N     0.78100   0.08370   0.33890   0.01267  Uiso   1.00
N39    N     0.87310   0.04560   0.33220   0.01267  Uiso   1.00
N40    N     0.82440   0.22420   0.69770   0.01267  Uiso   1.00
N41    N     0.85000   0.12210   0.61880   0.01267  Uiso   1.00
N42    N     0.90550   0.10360   0.66400   0.01267  Uiso   1.00
N43    N     0.23620   0.20790   0.68520   0.01267  Uiso   1.00
N44    N     0.20060   0.21770   0.59540   0.01267  Uiso   1.00
N45    N     0.15410   0.28210   0.63320   0.01267  Uiso   1.00
N46    N     0.66190   0.88730   0.18200   0.01267  Uiso   1.00
N47    N     0.65940   0.96640   0.11790   0.01267  Uiso   1.00
N48    N     0.56850   0.92520   0.11710   0.01267  Uiso   1.00
N49    N     0.09380   0.90540   0.95960   0.01267  Uiso   1.00
N50    N     0.18180   0.78810   0.93400   0.01267  Uiso   1.00
N51    N     0.22340   0.84610   0.90970   0.01267  Uiso   1.00
N52    N     0.88420   0.94610   0.94520   0.01267  Uiso   1.00
N53    N     0.74890   0.93280   0.88800   0.01267  Uiso   1.00
N54    N     0.76270   0.86420   0.90780   0.01267  Uiso   1.00
N55    N     0.26610   0.55000   0.20780   0.01267  Uiso   1.00
N56    N     0.28100   0.41630   0.16110   0.01267  Uiso   1.00
N57    N     0.37310   0.45440   0.16780   0.01267  Uiso   1.00
N58    N     0.32440   0.27580   0.80230   0.01267  Uiso   1.00
N59    N     0.35000   0.37790   0.88120   0.01267  Uiso   1.00
N60    N     0.40550   0.39640   0.83600   0.01267  Uiso   1.00
N61    N     0.73620   0.29210   0.81480   0.01267  Uiso   1.00
N62    N     0.70060   0.28230   0.90460   0.01267  Uiso   1.00
N63    N     0.65410   0.21790   0.86680   0.01267  Uiso   1.00
N64    N     0.16190   0.61270   0.31800   0.01267  Uiso   1.00
N65    N     0.15940   0.53360   0.38210   0.01267  Uiso   1.00
N66    N     0.06850   0.57480   0.38290   0.01267  Uiso   1.00
N67    N     0.59380   0.59460   0.54040   0.01267  Uiso   1.00
N68    N     0.68180   0.71190   0.56600   0.01267  Uiso   1.00
N69    N     0.72340   0.65390   0.59030   0.01267  Uiso   1.00
N70    N     0.38420   0.55390   0.55480   0.01267  Uiso   1.00
N71    N     0.24890   0.56720   0.61200   0.01267  Uiso   1.00
N72    N     0.26270   0.63580   0.59220   0.01267  Uiso   1.00
