data_image0
_cell_length_a       8.619
_cell_length_b       17.959
_cell_length_c       8.135
_cell_angle_alpha    90
_cell_angle_beta     110.828
_cell_angle_gamma    90

_symmetry_space_group_name_H-M    "P 1"
_symmetry_int_tables_number       1

loop_
  _symmetry_equiv_pos_as_xyz
  'x, y, z'

loop_
  _atom_site_label
  _atom_site_occupancy
  _atom_site_fract_x
  _atom_site_fract_y
  _atom_site_fract_z
  _atom_site_thermal_displace_type
  _atom_site_B_iso_or_equiv
  _atom_site_type_symbol
  Pr1      1.0000 0.21346  0.52231  0.74888  Biso   1.000  Pr
  S1       1.0000 0.80418  0.76485  0.62510  Biso   1.000  S
  O1       1.0000 0.88550  0.56130  0.50490  Biso   1.000  O
  O2       1.0000 0.02370  0.62880  0.73860  Biso   1.000  O
  O3       1.0000 0.39890  0.88180  0.40620  Biso   1.000  O
  O4       1.0000 0.64750  0.91710  0.58910  Biso   1.000  O
  O5       1.0000 0.20070  0.53520  0.05400  Biso   1.000  O
  O6       1.0000 0.02770  0.54010  0.20370  Biso   1.000  O
  O7       1.0000 0.48960  0.50700  0.68640  Biso   1.000  O
  H1       1.0000 0.58230  0.49940  0.76840  Biso   1.000  H
  H2       1.0000 0.47320  0.55370  0.67780  Biso   1.000  H
  C1       1.0000 0.76710  0.67510  0.54480  Biso   1.000  C
  C2       1.0000 0.60800  0.66780  0.42660  Biso   1.000  C
  H3       1.0000 0.56530  0.62340  0.36950  Biso   1.000  H
  C3       1.0000 0.51610  0.73410  0.40090  Biso   1.000  C
  H4       1.0000 0.40590  0.73820  0.32670  Biso   1.000  H
  C4       1.0000 0.60640  0.79180  0.49660  Biso   1.000  C
  C5       1.0000 0.89810  0.61850  0.59860  Biso   1.000  C
  C6       1.0000 0.54710  0.86930  0.49670  Biso   1.000  C
  C7       1.0000 0.06600  0.52150  0.07480  Biso   1.000  C
  Pr2      1.0000 0.78654  0.02231  0.75112  Biso   1.000  Pr
  S2       1.0000 0.19582  0.26485  0.87490  Biso   1.000  S
  O8       1.0000 0.11450  0.06130  0.99510  Biso   1.000  O
  O9       1.0000 0.97630  0.12880  0.76140  Biso   1.000  O
  O10      1.0000 0.60110  0.38180  0.09380  Biso   1.000  O
  O11      1.0000 0.35250  0.41710  0.91090  Biso   1.000  O
  O12      1.0000 0.79930  0.03520  0.44600  Biso   1.000  O
  O13      1.0000 0.97230  0.04010  0.29630  Biso   1.000  O
  O14      1.0000 0.51040  0.00700  0.81360  Biso   1.000  O
  H5       1.0000 0.41770  0.99940  0.73160  Biso   1.000  H
  H6       1.0000 0.52680  0.05370  0.82220  Biso   1.000  H
  C8       1.0000 0.23290  0.17510  0.95520  Biso   1.000  C
  C9       1.0000 0.39200  0.16780  0.07340  Biso   1.000  C
  H7       1.0000 0.43470  0.12340  0.13050  Biso   1.000  H
  C10      1.0000 0.48390  0.23410  0.09910  Biso   1.000  C
  H8       1.0000 0.59410  0.23820  0.17330  Biso   1.000  H
  C11      1.0000 0.39360  0.29180  0.00340  Biso   1.000  C
  C12      1.0000 0.10190  0.11850  0.90140  Biso   1.000  C
  C13      1.0000 0.45290  0.36930  0.00330  Biso   1.000  C
  C14      1.0000 0.93400  0.02150  0.42520  Biso   1.000  C
  Pr3      1.0000 0.78654  0.47769  0.25112  Biso   1.000  Pr
  S3       1.0000 0.19582  0.23515  0.37490  Biso   1.000  S
  O15      1.0000 0.11450  0.43870  0.49510  Biso   1.000  O
  O16      1.0000 0.97630  0.37120  0.26140  Biso   1.000  O
  O17      1.0000 0.60110  0.11820  0.59380  Biso   1.000  O
  O18      1.0000 0.35250  0.08290  0.41090  Biso   1.000  O
  O19      1.0000 0.79930  0.46480  0.94600  Biso   1.000  O
  O20      1.0000 0.97230  0.45990  0.79630  Biso   1.000  O
  O21      1.0000 0.51040  0.49300  0.31360  Biso   1.000  O
  H9       1.0000 0.41770  0.50060  0.23160  Biso   1.000  H
  H10      1.0000 0.52680  0.44630  0.32220  Biso   1.000  H
  C15      1.0000 0.23290  0.32490  0.45520  Biso   1.000  C
  C16      1.0000 0.39200  0.33220  0.57340  Biso   1.000  C
  H11      1.0000 0.43470  0.37660  0.63050  Biso   1.000  H
  C17      1.0000 0.48390  0.26590  0.59910  Biso   1.000  C
  H12      1.0000 0.59410  0.26180  0.67330  Biso   1.000  H
  C18      1.0000 0.39360  0.20820  0.50340  Biso   1.000  C
  C19      1.0000 0.10190  0.38150  0.40140  Biso   1.000  C
  C20      1.0000 0.45290  0.13070  0.50330  Biso   1.000  C
  C21      1.0000 0.93400  0.47850  0.92520  Biso   1.000  C
  Pr4      1.0000 0.21346  0.97769  0.24888  Biso   1.000  Pr
  S4       1.0000 0.80418  0.73515  0.12510  Biso   1.000  S
  O22      1.0000 0.88550  0.93870  0.00490  Biso   1.000  O
  O23      1.0000 0.02370  0.87120  0.23860  Biso   1.000  O
  O24      1.0000 0.39890  0.61820  0.90620  Biso   1.000  O
  O25      1.0000 0.64750  0.58290  0.08910  Biso   1.000  O
  O26      1.0000 0.20070  0.96480  0.55400  Biso   1.000  O
  O27      1.0000 0.02770  0.95990  0.70370  Biso   1.000  O
  O28      1.0000 0.48960  0.99300  0.18640  Biso   1.000  O
  H13      1.0000 0.58230  0.00060  0.26840  Biso   1.000  H
  H14      1.0000 0.47320  0.94630  0.17780  Biso   1.000  H
  C22      1.0000 0.76710  0.82490  0.04480  Biso   1.000  C
  C23      1.0000 0.60800  0.83220  0.92660  Biso   1.000  C
  H15      1.0000 0.56530  0.87660  0.86950  Biso   1.000  H
  C24      1.0000 0.51610  0.76590  0.90090  Biso   1.000  C
  H16      1.0000 0.40590  0.76180  0.82670  Biso   1.000  H
  C25      1.0000 0.60640  0.70820  0.99660  Biso   1.000  C
  C26      1.0000 0.89810  0.88150  0.09860  Biso   1.000  C
  C27      1.0000 0.54710  0.63070  0.99670  Biso   1.000  C
  C28      1.0000 0.06600  0.97850  0.57480  Biso   1.000  C
