data_AVUPIR_clean_h
_audit_creation_date              2015-05-15
_audit_creation_method            'Materials Studio'
_symmetry_space_group_name_H-M    'P1'
_symmetry_Int_Tables_number       1
_symmetry_cell_setting            triclinic
loop_
_symmetry_equiv_pos_as_xyz
  x,y,z
_cell_length_a                    11.9464
_cell_length_b                    11.9464
_cell_length_c                    11.9464
_cell_angle_alpha                 113.1402
_cell_angle_beta                  113.1402
_cell_angle_gamma                 113.1402
loop_
_atom_site_label
_atom_site_type_symbol
_atom_site_fract_x
_atom_site_fract_y
_atom_site_fract_z
_atom_site_U_iso_or_equiv
_atom_site_adp_type
_atom_site_occupancy
P1     P     0.22580   0.13470   0.38290   0.01267  Uiso   1.00
C2     C     0.26790   0.00180   0.31350   0.01267  Uiso   1.00
C3     C     0.31670   0.83080   0.34240   0.01267  Uiso   1.00
C4     C     0.53020   0.14410   0.57310   0.01267  Uiso   1.00
N5     N     0.37920   0.99920   0.41810   0.01267  Uiso   1.00
O6     O     0.36510   0.30340   0.45530   0.01267  Uiso   1.00
O7     O     0.19510   0.12850   0.49900   0.01267  Uiso   1.00
O8     O     0.08680   0.07050   0.21320   0.01267  Uiso   1.00
H9     H     0.31192   0.02562   0.25006   0.01267  Uiso   1.00
H10    H     0.23917   0.77226   0.36697   0.01267  Uiso   1.00
H11    H     0.55651   0.23910   0.56075   0.01267  Uiso   1.00
H12    H     0.75121   0.24580   0.79144   0.01267  Uiso   1.00
H13    H     0.50003   0.83214   0.34550   0.01267  Uiso   1.00
H14    H     0.84924   0.12661   0.77958   0.00000  Uiso   1.00
H15    H     0.87150   0.40997   0.76913   0.01267  Uiso   1.00
P16    P     0.38290   0.22580   0.13470   0.01267  Uiso   1.00
C17    C     0.31350   0.26790   0.00180   0.01267  Uiso   1.00
C18    C     0.34240   0.31670   0.83080   0.01267  Uiso   1.00
C19    C     0.57310   0.53020   0.14410   0.01267  Uiso   1.00
N20    N     0.41810   0.37920   0.99920   0.01267  Uiso   1.00
O21    O     0.45530   0.36510   0.30340   0.01267  Uiso   1.00
O22    O     0.49900   0.19510   0.12850   0.01267  Uiso   1.00
O23    O     0.21320   0.08680   0.07050   0.01267  Uiso   1.00
H24    H     0.25006   0.31192   0.02562   0.01267  Uiso   1.00
H25    H     0.36697   0.23917   0.77226   0.01267  Uiso   1.00
H26    H     0.56075   0.55651   0.23910   0.01267  Uiso   1.00
H27    H     0.79144   0.75121   0.24580   0.01267  Uiso   1.00
H28    H     0.34550   0.50003   0.83214   0.01267  Uiso   1.00
H29    H     0.77958   0.84924   0.12661   0.00000  Uiso   1.00
P30    P     0.13470   0.38290   0.22580   0.01267  Uiso   1.00
C31    C     0.00180   0.31350   0.26790   0.01267  Uiso   1.00
C32    C     0.83080   0.34240   0.31670   0.01267  Uiso   1.00
C33    C     0.14410   0.57310   0.53020   0.01267  Uiso   1.00
N34    N     0.99920   0.41810   0.37920   0.01267  Uiso   1.00
O35    O     0.30340   0.45530   0.36510   0.01267  Uiso   1.00
O36    O     0.12850   0.49900   0.19510   0.01267  Uiso   1.00
O37    O     0.07050   0.21320   0.08680   0.01267  Uiso   1.00
H38    H     0.02562   0.25006   0.31192   0.01267  Uiso   1.00
H39    H     0.77226   0.36697   0.23917   0.01267  Uiso   1.00
H40    H     0.23910   0.56075   0.55651   0.01267  Uiso   1.00
H41    H     0.24580   0.79144   0.75121   0.01267  Uiso   1.00
H42    H     0.83214   0.34550   0.50003   0.01267  Uiso   1.00
H43    H     0.12661   0.77958   0.84924   0.00000  Uiso   1.00
H44    H     0.40997   0.76913   0.87150   0.01267  Uiso   1.00
P45    P     0.77420   0.86530   0.61710   0.01267  Uiso   1.00
C46    C     0.73210   0.99820   0.68650   0.01267  Uiso   1.00
C47    C     0.68330   0.16920   0.65760   0.01267  Uiso   1.00
C48    C     0.46980   0.85590   0.42690   0.01267  Uiso   1.00
N49    N     0.62080   0.00080   0.58190   0.01267  Uiso   1.00
O50    O     0.63490   0.69660   0.54470   0.01267  Uiso   1.00
O51    O     0.80490   0.87150   0.50100   0.01267  Uiso   1.00
O52    O     0.91320   0.92950   0.78680   0.01267  Uiso   1.00
H53    H     0.68808   0.97438   0.74994   0.01267  Uiso   1.00
H54    H     0.76083   0.22774   0.63303   0.01267  Uiso   1.00
H55    H     0.44349   0.76090   0.43925   0.01267  Uiso   1.00
H56    H     0.24879   0.75420   0.20856   0.01267  Uiso   1.00
H57    H     0.49997   0.16786   0.65450   0.01267  Uiso   1.00
H58    H     0.15076   0.87339   0.22042   0.00000  Uiso   1.00
H59    H     0.12850   0.59003   0.23087   0.01267  Uiso   1.00
P60    P     0.61710   0.77420   0.86530   0.01267  Uiso   1.00
C61    C     0.68650   0.73210   0.99820   0.01267  Uiso   1.00
C62    C     0.65760   0.68330   0.16920   0.01267  Uiso   1.00
C63    C     0.42690   0.46980   0.85590   0.01267  Uiso   1.00
N64    N     0.58190   0.62080   0.00080   0.01267  Uiso   1.00
O65    O     0.54470   0.63490   0.69660   0.01267  Uiso   1.00
O66    O     0.50100   0.80490   0.87150   0.01267  Uiso   1.00
O67    O     0.78680   0.91320   0.92950   0.01267  Uiso   1.00
H68    H     0.74994   0.68808   0.97438   0.01267  Uiso   1.00
H69    H     0.63303   0.76083   0.22774   0.01267  Uiso   1.00
H70    H     0.43925   0.44349   0.76090   0.01267  Uiso   1.00
H71    H     0.20856   0.24879   0.75420   0.01267  Uiso   1.00
H72    H     0.65450   0.49997   0.16786   0.01267  Uiso   1.00
H73    H     0.22042   0.15076   0.87339   0.00000  Uiso   1.00
P74    P     0.86530   0.61710   0.77420   0.01267  Uiso   1.00
C75    C     0.99820   0.68650   0.73210   0.01267  Uiso   1.00
C76    C     0.16920   0.65760   0.68330   0.01267  Uiso   1.00
C77    C     0.85590   0.42690   0.46980   0.01267  Uiso   1.00
N78    N     0.00080   0.58190   0.62080   0.01267  Uiso   1.00
O79    O     0.69660   0.54470   0.63490   0.01267  Uiso   1.00
O80    O     0.87150   0.50100   0.80490   0.01267  Uiso   1.00
O81    O     0.92950   0.78680   0.91320   0.01267  Uiso   1.00
H82    H     0.97438   0.74994   0.68808   0.01267  Uiso   1.00
H83    H     0.22774   0.63303   0.76083   0.01267  Uiso   1.00
H84    H     0.76090   0.43925   0.44349   0.01267  Uiso   1.00
H85    H     0.75420   0.20856   0.24879   0.01267  Uiso   1.00
H86    H     0.16786   0.65450   0.49997   0.01267  Uiso   1.00
H87    H     0.87339   0.22042   0.15076   0.00000  Uiso   1.00
H88    H     0.59003   0.23087   0.12850   0.01267  Uiso   1.00
Zr89   Zr    0.00000  -0.00000  -0.00000   0.01267  Uiso   1.00
Zr90   Zr    0.50000   0.50000   0.50000   0.01267  Uiso   1.00
