data_image0
_cell_length_a       22.466
_cell_length_b       22.466
_cell_length_c       13.387
_cell_angle_alpha    90
_cell_angle_beta     90
_cell_angle_gamma    90

_symmetry_space_group_name_H-M    "P 1"
_symmetry_int_tables_number       1

loop_
  _symmetry_equiv_pos_as_xyz
  'x, y, z'

loop_
  _atom_site_label
  _atom_site_occupancy
  _atom_site_fract_x
  _atom_site_fract_y
  _atom_site_fract_z
  _atom_site_thermal_displace_type
  _atom_site_B_iso_or_equiv
  _atom_site_type_symbol
  Ni1      1.0000 0.18273  0.06580  0.72406  Biso   1.000  Ni
  C1       1.0000 0.08444  0.36697  0.26580  Biso   1.000  C
  C2       1.0000 0.09641  0.42715  0.26280  Biso   1.000  C
  H1       1.0000 0.07540  0.45140  0.21900  Biso   1.000  H
  C3       1.0000 0.13938  0.45192  0.32450  Biso   1.000  C
  H2       1.0000 0.14690  0.49260  0.32270  Biso   1.000  H
  C4       1.0000 0.17094  0.41535  0.38890  Biso   1.000  C
  C5       1.0000 0.16136  0.35497  0.38830  Biso   1.000  C
  H3       1.0000 0.18430  0.33030  0.42870  Biso   1.000  H
  C6       1.0000 0.11823  0.33108  0.32840  Biso   1.000  C
  H4       1.0000 0.11140  0.29030  0.32950  Biso   1.000  H
  C7       1.0000 0.23118  0.41719  0.54390  Biso   1.000  C
  H5       1.0000 0.21700  0.38130  0.56910  Biso   1.000  H
  C8       1.0000 0.27890  0.49827  0.52770  Biso   1.000  C
  H6       1.0000 0.30440  0.52990  0.54060  Biso   1.000  H
  C9       1.0000 0.24420  0.49292  0.44550  Biso   1.000  C
  H7       1.0000 0.24200  0.51940  0.39220  Biso   1.000  H
  C10      1.0000 0.95866  0.39980  0.27660  Biso   1.000  C
  H8       1.0000 0.97900  0.40090  0.33710  Biso   1.000  H
  C11      1.0000 0.90368  0.42700  0.26810  Biso   1.000  C
  H9       1.0000 0.88740  0.44650  0.32290  Biso   1.000  H
  C12      1.0000 0.87285  0.42556  0.17920  Biso   1.000  C
  C13      1.0000 0.89714  0.39670  0.09700  Biso   1.000  C
  H10      1.0000 0.87630  0.39470  0.03710  Biso   1.000  H
  C14      1.0000 0.95290  0.37091  0.10570  Biso   1.000  C
  H11      1.0000 0.97020  0.35310  0.05010  Biso   1.000  H
  C15      1.0000 0.98337  0.37113  0.19580  Biso   1.000  C
  C16      1.0000 0.76654  0.42713  0.12540  Biso   1.000  C
  H12      1.0000 0.76560  0.39230  0.08780  Biso   1.000  H
  C17      1.0000 0.72092  0.46353  0.14460  Biso   1.000  C
  H13      1.0000 0.68200  0.45750  0.12320  Biso   1.000  H
  C18      1.0000 0.79647  0.50215  0.21590  Biso   1.000  C
  H14      1.0000 0.82100  0.52750  0.25240  Biso   1.000  H
  C19      1.0000 0.00824  0.24665  0.13370  Biso   1.000  C
  H15      1.0000 0.97090  0.25110  0.16280  Biso   1.000  H
  C20      1.0000 0.02000  0.19652  0.07540  Biso   1.000  C
  H16      1.0000 0.99080  0.16780  0.06540  Biso   1.000  H
  C21      1.0000 0.07554  0.19002  0.03280  Biso   1.000  C
  C22      1.0000 0.11893  0.23155  0.05010  Biso   1.000  C
  H17      1.0000 0.15690  0.22600  0.02390  Biso   1.000  H
  C23      1.0000 0.10676  0.28179  0.10650  Biso   1.000  C
  H18      1.0000 0.13600  0.31050  0.11600  Biso   1.000  H
  C24      1.0000 0.05072  0.28935  0.14890  Biso   1.000  C
  C25      1.0000 0.13007  0.13833  0.89780  Biso   1.000  C
  H19      1.0000 0.15540  0.16990  0.88340  Biso   1.000  H
  C26      1.0000 0.06010  0.08611  0.96810  Biso   1.000  C
  H20      1.0000 0.02890  0.07380  0.00880  Biso   1.000  H
  C27      1.0000 0.08711  0.05384  0.89400  Biso   1.000  C
  H21      1.0000 0.07720  0.01510  0.87610  Biso   1.000  H
  C28      1.0000 0.09312  0.03983  0.63070  Biso   1.000  C
  C29      1.0000 0.04476  0.01926  0.56450  Biso   1.000  C
  C30      1.0000 0.03716  0.95874  0.54570  Biso   1.000  C
  H22      1.0000 0.06200  0.93100  0.57610  Biso   1.000  H
  C31      1.0000 0.00752  0.06013  0.51840  Biso   1.000  C
  H23      1.0000 0.01260  0.10060  0.53060  Biso   1.000  H
  N1       1.0000 0.03897  0.34148  0.20500  Biso   1.000  N
  N2       1.0000 0.21306  0.44093  0.45640  Biso   1.000  N
  N3       1.0000 0.27074  0.44992  0.58940  Biso   1.000  N
  N4       1.0000 0.81498  0.45138  0.17200  Biso   1.000  N
  N5       1.0000 0.73985  0.51126  0.20080  Biso   1.000  N
  N6       1.0000 0.08812  0.13977  0.96998  Biso   1.000  N
  N7       1.0000 0.13087  0.08722  0.85030  Biso   1.000  N
  O1       1.0000 0.10732  0.09384  0.63410  Biso   1.000  O
  O2       1.0000 0.12131  0.00158  0.68279  Biso   1.000  O
  Ni2      1.0000 0.31727  0.43420  0.72406  Biso   1.000  Ni
  C32      1.0000 0.41556  0.13303  0.26580  Biso   1.000  C
  C33      1.0000 0.40359  0.07285  0.26280  Biso   1.000  C
  H24      1.0000 0.42460  0.04860  0.21900  Biso   1.000  H
  C34      1.0000 0.36062  0.04808  0.32450  Biso   1.000  C
  H25      1.0000 0.35310  0.00740  0.32270  Biso   1.000  H
  C35      1.0000 0.32906  0.08465  0.38890  Biso   1.000  C
  C36      1.0000 0.33864  0.14503  0.38830  Biso   1.000  C
  H26      1.0000 0.31570  0.16970  0.42870  Biso   1.000  H
  C37      1.0000 0.38177  0.16892  0.32840  Biso   1.000  C
  H27      1.0000 0.38860  0.20970  0.32950  Biso   1.000  H
  C38      1.0000 0.26882  0.08281  0.54390  Biso   1.000  C
  H28      1.0000 0.28300  0.11870  0.56910  Biso   1.000  H
  C39      1.0000 0.22110  0.00173  0.52770  Biso   1.000  C
  H29      1.0000 0.19560  0.97010  0.54060  Biso   1.000  H
  C40      1.0000 0.25580  0.00708  0.44550  Biso   1.000  C
  H30      1.0000 0.25800  0.98060  0.39220  Biso   1.000  H
  C41      1.0000 0.54134  0.10020  0.27660  Biso   1.000  C
  H31      1.0000 0.52100  0.09910  0.33710  Biso   1.000  H
  C42      1.0000 0.59632  0.07300  0.26810  Biso   1.000  C
  H32      1.0000 0.61260  0.05350  0.32290  Biso   1.000  H
  C43      1.0000 0.62715  0.07444  0.17920  Biso   1.000  C
  C44      1.0000 0.60286  0.10330  0.09700  Biso   1.000  C
  H33      1.0000 0.62370  0.10530  0.03710  Biso   1.000  H
  C45      1.0000 0.54710  0.12909  0.10570  Biso   1.000  C
  H34      1.0000 0.52980  0.14690  0.05010  Biso   1.000  H
  C46      1.0000 0.51663  0.12887  0.19580  Biso   1.000  C
  C47      1.0000 0.73346  0.07287  0.12540  Biso   1.000  C
  H35      1.0000 0.73440  0.10770  0.08780  Biso   1.000  H
  C48      1.0000 0.77908  0.03647  0.14460  Biso   1.000  C
  H36      1.0000 0.81800  0.04250  0.12320  Biso   1.000  H
  C49      1.0000 0.70353  0.99785  0.21590  Biso   1.000  C
  H37      1.0000 0.67900  0.97250  0.25240  Biso   1.000  H
  C50      1.0000 0.49176  0.25335  0.13370  Biso   1.000  C
  H38      1.0000 0.52910  0.24890  0.16280  Biso   1.000  H
  C51      1.0000 0.48000  0.30348  0.07540  Biso   1.000  C
  H39      1.0000 0.50920  0.33220  0.06540  Biso   1.000  H
  C52      1.0000 0.42446  0.30998  0.03280  Biso   1.000  C
  C53      1.0000 0.38107  0.26845  0.05010  Biso   1.000  C
  H40      1.0000 0.34310  0.27400  0.02390  Biso   1.000  H
  C54      1.0000 0.39324  0.21821  0.10650  Biso   1.000  C
  H41      1.0000 0.36400  0.18950  0.11600  Biso   1.000  H
  C55      1.0000 0.44928  0.21065  0.14890  Biso   1.000  C
  C56      1.0000 0.36993  0.36167  0.89780  Biso   1.000  C
  H42      1.0000 0.34460  0.33010  0.88340  Biso   1.000  H
  C57      1.0000 0.43990  0.41389  0.96810  Biso   1.000  C
  H43      1.0000 0.47110  0.42620  0.00880  Biso   1.000  H
  C58      1.0000 0.41289  0.44616  0.89400  Biso   1.000  C
  H44      1.0000 0.42280  0.48490  0.87610  Biso   1.000  H
  C59      1.0000 0.40688  0.46017  0.63070  Biso   1.000  C
  C60      1.0000 0.45524  0.48074  0.56450  Biso   1.000  C
  C61      1.0000 0.46284  0.54126  0.54570  Biso   1.000  C
  H45      1.0000 0.43800  0.56900  0.57610  Biso   1.000  H
  C62      1.0000 0.49248  0.43987  0.51840  Biso   1.000  C
  H46      1.0000 0.48740  0.39940  0.53060  Biso   1.000  H
  N8       1.0000 0.46103  0.15852  0.20500  Biso   1.000  N
  N9       1.0000 0.28694  0.05907  0.45640  Biso   1.000  N
  N10      1.0000 0.22926  0.05008  0.58940  Biso   1.000  N
  N11      1.0000 0.68502  0.04862  0.17200  Biso   1.000  N
  N12      1.0000 0.76015  0.98874  0.20080  Biso   1.000  N
  N13      1.0000 0.41188  0.36023  0.96998  Biso   1.000  N
  N14      1.0000 0.36913  0.41278  0.85030  Biso   1.000  N
  O3       1.0000 0.39268  0.40616  0.63410  Biso   1.000  O
  O4       1.0000 0.37869  0.49842  0.68279  Biso   1.000  O
  Ni3      1.0000 0.81727  0.93420  0.27594  Biso   1.000  Ni
  C63      1.0000 0.91556  0.63303  0.73420  Biso   1.000  C
  C64      1.0000 0.90359  0.57285  0.73720  Biso   1.000  C
  H47      1.0000 0.92460  0.54860  0.78100  Biso   1.000  H
  C65      1.0000 0.86062  0.54808  0.67550  Biso   1.000  C
  H48      1.0000 0.85310  0.50740  0.67730  Biso   1.000  H
  C66      1.0000 0.82906  0.58465  0.61110  Biso   1.000  C
  C67      1.0000 0.83864  0.64503  0.61170  Biso   1.000  C
  H49      1.0000 0.81570  0.66970  0.57130  Biso   1.000  H
  C68      1.0000 0.88177  0.66892  0.67160  Biso   1.000  C
  H50      1.0000 0.88860  0.70970  0.67050  Biso   1.000  H
  C69      1.0000 0.76882  0.58281  0.45610  Biso   1.000  C
  H51      1.0000 0.78300  0.61870  0.43090  Biso   1.000  H
  C70      1.0000 0.72110  0.50173  0.47230  Biso   1.000  C
  H52      1.0000 0.69560  0.47010  0.45940  Biso   1.000  H
  C71      1.0000 0.75580  0.50708  0.55450  Biso   1.000  C
  H53      1.0000 0.75800  0.48060  0.60780  Biso   1.000  H
  C72      1.0000 0.04134  0.60020  0.72340  Biso   1.000  C
  H54      1.0000 0.02100  0.59910  0.66290  Biso   1.000  H
  C73      1.0000 0.09632  0.57300  0.73190  Biso   1.000  C
  H55      1.0000 0.11260  0.55350  0.67710  Biso   1.000  H
  C74      1.0000 0.12715  0.57444  0.82080  Biso   1.000  C
  C75      1.0000 0.10286  0.60330  0.90300  Biso   1.000  C
  H56      1.0000 0.12370  0.60530  0.96290  Biso   1.000  H
  C76      1.0000 0.04710  0.62909  0.89430  Biso   1.000  C
  H57      1.0000 0.02980  0.64690  0.94990  Biso   1.000  H
  C77      1.0000 0.01663  0.62887  0.80420  Biso   1.000  C
  C78      1.0000 0.23346  0.57287  0.87460  Biso   1.000  C
  H58      1.0000 0.23440  0.60770  0.91220  Biso   1.000  H
  C79      1.0000 0.27908  0.53647  0.85540  Biso   1.000  C
  H59      1.0000 0.31800  0.54250  0.87680  Biso   1.000  H
  C80      1.0000 0.20353  0.49785  0.78410  Biso   1.000  C
  H60      1.0000 0.17900  0.47250  0.74760  Biso   1.000  H
  C81      1.0000 0.99176  0.75335  0.86630  Biso   1.000  C
  H61      1.0000 0.02910  0.74890  0.83720  Biso   1.000  H
  C82      1.0000 0.98000  0.80348  0.92460  Biso   1.000  C
  H62      1.0000 0.00920  0.83220  0.93460  Biso   1.000  H
  C83      1.0000 0.92446  0.80998  0.96720  Biso   1.000  C
  C84      1.0000 0.88107  0.76845  0.94990  Biso   1.000  C
  H63      1.0000 0.84310  0.77400  0.97610  Biso   1.000  H
  C85      1.0000 0.89324  0.71821  0.89350  Biso   1.000  C
  H64      1.0000 0.86400  0.68950  0.88400  Biso   1.000  H
  C86      1.0000 0.94928  0.71065  0.85110  Biso   1.000  C
  C87      1.0000 0.86993  0.86167  0.10220  Biso   1.000  C
  H65      1.0000 0.84460  0.83010  0.11660  Biso   1.000  H
  C88      1.0000 0.93990  0.91389  0.03190  Biso   1.000  C
  H66      1.0000 0.97110  0.92620  0.99120  Biso   1.000  H
  C89      1.0000 0.91289  0.94616  0.10600  Biso   1.000  C
  H67      1.0000 0.92280  0.98490  0.12390  Biso   1.000  H
  C90      1.0000 0.90688  0.96017  0.36930  Biso   1.000  C
  C91      1.0000 0.95524  0.98074  0.43550  Biso   1.000  C
  C92      1.0000 0.96284  0.04126  0.45430  Biso   1.000  C
  H68      1.0000 0.93800  0.06900  0.42390  Biso   1.000  H
  C93      1.0000 0.99248  0.93987  0.48160  Biso   1.000  C
  H69      1.0000 0.98740  0.89940  0.46940  Biso   1.000  H
  N15      1.0000 0.96103  0.65852  0.79500  Biso   1.000  N
  N16      1.0000 0.78694  0.55907  0.54360  Biso   1.000  N
  N17      1.0000 0.72926  0.55008  0.41060  Biso   1.000  N
  N18      1.0000 0.18502  0.54862  0.82800  Biso   1.000  N
  N19      1.0000 0.26015  0.48874  0.79920  Biso   1.000  N
  N20      1.0000 0.91188  0.86023  0.03002  Biso   1.000  N
  N21      1.0000 0.86913  0.91278  0.14970  Biso   1.000  N
  O5       1.0000 0.89268  0.90616  0.36590  Biso   1.000  O
  O6       1.0000 0.87869  0.99842  0.31721  Biso   1.000  O
  Ni4      1.0000 0.68273  0.56580  0.27594  Biso   1.000  Ni
  C94      1.0000 0.58444  0.86697  0.73420  Biso   1.000  C
  C95      1.0000 0.59641  0.92715  0.73720  Biso   1.000  C
  H70      1.0000 0.57540  0.95140  0.78100  Biso   1.000  H
  C96      1.0000 0.63938  0.95192  0.67550  Biso   1.000  C
  H71      1.0000 0.64690  0.99260  0.67730  Biso   1.000  H
  C97      1.0000 0.67094  0.91535  0.61110  Biso   1.000  C
  C98      1.0000 0.66136  0.85497  0.61170  Biso   1.000  C
  H72      1.0000 0.68430  0.83030  0.57130  Biso   1.000  H
  C99      1.0000 0.61823  0.83108  0.67160  Biso   1.000  C
  H73      1.0000 0.61140  0.79030  0.67050  Biso   1.000  H
  C100     1.0000 0.73118  0.91719  0.45610  Biso   1.000  C
  H74      1.0000 0.71700  0.88130  0.43090  Biso   1.000  H
  C101     1.0000 0.77890  0.99827  0.47230  Biso   1.000  C
  H75      1.0000 0.80440  0.02990  0.45940  Biso   1.000  H
  C102     1.0000 0.74420  0.99292  0.55450  Biso   1.000  C
  H76      1.0000 0.74200  0.01940  0.60780  Biso   1.000  H
  C103     1.0000 0.45866  0.89980  0.72340  Biso   1.000  C
  H77      1.0000 0.47900  0.90090  0.66290  Biso   1.000  H
  C104     1.0000 0.40368  0.92700  0.73190  Biso   1.000  C
  H78      1.0000 0.38740  0.94650  0.67710  Biso   1.000  H
  C105     1.0000 0.37285  0.92556  0.82080  Biso   1.000  C
  C106     1.0000 0.39714  0.89670  0.90300  Biso   1.000  C
  H79      1.0000 0.37630  0.89470  0.96290  Biso   1.000  H
  C107     1.0000 0.45290  0.87091  0.89430  Biso   1.000  C
  H80      1.0000 0.47020  0.85310  0.94990  Biso   1.000  H
  C108     1.0000 0.48337  0.87113  0.80420  Biso   1.000  C
  C109     1.0000 0.26654  0.92713  0.87460  Biso   1.000  C
  H81      1.0000 0.26560  0.89230  0.91220  Biso   1.000  H
  C110     1.0000 0.22092  0.96353  0.85540  Biso   1.000  C
  H82      1.0000 0.18200  0.95750  0.87680  Biso   1.000  H
  C111     1.0000 0.29647  0.00215  0.78410  Biso   1.000  C
  H83      1.0000 0.32100  0.02750  0.74760  Biso   1.000  H
  C112     1.0000 0.50824  0.74665  0.86630  Biso   1.000  C
  H84      1.0000 0.47090  0.75110  0.83720  Biso   1.000  H
  C113     1.0000 0.52000  0.69652  0.92460  Biso   1.000  C
  H85      1.0000 0.49080  0.66780  0.93460  Biso   1.000  H
  C114     1.0000 0.57554  0.69002  0.96720  Biso   1.000  C
  C115     1.0000 0.61893  0.73155  0.94990  Biso   1.000  C
  H86      1.0000 0.65690  0.72600  0.97610  Biso   1.000  H
  C116     1.0000 0.60676  0.78179  0.89350  Biso   1.000  C
  H87      1.0000 0.63600  0.81050  0.88400  Biso   1.000  H
  C117     1.0000 0.55072  0.78935  0.85110  Biso   1.000  C
  C118     1.0000 0.63007  0.63833  0.10220  Biso   1.000  C
  H88      1.0000 0.65540  0.66990  0.11660  Biso   1.000  H
  C119     1.0000 0.56010  0.58611  0.03190  Biso   1.000  C
  H89      1.0000 0.52890  0.57380  0.99120  Biso   1.000  H
  C120     1.0000 0.58711  0.55384  0.10600  Biso   1.000  C
  H90      1.0000 0.57720  0.51510  0.12390  Biso   1.000  H
  C121     1.0000 0.59312  0.53983  0.36930  Biso   1.000  C
  C122     1.0000 0.54476  0.51926  0.43550  Biso   1.000  C
  C123     1.0000 0.53716  0.45874  0.45430  Biso   1.000  C
  H91      1.0000 0.56200  0.43100  0.42390  Biso   1.000  H
  C124     1.0000 0.50752  0.56013  0.48160  Biso   1.000  C
  H92      1.0000 0.51260  0.60060  0.46940  Biso   1.000  H
  N22      1.0000 0.53897  0.84148  0.79500  Biso   1.000  N
  N23      1.0000 0.71306  0.94093  0.54360  Biso   1.000  N
  N24      1.0000 0.77074  0.94992  0.41060  Biso   1.000  N
  N25      1.0000 0.31498  0.95138  0.82800  Biso   1.000  N
  N26      1.0000 0.23985  0.01126  0.79920  Biso   1.000  N
  N27      1.0000 0.58812  0.63977  0.03002  Biso   1.000  N
  N28      1.0000 0.63087  0.58722  0.14970  Biso   1.000  N
  O7       1.0000 0.60732  0.59384  0.36590  Biso   1.000  O
  O8       1.0000 0.62131  0.50158  0.31721  Biso   1.000  O
  Ni5      1.0000 0.43420  0.18273  0.72406  Biso   1.000  Ni
  C125     1.0000 0.13303  0.08444  0.26580  Biso   1.000  C
  C126     1.0000 0.07285  0.09641  0.26280  Biso   1.000  C
  H93      1.0000 0.04860  0.07540  0.21900  Biso   1.000  H
  C127     1.0000 0.04808  0.13938  0.32450  Biso   1.000  C
  H94      1.0000 0.00740  0.14690  0.32270  Biso   1.000  H
  C128     1.0000 0.08465  0.17094  0.38890  Biso   1.000  C
  C129     1.0000 0.14503  0.16136  0.38830  Biso   1.000  C
  H95      1.0000 0.16970  0.18430  0.42870  Biso   1.000  H
  C130     1.0000 0.16892  0.11823  0.32840  Biso   1.000  C
  H96      1.0000 0.20970  0.11140  0.32950  Biso   1.000  H
  C131     1.0000 0.08281  0.23118  0.54390  Biso   1.000  C
  H97      1.0000 0.11870  0.21700  0.56910  Biso   1.000  H
  C132     1.0000 0.00173  0.27890  0.52770  Biso   1.000  C
  H98      1.0000 0.97010  0.30440  0.54060  Biso   1.000  H
  C133     1.0000 0.00708  0.24420  0.44550  Biso   1.000  C
  H99      1.0000 0.98060  0.24200  0.39220  Biso   1.000  H
  C134     1.0000 0.10020  0.95866  0.27660  Biso   1.000  C
  H100     1.0000 0.09910  0.97900  0.33710  Biso   1.000  H
  C135     1.0000 0.07300  0.90368  0.26810  Biso   1.000  C
  H101     1.0000 0.05350  0.88740  0.32290  Biso   1.000  H
  C136     1.0000 0.07444  0.87285  0.17920  Biso   1.000  C
  C137     1.0000 0.10330  0.89714  0.09700  Biso   1.000  C
  H102     1.0000 0.10530  0.87630  0.03710  Biso   1.000  H
  C138     1.0000 0.12909  0.95290  0.10570  Biso   1.000  C
  H103     1.0000 0.14690  0.97020  0.05010  Biso   1.000  H
  C139     1.0000 0.12887  0.98337  0.19580  Biso   1.000  C
  C140     1.0000 0.07287  0.76654  0.12540  Biso   1.000  C
  H104     1.0000 0.10770  0.76560  0.08780  Biso   1.000  H
  C141     1.0000 0.03647  0.72092  0.14460  Biso   1.000  C
  H105     1.0000 0.04250  0.68200  0.12320  Biso   1.000  H
  C142     1.0000 0.99785  0.79647  0.21590  Biso   1.000  C
  H106     1.0000 0.97250  0.82100  0.25240  Biso   1.000  H
  C143     1.0000 0.25335  0.00824  0.13370  Biso   1.000  C
  H107     1.0000 0.24890  0.97090  0.16280  Biso   1.000  H
  C144     1.0000 0.30348  0.02000  0.07540  Biso   1.000  C
  H108     1.0000 0.33220  0.99080  0.06540  Biso   1.000  H
  C145     1.0000 0.30998  0.07554  0.03280  Biso   1.000  C
  C146     1.0000 0.26845  0.11893  0.05010  Biso   1.000  C
  H109     1.0000 0.27400  0.15690  0.02390  Biso   1.000  H
  C147     1.0000 0.21821  0.10676  0.10650  Biso   1.000  C
  H110     1.0000 0.18950  0.13600  0.11600  Biso   1.000  H
  C148     1.0000 0.21065  0.05072  0.14890  Biso   1.000  C
  C149     1.0000 0.36167  0.13007  0.89780  Biso   1.000  C
  H111     1.0000 0.33010  0.15540  0.88340  Biso   1.000  H
  C150     1.0000 0.41389  0.06010  0.96810  Biso   1.000  C
  H112     1.0000 0.42620  0.02890  0.00880  Biso   1.000  H
  C151     1.0000 0.44616  0.08711  0.89400  Biso   1.000  C
  H113     1.0000 0.48490  0.07720  0.87610  Biso   1.000  H
  C152     1.0000 0.46017  0.09312  0.63070  Biso   1.000  C
  C153     1.0000 0.48074  0.04476  0.56450  Biso   1.000  C
  C154     1.0000 0.54126  0.03716  0.54570  Biso   1.000  C
  H114     1.0000 0.56900  0.06200  0.57610  Biso   1.000  H
  C155     1.0000 0.43987  0.00752  0.51840  Biso   1.000  C
  H115     1.0000 0.39940  0.01260  0.53060  Biso   1.000  H
  N29      1.0000 0.15852  0.03897  0.20500  Biso   1.000  N
  N30      1.0000 0.05907  0.21306  0.45640  Biso   1.000  N
  N31      1.0000 0.05008  0.27074  0.58940  Biso   1.000  N
  N32      1.0000 0.04862  0.81498  0.17200  Biso   1.000  N
  N33      1.0000 0.98874  0.73985  0.20080  Biso   1.000  N
  N34      1.0000 0.36023  0.08812  0.96998  Biso   1.000  N
  N35      1.0000 0.41278  0.13087  0.85030  Biso   1.000  N
  O9       1.0000 0.40616  0.10732  0.63410  Biso   1.000  O
  O10      1.0000 0.49842  0.12131  0.68279  Biso   1.000  O
  Ni6      1.0000 0.06580  0.31727  0.72406  Biso   1.000  Ni
  C156     1.0000 0.36697  0.41556  0.26580  Biso   1.000  C
  C157     1.0000 0.42715  0.40359  0.26280  Biso   1.000  C
  H116     1.0000 0.45140  0.42460  0.21900  Biso   1.000  H
  C158     1.0000 0.45192  0.36062  0.32450  Biso   1.000  C
  H117     1.0000 0.49260  0.35310  0.32270  Biso   1.000  H
  C159     1.0000 0.41535  0.32906  0.38890  Biso   1.000  C
  C160     1.0000 0.35497  0.33864  0.38830  Biso   1.000  C
  H118     1.0000 0.33030  0.31570  0.42870  Biso   1.000  H
  C161     1.0000 0.33108  0.38177  0.32840  Biso   1.000  C
  H119     1.0000 0.29030  0.38860  0.32950  Biso   1.000  H
  C162     1.0000 0.41719  0.26882  0.54390  Biso   1.000  C
  H120     1.0000 0.38130  0.28300  0.56910  Biso   1.000  H
  C163     1.0000 0.49827  0.22110  0.52770  Biso   1.000  C
  H121     1.0000 0.52990  0.19560  0.54060  Biso   1.000  H
  C164     1.0000 0.49292  0.25580  0.44550  Biso   1.000  C
  H122     1.0000 0.51940  0.25800  0.39220  Biso   1.000  H
  C165     1.0000 0.39980  0.54134  0.27660  Biso   1.000  C
  H123     1.0000 0.40090  0.52100  0.33710  Biso   1.000  H
  C166     1.0000 0.42700  0.59632  0.26810  Biso   1.000  C
  H124     1.0000 0.44650  0.61260  0.32290  Biso   1.000  H
  C167     1.0000 0.42556  0.62715  0.17920  Biso   1.000  C
  C168     1.0000 0.39670  0.60286  0.09700  Biso   1.000  C
  H125     1.0000 0.39470  0.62370  0.03710  Biso   1.000  H
  C169     1.0000 0.37091  0.54710  0.10570  Biso   1.000  C
  H126     1.0000 0.35310  0.52980  0.05010  Biso   1.000  H
  C170     1.0000 0.37113  0.51663  0.19580  Biso   1.000  C
  C171     1.0000 0.42713  0.73346  0.12540  Biso   1.000  C
  H127     1.0000 0.39230  0.73440  0.08780  Biso   1.000  H
  C172     1.0000 0.46353  0.77908  0.14460  Biso   1.000  C
  H128     1.0000 0.45750  0.81800  0.12320  Biso   1.000  H
  C173     1.0000 0.50215  0.70353  0.21590  Biso   1.000  C
  H129     1.0000 0.52750  0.67900  0.25240  Biso   1.000  H
  C174     1.0000 0.24665  0.49176  0.13370  Biso   1.000  C
  H130     1.0000 0.25110  0.52910  0.16280  Biso   1.000  H
  C175     1.0000 0.19652  0.48000  0.07540  Biso   1.000  C
  H131     1.0000 0.16780  0.50920  0.06540  Biso   1.000  H
  C176     1.0000 0.19002  0.42446  0.03280  Biso   1.000  C
  C177     1.0000 0.23155  0.38107  0.05010  Biso   1.000  C
  H132     1.0000 0.22600  0.34310  0.02390  Biso   1.000  H
  C178     1.0000 0.28179  0.39324  0.10650  Biso   1.000  C
  H133     1.0000 0.31050  0.36400  0.11600  Biso   1.000  H
  C179     1.0000 0.28935  0.44928  0.14890  Biso   1.000  C
  C180     1.0000 0.13833  0.36993  0.89780  Biso   1.000  C
  H134     1.0000 0.16990  0.34460  0.88340  Biso   1.000  H
  C181     1.0000 0.08611  0.43990  0.96810  Biso   1.000  C
  H135     1.0000 0.07380  0.47110  0.00880  Biso   1.000  H
  C182     1.0000 0.05384  0.41289  0.89400  Biso   1.000  C
  H136     1.0000 0.01510  0.42280  0.87610  Biso   1.000  H
  C183     1.0000 0.03983  0.40688  0.63070  Biso   1.000  C
  C184     1.0000 0.01926  0.45524  0.56450  Biso   1.000  C
  C185     1.0000 0.95874  0.46284  0.54570  Biso   1.000  C
  H137     1.0000 0.93100  0.43800  0.57610  Biso   1.000  H
  C186     1.0000 0.06013  0.49248  0.51840  Biso   1.000  C
  H138     1.0000 0.10060  0.48740  0.53060  Biso   1.000  H
  N36      1.0000 0.34148  0.46103  0.20500  Biso   1.000  N
  N37      1.0000 0.44093  0.28694  0.45640  Biso   1.000  N
  N38      1.0000 0.44992  0.22926  0.58940  Biso   1.000  N
  N39      1.0000 0.45138  0.68502  0.17200  Biso   1.000  N
  N40      1.0000 0.51126  0.76015  0.20080  Biso   1.000  N
  N41      1.0000 0.13977  0.41188  0.96998  Biso   1.000  N
  N42      1.0000 0.08722  0.36913  0.85030  Biso   1.000  N
  O11      1.0000 0.09384  0.39268  0.63410  Biso   1.000  O
  O12      1.0000 0.00158  0.37869  0.68279  Biso   1.000  O
  Ni7      1.0000 0.56580  0.81727  0.27594  Biso   1.000  Ni
  C187     1.0000 0.86697  0.91556  0.73420  Biso   1.000  C
  C188     1.0000 0.92715  0.90359  0.73720  Biso   1.000  C
  H139     1.0000 0.95140  0.92460  0.78100  Biso   1.000  H
  C189     1.0000 0.95192  0.86062  0.67550  Biso   1.000  C
  H140     1.0000 0.99260  0.85310  0.67730  Biso   1.000  H
  C190     1.0000 0.91535  0.82906  0.61110  Biso   1.000  C
  C191     1.0000 0.85497  0.83864  0.61170  Biso   1.000  C
  H141     1.0000 0.83030  0.81570  0.57130  Biso   1.000  H
  C192     1.0000 0.83108  0.88177  0.67160  Biso   1.000  C
  H142     1.0000 0.79030  0.88860  0.67050  Biso   1.000  H
  C193     1.0000 0.91719  0.76882  0.45610  Biso   1.000  C
  H143     1.0000 0.88130  0.78300  0.43090  Biso   1.000  H
  C194     1.0000 0.99827  0.72110  0.47230  Biso   1.000  C
  H144     1.0000 0.02990  0.69560  0.45940  Biso   1.000  H
  C195     1.0000 0.99292  0.75580  0.55450  Biso   1.000  C
  H145     1.0000 0.01940  0.75800  0.60780  Biso   1.000  H
  C196     1.0000 0.89980  0.04134  0.72340  Biso   1.000  C
  H146     1.0000 0.90090  0.02100  0.66290  Biso   1.000  H
  C197     1.0000 0.92700  0.09632  0.73190  Biso   1.000  C
  H147     1.0000 0.94650  0.11260  0.67710  Biso   1.000  H
  C198     1.0000 0.92556  0.12715  0.82080  Biso   1.000  C
  C199     1.0000 0.89670  0.10286  0.90300  Biso   1.000  C
  H148     1.0000 0.89470  0.12370  0.96290  Biso   1.000  H
  C200     1.0000 0.87091  0.04710  0.89430  Biso   1.000  C
  H149     1.0000 0.85310  0.02980  0.94990  Biso   1.000  H
  C201     1.0000 0.87113  0.01663  0.80420  Biso   1.000  C
  C202     1.0000 0.92713  0.23346  0.87460  Biso   1.000  C
  H150     1.0000 0.89230  0.23440  0.91220  Biso   1.000  H
  C203     1.0000 0.96353  0.27908  0.85540  Biso   1.000  C
  H151     1.0000 0.95750  0.31800  0.87680  Biso   1.000  H
  C204     1.0000 0.00215  0.20353  0.78410  Biso   1.000  C
  H152     1.0000 0.02750  0.17900  0.74760  Biso   1.000  H
  C205     1.0000 0.74665  0.99176  0.86630  Biso   1.000  C
  H153     1.0000 0.75110  0.02910  0.83720  Biso   1.000  H
  C206     1.0000 0.69652  0.98000  0.92460  Biso   1.000  C
  H154     1.0000 0.66780  0.00920  0.93460  Biso   1.000  H
  C207     1.0000 0.69002  0.92446  0.96720  Biso   1.000  C
  C208     1.0000 0.73155  0.88107  0.94990  Biso   1.000  C
  H155     1.0000 0.72600  0.84310  0.97610  Biso   1.000  H
  C209     1.0000 0.78179  0.89324  0.89350  Biso   1.000  C
  H156     1.0000 0.81050  0.86400  0.88400  Biso   1.000  H
  C210     1.0000 0.78935  0.94928  0.85110  Biso   1.000  C
  C211     1.0000 0.63833  0.86993  0.10220  Biso   1.000  C
  H157     1.0000 0.66990  0.84460  0.11660  Biso   1.000  H
  C212     1.0000 0.58611  0.93990  0.03190  Biso   1.000  C
  H158     1.0000 0.57380  0.97110  0.99120  Biso   1.000  H
  C213     1.0000 0.55384  0.91289  0.10600  Biso   1.000  C
  H159     1.0000 0.51510  0.92280  0.12390  Biso   1.000  H
  C214     1.0000 0.53983  0.90688  0.36930  Biso   1.000  C
  C215     1.0000 0.51926  0.95524  0.43550  Biso   1.000  C
  C216     1.0000 0.45874  0.96284  0.45430  Biso   1.000  C
  H160     1.0000 0.43100  0.93800  0.42390  Biso   1.000  H
  C217     1.0000 0.56013  0.99248  0.48160  Biso   1.000  C
  H161     1.0000 0.60060  0.98740  0.46940  Biso   1.000  H
  N43      1.0000 0.84148  0.96103  0.79500  Biso   1.000  N
  N44      1.0000 0.94093  0.78694  0.54360  Biso   1.000  N
  N45      1.0000 0.94992  0.72926  0.41060  Biso   1.000  N
  N46      1.0000 0.95138  0.18502  0.82800  Biso   1.000  N
  N47      1.0000 0.01126  0.26015  0.79920  Biso   1.000  N
  N48      1.0000 0.63977  0.91188  0.03002  Biso   1.000  N
  N49      1.0000 0.58722  0.86913  0.14970  Biso   1.000  N
  O13      1.0000 0.59384  0.89268  0.36590  Biso   1.000  O
  O14      1.0000 0.50158  0.87869  0.31721  Biso   1.000  O
  Ni8      1.0000 0.93420  0.68273  0.27594  Biso   1.000  Ni
  C218     1.0000 0.63303  0.58444  0.73420  Biso   1.000  C
  C219     1.0000 0.57285  0.59641  0.73720  Biso   1.000  C
  H162     1.0000 0.54860  0.57540  0.78100  Biso   1.000  H
  C220     1.0000 0.54808  0.63938  0.67550  Biso   1.000  C
  H163     1.0000 0.50740  0.64690  0.67730  Biso   1.000  H
  C221     1.0000 0.58465  0.67094  0.61110  Biso   1.000  C
  C222     1.0000 0.64503  0.66136  0.61170  Biso   1.000  C
  H164     1.0000 0.66970  0.68430  0.57130  Biso   1.000  H
  C223     1.0000 0.66892  0.61823  0.67160  Biso   1.000  C
  H165     1.0000 0.70970  0.61140  0.67050  Biso   1.000  H
  C224     1.0000 0.58281  0.73118  0.45610  Biso   1.000  C
  H166     1.0000 0.61870  0.71700  0.43090  Biso   1.000  H
  C225     1.0000 0.50173  0.77890  0.47230  Biso   1.000  C
  H167     1.0000 0.47010  0.80440  0.45940  Biso   1.000  H
  C226     1.0000 0.50708  0.74420  0.55450  Biso   1.000  C
  H168     1.0000 0.48060  0.74200  0.60780  Biso   1.000  H
  C227     1.0000 0.60020  0.45866  0.72340  Biso   1.000  C
  H169     1.0000 0.59910  0.47900  0.66290  Biso   1.000  H
  C228     1.0000 0.57300  0.40368  0.73190  Biso   1.000  C
  H170     1.0000 0.55350  0.38740  0.67710  Biso   1.000  H
  C229     1.0000 0.57444  0.37285  0.82080  Biso   1.000  C
  C230     1.0000 0.60330  0.39714  0.90300  Biso   1.000  C
  H171     1.0000 0.60530  0.37630  0.96290  Biso   1.000  H
  C231     1.0000 0.62909  0.45290  0.89430  Biso   1.000  C
  H172     1.0000 0.64690  0.47020  0.94990  Biso   1.000  H
  C232     1.0000 0.62887  0.48337  0.80420  Biso   1.000  C
  C233     1.0000 0.57287  0.26654  0.87460  Biso   1.000  C
  H173     1.0000 0.60770  0.26560  0.91220  Biso   1.000  H
  C234     1.0000 0.53647  0.22092  0.85540  Biso   1.000  C
  H174     1.0000 0.54250  0.18200  0.87680  Biso   1.000  H
  C235     1.0000 0.49785  0.29647  0.78410  Biso   1.000  C
  H175     1.0000 0.47250  0.32100  0.74760  Biso   1.000  H
  C236     1.0000 0.75335  0.50824  0.86630  Biso   1.000  C
  H176     1.0000 0.74890  0.47090  0.83720  Biso   1.000  H
  C237     1.0000 0.80348  0.52000  0.92460  Biso   1.000  C
  H177     1.0000 0.83220  0.49080  0.93460  Biso   1.000  H
  C238     1.0000 0.80998  0.57554  0.96720  Biso   1.000  C
  C239     1.0000 0.76845  0.61893  0.94990  Biso   1.000  C
  H178     1.0000 0.77400  0.65690  0.97610  Biso   1.000  H
  C240     1.0000 0.71821  0.60676  0.89350  Biso   1.000  C
  H179     1.0000 0.68950  0.63600  0.88400  Biso   1.000  H
  C241     1.0000 0.71065  0.55072  0.85110  Biso   1.000  C
  C242     1.0000 0.86167  0.63007  0.10220  Biso   1.000  C
  H180     1.0000 0.83010  0.65540  0.11660  Biso   1.000  H
  C243     1.0000 0.91389  0.56010  0.03190  Biso   1.000  C
  H181     1.0000 0.92620  0.52890  0.99120  Biso   1.000  H
  C244     1.0000 0.94616  0.58711  0.10600  Biso   1.000  C
  H182     1.0000 0.98490  0.57720  0.12390  Biso   1.000  H
  C245     1.0000 0.96017  0.59312  0.36930  Biso   1.000  C
  C246     1.0000 0.98074  0.54476  0.43550  Biso   1.000  C
  C247     1.0000 0.04126  0.53716  0.45430  Biso   1.000  C
  H183     1.0000 0.06900  0.56200  0.42390  Biso   1.000  H
  C248     1.0000 0.93987  0.50752  0.48160  Biso   1.000  C
  H184     1.0000 0.89940  0.51260  0.46940  Biso   1.000  H
  N50      1.0000 0.65852  0.53897  0.79500  Biso   1.000  N
  N51      1.0000 0.55907  0.71306  0.54360  Biso   1.000  N
  N52      1.0000 0.55008  0.77074  0.41060  Biso   1.000  N
  N53      1.0000 0.54862  0.31498  0.82800  Biso   1.000  N
  N54      1.0000 0.48874  0.23985  0.79920  Biso   1.000  N
  N55      1.0000 0.86023  0.58812  0.03002  Biso   1.000  N
  N56      1.0000 0.91278  0.63087  0.14970  Biso   1.000  N
  O15      1.0000 0.90616  0.60732  0.36590  Biso   1.000  O
  O16      1.0000 0.99842  0.62131  0.31721  Biso   1.000  O
