data_AWAHAI_clean
_audit_creation_date              2014-07-02
_audit_creation_method            'Materials Studio'
_symmetry_space_group_name_H-M    'P1'
_symmetry_Int_Tables_number       1
_symmetry_cell_setting            triclinic
loop_
_symmetry_equiv_pos_as_xyz
  x,y,z
_cell_length_a                    22.8642
_cell_length_b                    22.8642
_cell_length_c                    22.8642
_cell_angle_alpha                 109.4710
_cell_angle_beta                  109.4710
_cell_angle_gamma                 109.4710
loop_
_atom_site_label
_atom_site_type_symbol
_atom_site_fract_x
_atom_site_fract_y
_atom_site_fract_z
_atom_site_U_iso_or_equiv
_atom_site_adp_type
_atom_site_occupancy
U1     U     0.33337   0.91550   0.72561   0.01267  Uiso   1.00
U2     U     0.18988   0.60775   0.27438   0.01267  Uiso   1.00
U3     U     0.81012   0.08451   0.41788   0.01267  Uiso   1.00
U4     U     0.66663   0.39224   0.58213   0.01267  Uiso   1.00
U5     U     0.41787   0.81011   0.08450   0.01267  Uiso   1.00
U6     U     0.58213   0.66663   0.39225   0.01267  Uiso   1.00
U7     U     0.72561   0.33337   0.91549   0.01267  Uiso   1.00
U8     U     0.27439   0.18989   0.60776   0.01267  Uiso   1.00
U9     U     0.60776   0.27439   0.18989   0.01267  Uiso   1.00
U10    U     0.91550   0.72562   0.33337   0.01267  Uiso   1.00
U11    U     0.39224   0.58212   0.66663   0.01267  Uiso   1.00
U12    U     0.08450   0.41787   0.81011   0.01267  Uiso   1.00
U13    U     0.66663   0.08450   0.27439   0.01267  Uiso   1.00
U14    U     0.81012   0.39225   0.72562   0.01267  Uiso   1.00
U15    U     0.18988   0.91549   0.58212   0.01267  Uiso   1.00
U16    U     0.33337   0.60776   0.41787   0.01267  Uiso   1.00
U17    U     0.58213   0.18989   0.91550   0.01267  Uiso   1.00
U18    U     0.41787   0.33337   0.60775   0.01267  Uiso   1.00
U19    U     0.27439   0.66663   0.08451   0.01267  Uiso   1.00
U20    U     0.72561   0.81011   0.39224   0.01267  Uiso   1.00
U21    U     0.39224   0.72561   0.81011   0.01267  Uiso   1.00
U22    U     0.08450   0.27438   0.66663   0.01267  Uiso   1.00
U23    U     0.60776   0.41788   0.33337   0.01267  Uiso   1.00
U24    U     0.91550   0.58213   0.18989   0.01267  Uiso   1.00
U25    U     0.65109   0.13178   0.78287   0.01267  Uiso   1.00
U26    U     0.34891   0.86822   0.21713   0.01267  Uiso   1.00
U27    U     0.65109   0.86823   0.51931   0.01267  Uiso   1.00
U28    U     0.34891   0.13177   0.48069   0.01267  Uiso   1.00
U29    U     0.51931   0.65109   0.86822   0.01267  Uiso   1.00
U30    U     0.48069   0.34891   0.13178   0.01267  Uiso   1.00
U31    U     0.78286   0.65108   0.13177   0.01267  Uiso   1.00
U32    U     0.21714   0.34892   0.86823   0.01267  Uiso   1.00
U33    U     0.86822   0.21713   0.34891   0.01267  Uiso   1.00
U34    U     0.13178   0.78287   0.65109   0.01267  Uiso   1.00
U35    U     0.13178   0.48069   0.34892   0.01267  Uiso   1.00
U36    U     0.86822   0.51931   0.65108   0.01267  Uiso   1.00
U37    U     0.56706   0.93061   0.63645   0.01267  Uiso   1.00
U38    U     0.29416   0.93061   0.36355   0.01267  Uiso   1.00
U39    U     0.70584   0.06939   0.63645   0.01267  Uiso   1.00
U40    U     0.43294   0.06939   0.36355   0.01267  Uiso   1.00
U41    U     0.63645   0.70584   0.06939   0.01267  Uiso   1.00
U42    U     0.36355   0.43294   0.06939   0.01267  Uiso   1.00
U43    U     0.63645   0.56706   0.93061   0.01267  Uiso   1.00
U44    U     0.36355   0.29416   0.93061   0.01267  Uiso   1.00
U45    U     0.93061   0.36355   0.29416   0.01267  Uiso   1.00
U46    U     0.93061   0.63645   0.56706   0.01267  Uiso   1.00
U47    U     0.06939   0.36355   0.43294   0.01267  Uiso   1.00
U48    U     0.06939   0.63645   0.70584   0.01267  Uiso   1.00
Mn1    Mn    0.63424   0.00000   0.00000   0.01267  Uiso   1.00
Mn2    Mn    0.00000   0.63424   0.00000   0.01267  Uiso   1.00
Mn3    Mn    0.00000   1.00000   0.63424   0.01267  Uiso   1.00
Mn4    Mn    0.36576   0.36576   0.36576   0.01267  Uiso   1.00
Mn5    Mn    0.36576   0.00000   0.00000   0.01267  Uiso   1.00
Mn6    Mn    0.00000   0.36576   0.00000   0.01267  Uiso   1.00
Mn7    Mn    1.00000   1.00000   0.36576   0.01267  Uiso   1.00
Mn8    Mn    0.63424   0.63424   0.63424   0.01267  Uiso   1.00
Mn9    Mn    0.50000   0.00000   0.00000   0.01267  Uiso   1.00
Mn10   Mn    0.00000   0.50000   0.00000   0.01267  Uiso   1.00
Mn11   Mn    1.00000   0.00000   0.50000   0.01267  Uiso   1.00
Mn12   Mn    0.50000   0.50000   0.50000   0.01267  Uiso   1.00
Mn13   Mn    0.50000   0.14180   0.64180   0.01267  Uiso   1.00
Mn14   Mn    0.50000   0.85820   0.35820   0.01267  Uiso   1.00
Mn15   Mn    0.35820   0.50000   0.85820   0.01267  Uiso   1.00
Mn16   Mn    0.64180   0.50000   0.14180   0.01267  Uiso   1.00
Mn17   Mn    0.85820   0.35820   0.50000   0.01267  Uiso   1.00
Mn18   Mn    0.14180   0.64180   0.50000   0.01267  Uiso   1.00
P1     P     0.51912   0.00812   0.77572   0.01267  Uiso   1.00
P2     P     0.23240   0.74340   0.22428   0.01267  Uiso   1.00
P3     P     0.76760   0.99188   0.51100   0.01267  Uiso   1.00
P4     P     0.48088   0.25660   0.48900   0.01267  Uiso   1.00
P5     P     0.51100   0.76760   0.99188   0.01267  Uiso   1.00
P6     P     0.48900   0.48088   0.25660   0.01267  Uiso   1.00
P7     P     0.77572   0.51912   0.00812   0.01267  Uiso   1.00
P8     P     0.22428   0.23240   0.74340   0.01267  Uiso   1.00
P9     P     0.74340   0.22428   0.23240   0.01267  Uiso   1.00
P10    P     0.00812   0.77572   0.51912   0.01267  Uiso   1.00
P11    P     0.25660   0.48900   0.48088   0.01267  Uiso   1.00
P12    P     0.99188   0.51100   0.76760   0.01267  Uiso   1.00
P13    P     0.48088   0.99188   0.22428   0.01267  Uiso   1.00
P14    P     0.76760   0.25660   0.77572   0.01267  Uiso   1.00
P15    P     0.23240   0.00812   0.48900   0.01267  Uiso   1.00
P16    P     0.51912   0.74340   0.51100   0.01267  Uiso   1.00
P17    P     0.48900   0.23240   0.00812   0.01267  Uiso   1.00
P18    P     0.51100   0.51912   0.74340   0.01267  Uiso   1.00
P19    P     0.22428   0.48088   0.99188   0.01267  Uiso   1.00
P20    P     0.77572   0.76760   0.25660   0.01267  Uiso   1.00
P21    P     0.25660   0.77572   0.76760   0.01267  Uiso   1.00
P22    P     0.99188   0.22428   0.48088   0.01267  Uiso   1.00
P23    P     0.74340   0.51100   0.51912   0.01267  Uiso   1.00
P24    P     0.00812   0.48900   0.23240   0.01267  Uiso   1.00
H1     H     0.49680   0.89700   0.76320   0.01267  Uiso   1.00
H2     H     0.57140   0.95670   0.83150   0.01267  Uiso   1.00
H3     H     0.13380   0.73360   0.23680   0.01267  Uiso   1.00
H4     H     0.12520   0.73990   0.16850   0.01267  Uiso   1.00
H5     H     0.86620   0.10300   0.59980   0.01267  Uiso   1.00
H6     H     0.87480   0.04330   0.61470   0.01267  Uiso   1.00
H7     H     0.50320   0.26640   0.40020   0.01267  Uiso   1.00
H8     H     0.42860   0.26010   0.38530   0.01267  Uiso   1.00
H9     H     0.59980   0.86620   0.10300   0.01267  Uiso   1.00
H10    H     0.61470   0.87480   0.04330   0.01267  Uiso   1.00
H11    H     0.40020   0.50320   0.26640   0.01267  Uiso   1.00
H12    H     0.38530   0.42860   0.26010   0.01267  Uiso   1.00
H13    H     0.76320   0.49680   0.89700   0.01267  Uiso   1.00
H14    H     0.83150   0.57140   0.95670   0.01267  Uiso   1.00
H15    H     0.23680   0.13380   0.73360   0.01267  Uiso   1.00
H16    H     0.16850   0.12520   0.73990   0.01267  Uiso   1.00
H17    H     0.73360   0.23680   0.13380   0.01267  Uiso   1.00
H18    H     0.73990   0.16850   0.12520   0.01267  Uiso   1.00
H19    H     0.89700   0.76320   0.49680   0.01267  Uiso   1.00
H20    H     0.95670   0.83150   0.57140   0.01267  Uiso   1.00
H21    H     0.26640   0.40020   0.50320   0.01267  Uiso   1.00
H22    H     0.26010   0.38530   0.42860   0.01267  Uiso   1.00
H23    H     0.10300   0.59980   0.86620   0.01267  Uiso   1.00
H24    H     0.04330   0.61470   0.87480   0.01267  Uiso   1.00
H25    H     0.50320   0.10300   0.23680   0.01267  Uiso   1.00
H26    H     0.42860   0.04330   0.16850   0.01267  Uiso   1.00
H27    H     0.86620   0.26640   0.76320   0.01267  Uiso   1.00
H28    H     0.87480   0.26010   0.83150   0.01267  Uiso   1.00
H29    H     0.13380   0.89700   0.40020   0.01267  Uiso   1.00
H30    H     0.12520   0.95670   0.38530   0.01267  Uiso   1.00
H31    H     0.49680   0.73360   0.59980   0.01267  Uiso   1.00
H32    H     0.57140   0.73990   0.61470   0.01267  Uiso   1.00
H33    H     0.40020   0.13380   0.89700   0.01267  Uiso   1.00
H34    H     0.38530   0.12520   0.95670   0.01267  Uiso   1.00
H35    H     0.59980   0.49680   0.73360   0.01267  Uiso   1.00
H36    H     0.61470   0.57140   0.73990   0.01267  Uiso   1.00
H37    H     0.23680   0.50320   0.10300   0.01267  Uiso   1.00
H38    H     0.16850   0.42860   0.04330   0.01267  Uiso   1.00
H39    H     0.76320   0.86620   0.26640   0.01267  Uiso   1.00
H40    H     0.83150   0.87480   0.26010   0.01267  Uiso   1.00
H41    H     0.26640   0.76320   0.86620   0.01267  Uiso   1.00
H42    H     0.26010   0.83150   0.87480   0.01267  Uiso   1.00
H43    H     0.10300   0.23680   0.50320   0.01267  Uiso   1.00
H44    H     0.04330   0.16850   0.42860   0.01267  Uiso   1.00
H45    H     0.73360   0.59980   0.49680   0.01267  Uiso   1.00
H46    H     0.73990   0.61470   0.57140   0.01267  Uiso   1.00
H47    H     0.89700   0.40020   0.13380   0.01267  Uiso   1.00
H48    H     0.95670   0.38530   0.12520   0.01267  Uiso   1.00
C1     C     0.52200   0.94433   0.80469   0.01267  Uiso   1.00
C2     C     0.48796   0.94337   0.85151   0.01267  Uiso   1.00
C3     C     0.13964   0.71731   0.19531   0.01267  Uiso   1.00
C4     C     0.09186   0.63645   0.14849   0.01267  Uiso   1.00
C5     C     0.86036   0.05567   0.57767   0.01267  Uiso   1.00
C6     C     0.90814   0.05663   0.54459   0.01267  Uiso   1.00
C7     C     0.47800   0.28269   0.42233   0.01267  Uiso   1.00
C8     C     0.51204   0.36355   0.45541   0.01267  Uiso   1.00
C9     C     0.57767   0.86036   0.05567   0.01267  Uiso   1.00
C10    C     0.54459   0.90814   0.05663   0.01267  Uiso   1.00
C11    C     0.42233   0.47800   0.28269   0.01267  Uiso   1.00
C12    C     0.45541   0.51204   0.36355   0.01267  Uiso   1.00
C13    C     0.80469   0.52200   0.94433   0.01267  Uiso   1.00
C14    C     0.85151   0.48796   0.94337   0.01267  Uiso   1.00
C15    C     0.19531   0.13964   0.71731   0.01267  Uiso   1.00
C16    C     0.14849   0.09186   0.63645   0.01267  Uiso   1.00
C17    C     0.71731   0.19531   0.13964   0.01267  Uiso   1.00
C18    C     0.63645   0.14849   0.09186   0.01267  Uiso   1.00
C19    C     0.94433   0.80469   0.52200   0.01267  Uiso   1.00
C20    C     0.94337   0.85151   0.48796   0.01267  Uiso   1.00
C21    C     0.28269   0.42233   0.47800   0.01267  Uiso   1.00
C22    C     0.36355   0.45541   0.51204   0.01267  Uiso   1.00
C23    C     0.05567   0.57767   0.86036   0.01267  Uiso   1.00
C24    C     0.05663   0.54459   0.90814   0.01267  Uiso   1.00
C25    C     0.47800   0.05567   0.19531   0.01267  Uiso   1.00
C26    C     0.51204   0.05663   0.14849   0.01267  Uiso   1.00
C27    C     0.86036   0.28269   0.80469   0.01267  Uiso   1.00
C28    C     0.90814   0.36355   0.85151   0.01267  Uiso   1.00
C29    C     0.13964   0.94433   0.42233   0.01267  Uiso   1.00
C30    C     0.09186   0.94337   0.45541   0.01267  Uiso   1.00
C31    C     0.52200   0.71731   0.57767   0.01267  Uiso   1.00
C32    C     0.48796   0.63645   0.54459   0.01267  Uiso   1.00
C33    C     0.42233   0.13964   0.94433   0.01267  Uiso   1.00
C34    C     0.45541   0.09186   0.94337   0.01267  Uiso   1.00
C35    C     0.57767   0.52200   0.71731   0.01267  Uiso   1.00
C36    C     0.54459   0.48796   0.63645   0.01267  Uiso   1.00
C37    C     0.19531   0.47800   0.05567   0.01267  Uiso   1.00
C38    C     0.14849   0.51204   0.05663   0.01267  Uiso   1.00
C39    C     0.80469   0.86036   0.28269   0.01267  Uiso   1.00
C40    C     0.85151   0.90814   0.36355   0.01267  Uiso   1.00
C41    C     0.28269   0.80469   0.86036   0.01267  Uiso   1.00
C42    C     0.36355   0.85151   0.90814   0.01267  Uiso   1.00
C43    C     0.05567   0.19531   0.47800   0.01267  Uiso   1.00
C44    C     0.05663   0.14849   0.51204   0.01267  Uiso   1.00
C45    C     0.71731   0.57767   0.52200   0.01267  Uiso   1.00
C46    C     0.63645   0.54459   0.48796   0.01267  Uiso   1.00
C47    C     0.94433   0.42233   0.13964   0.01267  Uiso   1.00
C48    C     0.94337   0.45541   0.09186   0.01267  Uiso   1.00
O1     O     0.44431   0.99580   0.74705   0.01267  Uiso   1.00
O2     O     0.54558   0.00043   0.72177   0.01267  Uiso   1.00
O3     O     0.26297   0.83883   0.75452   0.01267  Uiso   1.00
O4     O     0.42261   0.92368   0.82493   0.01267  Uiso   1.00
O5     O     0.52730   0.96416   0.91618   0.01267  Uiso   1.00
O6     O     0.24875   0.69726   0.25295   0.01267  Uiso   1.00
O7     O     0.27866   0.82381   0.27823   0.01267  Uiso   1.00
O8     O     0.08431   0.50845   0.24548   0.01267  Uiso   1.00
O9     O     0.09875   0.59768   0.17507   0.01267  Uiso   1.00
O10    O     0.04798   0.61112   0.08382   0.01267  Uiso   1.00
O11    O     0.75125   0.00420   0.44851   0.01267  Uiso   1.00
O12    O     0.72134   0.99957   0.54515   0.01267  Uiso   1.00
O13    O     0.91569   0.16117   0.42414   0.01267  Uiso   1.00
O14    O     0.90125   0.07632   0.49893   0.01267  Uiso   1.00
O15    O     0.95202   0.03584   0.56314   0.01267  Uiso   1.00
O16    O     0.55569   0.30274   0.55149   0.01267  Uiso   1.00
O17    O     0.45442   0.17619   0.45485   0.01267  Uiso   1.00
O18    O     0.73703   0.49155   0.57586   0.01267  Uiso   1.00
O19    O     0.57739   0.40232   0.50107   0.01267  Uiso   1.00
O20    O     0.47270   0.38888   0.43686   0.01267  Uiso   1.00
O21    O     0.44851   0.75125   0.00420   0.01267  Uiso   1.00
O22    O     0.54515   0.72134   0.99957   0.01267  Uiso   1.00
O23    O     0.42414   0.91569   0.16117   0.01267  Uiso   1.00
O24    O     0.49893   0.90125   0.07632   0.01267  Uiso   1.00
O25    O     0.56314   0.95202   0.03584   0.01267  Uiso   1.00
O26    O     0.55149   0.55569   0.30274   0.01267  Uiso   1.00
O27    O     0.45485   0.45442   0.17619   0.01267  Uiso   1.00
O28    O     0.57586   0.73703   0.49155   0.01267  Uiso   1.00
O29    O     0.50107   0.57739   0.40232   0.01267  Uiso   1.00
O30    O     0.43686   0.47270   0.38888   0.01267  Uiso   1.00
O31    O     0.74705   0.44431   0.99580   0.01267  Uiso   1.00
O32    O     0.72177   0.54558   0.00043   0.01267  Uiso   1.00
O33    O     0.75452   0.26297   0.83883   0.01267  Uiso   1.00
O34    O     0.82493   0.42261   0.92368   0.01267  Uiso   1.00
O35    O     0.91618   0.52730   0.96416   0.01267  Uiso   1.00
O36    O     0.25295   0.24875   0.69726   0.01267  Uiso   1.00
O37    O     0.27823   0.27866   0.82381   0.01267  Uiso   1.00
O38    O     0.24548   0.08431   0.50845   0.01267  Uiso   1.00
O39    O     0.17507   0.09875   0.59768   0.01267  Uiso   1.00
O40    O     0.08382   0.04798   0.61112   0.01267  Uiso   1.00
O41    O     0.69726   0.25295   0.24875   0.01267  Uiso   1.00
O42    O     0.82381   0.27823   0.27866   0.01267  Uiso   1.00
O43    O     0.50845   0.24548   0.08431   0.01267  Uiso   1.00
O44    O     0.59768   0.17507   0.09875   0.01267  Uiso   1.00
O45    O     0.61112   0.08382   0.04798   0.01267  Uiso   1.00
O46    O     0.99580   0.74705   0.44431   0.01267  Uiso   1.00
O47    O     0.00043   0.72177   0.54558   0.01267  Uiso   1.00
O48    O     0.83883   0.75452   0.26297   0.01267  Uiso   1.00
O49    O     0.92368   0.82493   0.42261   0.01267  Uiso   1.00
O50    O     0.96416   0.91618   0.52730   0.01267  Uiso   1.00
O51    O     0.30274   0.55149   0.55569   0.01267  Uiso   1.00
O52    O     0.17619   0.45485   0.45442   0.01267  Uiso   1.00
O53    O     0.49155   0.57586   0.73703   0.01267  Uiso   1.00
O54    O     0.40232   0.50107   0.57739   0.01267  Uiso   1.00
O55    O     0.38888   0.43686   0.47270   0.01267  Uiso   1.00
O56    O     0.00420   0.44851   0.75125   0.01267  Uiso   1.00
O57    O     0.99957   0.54515   0.72134   0.01267  Uiso   1.00
O58    O     0.16117   0.42414   0.91569   0.01267  Uiso   1.00
O59    O     0.07632   0.49893   0.90125   0.01267  Uiso   1.00
O60    O     0.03584   0.56314   0.95202   0.01267  Uiso   1.00
O61    O     0.55569   0.00420   0.25295   0.01267  Uiso   1.00
O62    O     0.45442   0.99957   0.27823   0.01267  Uiso   1.00
O63    O     0.73703   0.16117   0.24548   0.01267  Uiso   1.00
O64    O     0.57739   0.07632   0.17507   0.01267  Uiso   1.00
O65    O     0.47270   0.03584   0.08382   0.01267  Uiso   1.00
O66    O     0.75125   0.30274   0.74705   0.01267  Uiso   1.00
O67    O     0.72134   0.17619   0.72177   0.01267  Uiso   1.00
O68    O     0.91569   0.49155   0.75452   0.01267  Uiso   1.00
O69    O     0.90125   0.40232   0.82493   0.01267  Uiso   1.00
O70    O     0.95202   0.38888   0.91618   0.01267  Uiso   1.00
O71    O     0.24875   0.99580   0.55149   0.01267  Uiso   1.00
O72    O     0.27866   0.00043   0.45485   0.01267  Uiso   1.00
O73    O     0.08431   0.83883   0.57586   0.01267  Uiso   1.00
O74    O     0.09875   0.92368   0.50107   0.01267  Uiso   1.00
O75    O     0.04798   0.96416   0.43686   0.01267  Uiso   1.00
O76    O     0.44431   0.69726   0.44851   0.01267  Uiso   1.00
O77    O     0.54558   0.82381   0.54515   0.01267  Uiso   1.00
O78    O     0.26297   0.50845   0.42414   0.01267  Uiso   1.00
O79    O     0.42261   0.59768   0.49893   0.01267  Uiso   1.00
O80    O     0.52730   0.61112   0.56314   0.01267  Uiso   1.00
O81    O     0.55149   0.24875   0.99580   0.01267  Uiso   1.00
O82    O     0.45485   0.27866   0.00043   0.01267  Uiso   1.00
O83    O     0.57586   0.08431   0.83883   0.01267  Uiso   1.00
O84    O     0.50107   0.09875   0.92368   0.01267  Uiso   1.00
O85    O     0.43686   0.04798   0.96416   0.01267  Uiso   1.00
O86    O     0.44851   0.44431   0.69726   0.01267  Uiso   1.00
O87    O     0.54515   0.54558   0.82381   0.01267  Uiso   1.00
O88    O     0.42414   0.26297   0.50845   0.01267  Uiso   1.00
O89    O     0.49893   0.42261   0.59768   0.01267  Uiso   1.00
O90    O     0.56314   0.52730   0.61112   0.01267  Uiso   1.00
O91    O     0.25295   0.55569   0.00420   0.01267  Uiso   1.00
O92    O     0.27823   0.45442   0.99957   0.01267  Uiso   1.00
O93    O     0.24548   0.73703   0.16117   0.01267  Uiso   1.00
O94    O     0.17507   0.57739   0.07632   0.01267  Uiso   1.00
O95    O     0.08382   0.47270   0.03584   0.01267  Uiso   1.00
O96    O     0.74705   0.75125   0.30274   0.01267  Uiso   1.00
O97    O     0.72177   0.72134   0.17619   0.01267  Uiso   1.00
O98    O     0.75452   0.91569   0.49155   0.01267  Uiso   1.00
O99    O     0.82493   0.90125   0.40232   0.01267  Uiso   1.00
O100   O     0.91618   0.95202   0.38888   0.01267  Uiso   1.00
O101   O     0.30274   0.74705   0.75125   0.01267  Uiso   1.00
O102   O     0.17619   0.72177   0.72134   0.01267  Uiso   1.00
O103   O     0.49155   0.75452   0.91569   0.01267  Uiso   1.00
O104   O     0.40232   0.82493   0.90125   0.01267  Uiso   1.00
O105   O     0.38888   0.91618   0.95202   0.01267  Uiso   1.00
O106   O     0.00420   0.25295   0.55569   0.01267  Uiso   1.00
O107   O     0.99957   0.27823   0.45442   0.01267  Uiso   1.00
O108   O     0.16117   0.24548   0.73703   0.01267  Uiso   1.00
O109   O     0.07632   0.17507   0.57739   0.01267  Uiso   1.00
O110   O     0.03584   0.08382   0.47270   0.01267  Uiso   1.00
O111   O     0.69726   0.44851   0.44431   0.01267  Uiso   1.00
O112   O     0.82381   0.54515   0.54558   0.01267  Uiso   1.00
O113   O     0.50845   0.42414   0.26297   0.01267  Uiso   1.00
O114   O     0.59768   0.49893   0.42261   0.01267  Uiso   1.00
O115   O     0.61112   0.56314   0.52730   0.01267  Uiso   1.00
O116   O     0.99580   0.55149   0.24875   0.01267  Uiso   1.00
O117   O     0.00043   0.45485   0.27866   0.01267  Uiso   1.00
O118   O     0.83883   0.57586   0.08431   0.01267  Uiso   1.00
O119   O     0.92368   0.50107   0.09875   0.01267  Uiso   1.00
O120   O     0.96416   0.43686   0.04798   0.01267  Uiso   1.00
O121   O     0.58204   0.13680   0.71884   0.01267  Uiso   1.00
O122   O     0.65032   0.04877   0.69909   0.01267  Uiso   1.00
O123   O     0.41796   0.86320   0.28116   0.01267  Uiso   1.00
O124   O     0.34968   0.95123   0.30091   0.01267  Uiso   1.00
O125   O     0.58204   0.86320   0.44524   0.01267  Uiso   1.00
O126   O     0.65032   0.95123   0.60155   0.01267  Uiso   1.00
O127   O     0.41796   0.13680   0.55476   0.01267  Uiso   1.00
O128   O     0.34968   0.04877   0.39845   0.01267  Uiso   1.00
O129   O     0.44524   0.58204   0.86320   0.01267  Uiso   1.00
O130   O     0.60155   0.65032   0.95123   0.01267  Uiso   1.00
O131   O     0.55476   0.41796   0.13680   0.01267  Uiso   1.00
O132   O     0.39845   0.34968   0.04877   0.01267  Uiso   1.00
O133   O     0.71884   0.58204   0.13680   0.01267  Uiso   1.00
O134   O     0.69909   0.65032   0.04877   0.01267  Uiso   1.00
O135   O     0.28116   0.41796   0.86320   0.01267  Uiso   1.00
O136   O     0.30091   0.34968   0.95123   0.01267  Uiso   1.00
O137   O     0.86320   0.28116   0.41796   0.01267  Uiso   1.00
O138   O     0.95123   0.30091   0.34968   0.01267  Uiso   1.00
O139   O     0.13680   0.71884   0.58204   0.01267  Uiso   1.00
O140   O     0.04877   0.69909   0.65032   0.01267  Uiso   1.00
O141   O     0.13680   0.55476   0.41796   0.01267  Uiso   1.00
O142   O     0.04877   0.39845   0.34968   0.01267  Uiso   1.00
O143   O     0.86320   0.44524   0.58204   0.01267  Uiso   1.00
O144   O     0.95123   0.60155   0.65032   0.01267  Uiso   1.00
O145   O     0.21460   0.86748   0.65288   0.01267  Uiso   1.00
O146   O     0.31210   0.95370   0.64160   0.01267  Uiso   1.00
O147   O     0.21460   0.56172   0.34712   0.01267  Uiso   1.00
O148   O     0.31210   0.67050   0.35840   0.01267  Uiso   1.00
O149   O     0.78540   0.13252   0.34712   0.01267  Uiso   1.00
O150   O     0.68790   0.04630   0.35840   0.01267  Uiso   1.00
O151   O     0.78540   0.43828   0.65288   0.01267  Uiso   1.00
O152   O     0.68790   0.32950   0.64160   0.01267  Uiso   1.00
O153   O     0.34712   0.78540   0.13252   0.01267  Uiso   1.00
O154   O     0.35840   0.68790   0.04630   0.01267  Uiso   1.00
O155   O     0.65288   0.78540   0.43828   0.01267  Uiso   1.00
O156   O     0.64160   0.68790   0.32950   0.01267  Uiso   1.00
O157   O     0.65288   0.21460   0.86748   0.01267  Uiso   1.00
O158   O     0.64160   0.31210   0.95370   0.01267  Uiso   1.00
O159   O     0.34712   0.21460   0.56172   0.01267  Uiso   1.00
O160   O     0.35840   0.31210   0.67050   0.01267  Uiso   1.00
O161   O     0.56172   0.34712   0.21460   0.01267  Uiso   1.00
O162   O     0.67050   0.35840   0.31210   0.01267  Uiso   1.00
O163   O     0.86748   0.65288   0.21460   0.01267  Uiso   1.00
O164   O     0.95370   0.64160   0.31210   0.01267  Uiso   1.00
O165   O     0.43828   0.65288   0.78540   0.01267  Uiso   1.00
O166   O     0.32950   0.64160   0.68790   0.01267  Uiso   1.00
O167   O     0.13252   0.34712   0.78540   0.01267  Uiso   1.00
O168   O     0.04630   0.35840   0.68790   0.01267  Uiso   1.00
