data_image0
_cell_length_a       9.1422
_cell_length_b       25.938
_cell_length_c       20.301
_cell_angle_alpha    90
_cell_angle_beta     101.89
_cell_angle_gamma    90

_symmetry_space_group_name_H-M    "P 1"
_symmetry_int_tables_number       1

loop_
  _symmetry_equiv_pos_as_xyz
  'x, y, z'

loop_
  _atom_site_label
  _atom_site_occupancy
  _atom_site_fract_x
  _atom_site_fract_y
  _atom_site_fract_z
  _atom_site_thermal_displace_type
  _atom_site_B_iso_or_equiv
  _atom_site_type_symbol
  Zn1      1.0000 0.27152  0.62215  0.51487  Biso   1.000  Zn
  O1       1.0000 0.45390  0.66297  0.52207  Biso   1.000  O
  O2       1.0000 0.60660  0.61620  0.47388  Biso   1.000  O
  O3       1.0000 0.50230  0.28215  0.81930  Biso   1.000  O
  O4       1.0000 0.16770  0.62861  0.42080  Biso   1.000  O
  N1       1.0000 0.32860  0.17210  0.92995  Biso   1.000  N
  O5       1.0000 0.48610  0.42654  0.67483  Biso   1.000  O
  O6       1.0000 0.11490  0.54587  0.42751  Biso   1.000  O
  N2       1.0000 0.32880  0.55663  0.56617  Biso   1.000  N
  C1       1.0000 0.44030  0.24744  0.85559  Biso   1.000  C
  C2       1.0000 0.40810  0.32392  0.78873  Biso   1.000  C
  H1       1.0000 0.37590  0.34450  0.82310  Biso   1.000  H
  H2       1.0000 0.32010  0.31050  0.75850  Biso   1.000  H
  C3       1.0000 0.62930  0.74903  0.53100  Biso   1.000  C
  H3       1.0000 0.54840  0.74820  0.55220  Biso   1.000  H
  C4       1.0000 0.57020  0.65741  0.49744  Biso   1.000  C
  C5       1.0000 0.02710  0.63263  0.28420  Biso   1.000  C
  H4       1.0000 0.04530  0.66380  0.30720  Biso   1.000  H
  C6       1.0000 0.31840  0.25809  0.88350  Biso   1.000  C
  H5       1.0000 0.27160  0.29010  0.87770  Biso   1.000  H
  C7       1.0000 0.44900  0.16318  0.90240  Biso   1.000  C
  H6       1.0000 0.49470  0.13100  0.90900  Biso   1.000  H
  C8       1.0000 0.11610  0.58570  0.39450  Biso   1.000  C
  C9       1.0000 0.42610  0.46759  0.63898  Biso   1.000  C
  C10      1.0000 0.66520  0.70465  0.49898  Biso   1.000  C
  C11      1.0000 0.78910  0.70529  0.46780  Biso   1.000  C
  C12      1.0000 0.05540  0.58578  0.31988  Biso   1.000  C
  C13      1.0000 0.50710  0.19909  0.86530  Biso   1.000  C
  H7       1.0000 0.58970  0.19130  0.84700  Biso   1.000  H
  C14      1.0000 0.52820  0.50115  0.61920  Biso   1.000  C
  H8       1.0000 0.63010  0.49420  0.63000  Biso   1.000  H
  C15      1.0000 0.47580  0.54453  0.58350  Biso   1.000  C
  H9       1.0000 0.54460  0.56680  0.57060  Biso   1.000  H
  C16      1.0000 0.27470  0.47899  0.62060  Biso   1.000  C
  H10      1.0000 0.20360  0.45720  0.63240  Biso   1.000  H
  C17      1.0000 0.23230  0.52354  0.58430  Biso   1.000  C
  H11      1.0000 0.13080  0.53090  0.57180  Biso   1.000  H
  C18      1.0000 0.39170  0.39088  0.70068  Biso   1.000  C
  H12      1.0000 0.33330  0.37040  0.66460  Biso   1.000  H
  H13      1.0000 0.32410  0.40900  0.72380  Biso   1.000  H
  C19      1.0000 0.26810  0.21988  0.92030  Biso   1.000  C
  H14      1.0000 0.18720  0.22740  0.94000  Biso   1.000  H
  C20      1.0000 0.02770  0.53884  0.28500  Biso   1.000  C
  N3       1.0000 0.83910  0.66290  0.43790  Biso   1.000  N
  H15      1.0000 0.77070  0.63940  0.43030  Biso   1.000  H
  H16      1.0000 0.85990  0.67220  0.40000  Biso   1.000  H
  N4       1.0000 0.05280  0.49040  0.30870  Biso   1.000  N
  H17      1.0000 0.12960  0.49030  0.34160  Biso   1.000  H
  H18      1.0000 0.97610  0.47930  0.32310  Biso   1.000  H
  Zn2      1.0000 0.77152  0.12215  0.51487  Biso   1.000  Zn
  O7       1.0000 0.95390  0.16297  0.52207  Biso   1.000  O
  O8       1.0000 0.10660  0.11620  0.47388  Biso   1.000  O
  O9       1.0000 0.00230  0.78215  0.81930  Biso   1.000  O
  O10      1.0000 0.66770  0.12861  0.42080  Biso   1.000  O
  N5       1.0000 0.82860  0.67210  0.92995  Biso   1.000  N
  O11      1.0000 0.98610  0.92654  0.67483  Biso   1.000  O
  O12      1.0000 0.61490  0.04587  0.42751  Biso   1.000  O
  N6       1.0000 0.82880  0.05663  0.56617  Biso   1.000  N
  C21      1.0000 0.94030  0.74744  0.85559  Biso   1.000  C
  C22      1.0000 0.90810  0.82392  0.78873  Biso   1.000  C
  H19      1.0000 0.87590  0.84450  0.82310  Biso   1.000  H
  H20      1.0000 0.82010  0.81050  0.75850  Biso   1.000  H
  C23      1.0000 0.12930  0.24903  0.53100  Biso   1.000  C
  H21      1.0000 0.04840  0.24820  0.55220  Biso   1.000  H
  C24      1.0000 0.07020  0.15741  0.49744  Biso   1.000  C
  C25      1.0000 0.52710  0.13263  0.28420  Biso   1.000  C
  H22      1.0000 0.54530  0.16380  0.30720  Biso   1.000  H
  C26      1.0000 0.81840  0.75809  0.88350  Biso   1.000  C
  H23      1.0000 0.77160  0.79010  0.87770  Biso   1.000  H
  C27      1.0000 0.94900  0.66318  0.90240  Biso   1.000  C
  H24      1.0000 0.99470  0.63100  0.90900  Biso   1.000  H
  C28      1.0000 0.61610  0.08570  0.39450  Biso   1.000  C
  C29      1.0000 0.92610  0.96759  0.63898  Biso   1.000  C
  C30      1.0000 0.16520  0.20465  0.49898  Biso   1.000  C
  C31      1.0000 0.28910  0.20529  0.46780  Biso   1.000  C
  C32      1.0000 0.55540  0.08578  0.31988  Biso   1.000  C
  C33      1.0000 0.00710  0.69909  0.86530  Biso   1.000  C
  H25      1.0000 0.08970  0.69130  0.84700  Biso   1.000  H
  C34      1.0000 0.02820  0.00115  0.61920  Biso   1.000  C
  H26      1.0000 0.13010  0.99420  0.63000  Biso   1.000  H
  C35      1.0000 0.97580  0.04453  0.58350  Biso   1.000  C
  H27      1.0000 0.04460  0.06680  0.57060  Biso   1.000  H
  C36      1.0000 0.77470  0.97899  0.62060  Biso   1.000  C
  H28      1.0000 0.70360  0.95720  0.63240  Biso   1.000  H
  C37      1.0000 0.73230  0.02354  0.58430  Biso   1.000  C
  H29      1.0000 0.63080  0.03090  0.57180  Biso   1.000  H
  C38      1.0000 0.89170  0.89088  0.70068  Biso   1.000  C
  H30      1.0000 0.83330  0.87040  0.66460  Biso   1.000  H
  H31      1.0000 0.82410  0.90900  0.72380  Biso   1.000  H
  C39      1.0000 0.76810  0.71988  0.92030  Biso   1.000  C
  H32      1.0000 0.68720  0.72740  0.94000  Biso   1.000  H
  C40      1.0000 0.52770  0.03884  0.28500  Biso   1.000  C
  N7       1.0000 0.33910  0.16290  0.43790  Biso   1.000  N
  H33      1.0000 0.27070  0.13940  0.43030  Biso   1.000  H
  H34      1.0000 0.35990  0.17220  0.40000  Biso   1.000  H
  N8       1.0000 0.55280  0.99040  0.30870  Biso   1.000  N
  H35      1.0000 0.62960  0.99030  0.34160  Biso   1.000  H
  H36      1.0000 0.47610  0.97930  0.32310  Biso   1.000  H
  Zn3      1.0000 0.72848  0.62215  0.98513  Biso   1.000  Zn
  O13      1.0000 0.54610  0.66297  0.97793  Biso   1.000  O
  O14      1.0000 0.39340  0.61620  0.02612  Biso   1.000  O
  O15      1.0000 0.49770  0.28215  0.68070  Biso   1.000  O
  O16      1.0000 0.83230  0.62861  0.07920  Biso   1.000  O
  N9       1.0000 0.67140  0.17210  0.57005  Biso   1.000  N
  O17      1.0000 0.51390  0.42654  0.82517  Biso   1.000  O
  O18      1.0000 0.88510  0.54587  0.07249  Biso   1.000  O
  N10      1.0000 0.67120  0.55663  0.93383  Biso   1.000  N
  C41      1.0000 0.55970  0.24744  0.64441  Biso   1.000  C
  C42      1.0000 0.59190  0.32392  0.71127  Biso   1.000  C
  H37      1.0000 0.62410  0.34450  0.67690  Biso   1.000  H
  H38      1.0000 0.67990  0.31050  0.74150  Biso   1.000  H
  C43      1.0000 0.37070  0.74903  0.96900  Biso   1.000  C
  H39      1.0000 0.45160  0.74820  0.94780  Biso   1.000  H
  C44      1.0000 0.42980  0.65741  0.00256  Biso   1.000  C
  C45      1.0000 0.97290  0.63263  0.21580  Biso   1.000  C
  H40      1.0000 0.95470  0.66380  0.19280  Biso   1.000  H
  C46      1.0000 0.68160  0.25809  0.61650  Biso   1.000  C
  H41      1.0000 0.72840  0.29010  0.62230  Biso   1.000  H
  C47      1.0000 0.55100  0.16318  0.59760  Biso   1.000  C
  H42      1.0000 0.50530  0.13100  0.59100  Biso   1.000  H
  C48      1.0000 0.88390  0.58570  0.10550  Biso   1.000  C
  C49      1.0000 0.57390  0.46759  0.86102  Biso   1.000  C
  C50      1.0000 0.33480  0.70465  0.00102  Biso   1.000  C
  C51      1.0000 0.21090  0.70529  0.03220  Biso   1.000  C
  C52      1.0000 0.94460  0.58578  0.18012  Biso   1.000  C
  C53      1.0000 0.49290  0.19909  0.63470  Biso   1.000  C
  H43      1.0000 0.41030  0.19130  0.65300  Biso   1.000  H
  C54      1.0000 0.47180  0.50115  0.88080  Biso   1.000  C
  H44      1.0000 0.36990  0.49420  0.87000  Biso   1.000  H
  C55      1.0000 0.52420  0.54453  0.91650  Biso   1.000  C
  H45      1.0000 0.45540  0.56680  0.92940  Biso   1.000  H
  C56      1.0000 0.72530  0.47899  0.87940  Biso   1.000  C
  H46      1.0000 0.79640  0.45720  0.86760  Biso   1.000  H
  C57      1.0000 0.76770  0.52354  0.91570  Biso   1.000  C
  H47      1.0000 0.86920  0.53090  0.92820  Biso   1.000  H
  C58      1.0000 0.60830  0.39088  0.79932  Biso   1.000  C
  H48      1.0000 0.66670  0.37040  0.83540  Biso   1.000  H
  H49      1.0000 0.67590  0.40900  0.77620  Biso   1.000  H
  C59      1.0000 0.73190  0.21988  0.57970  Biso   1.000  C
  H50      1.0000 0.81280  0.22740  0.56000  Biso   1.000  H
  C60      1.0000 0.97230  0.53884  0.21500  Biso   1.000  C
  N11      1.0000 0.16090  0.66290  0.06210  Biso   1.000  N
  H51      1.0000 0.22930  0.63940  0.06970  Biso   1.000  H
  H52      1.0000 0.14010  0.67220  0.10000  Biso   1.000  H
  N12      1.0000 0.94720  0.49040  0.19130  Biso   1.000  N
  H53      1.0000 0.87040  0.49030  0.15840  Biso   1.000  H
  H54      1.0000 0.02390  0.47930  0.17690  Biso   1.000  H
  Zn4      1.0000 0.22848  0.12215  0.98513  Biso   1.000  Zn
  O19      1.0000 0.04610  0.16297  0.97793  Biso   1.000  O
  O20      1.0000 0.89340  0.11620  0.02612  Biso   1.000  O
  O21      1.0000 0.99770  0.78215  0.68070  Biso   1.000  O
  O22      1.0000 0.33230  0.12861  0.07920  Biso   1.000  O
  N13      1.0000 0.17140  0.67210  0.57005  Biso   1.000  N
  O23      1.0000 0.01390  0.92654  0.82517  Biso   1.000  O
  O24      1.0000 0.38510  0.04587  0.07249  Biso   1.000  O
  N14      1.0000 0.17120  0.05663  0.93383  Biso   1.000  N
  C61      1.0000 0.05970  0.74744  0.64441  Biso   1.000  C
  C62      1.0000 0.09190  0.82392  0.71127  Biso   1.000  C
  H55      1.0000 0.12410  0.84450  0.67690  Biso   1.000  H
  H56      1.0000 0.17990  0.81050  0.74150  Biso   1.000  H
  C63      1.0000 0.87070  0.24903  0.96900  Biso   1.000  C
  H57      1.0000 0.95160  0.24820  0.94780  Biso   1.000  H
  C64      1.0000 0.92980  0.15741  0.00256  Biso   1.000  C
  C65      1.0000 0.47290  0.13263  0.21580  Biso   1.000  C
  H58      1.0000 0.45470  0.16380  0.19280  Biso   1.000  H
  C66      1.0000 0.18160  0.75809  0.61650  Biso   1.000  C
  H59      1.0000 0.22840  0.79010  0.62230  Biso   1.000  H
  C67      1.0000 0.05100  0.66318  0.59760  Biso   1.000  C
  H60      1.0000 0.00530  0.63100  0.59100  Biso   1.000  H
  C68      1.0000 0.38390  0.08570  0.10550  Biso   1.000  C
  C69      1.0000 0.07390  0.96759  0.86102  Biso   1.000  C
  C70      1.0000 0.83480  0.20465  0.00102  Biso   1.000  C
  C71      1.0000 0.71090  0.20529  0.03220  Biso   1.000  C
  C72      1.0000 0.44460  0.08578  0.18012  Biso   1.000  C
  C73      1.0000 0.99290  0.69909  0.63470  Biso   1.000  C
  H61      1.0000 0.91030  0.69130  0.65300  Biso   1.000  H
  C74      1.0000 0.97180  0.00115  0.88080  Biso   1.000  C
  H62      1.0000 0.86990  0.99420  0.87000  Biso   1.000  H
  C75      1.0000 0.02420  0.04453  0.91650  Biso   1.000  C
  H63      1.0000 0.95540  0.06680  0.92940  Biso   1.000  H
  C76      1.0000 0.22530  0.97899  0.87940  Biso   1.000  C
  H64      1.0000 0.29640  0.95720  0.86760  Biso   1.000  H
  C77      1.0000 0.26770  0.02354  0.91570  Biso   1.000  C
  H65      1.0000 0.36920  0.03090  0.92820  Biso   1.000  H
  C78      1.0000 0.10830  0.89088  0.79932  Biso   1.000  C
  H66      1.0000 0.16670  0.87040  0.83540  Biso   1.000  H
  H67      1.0000 0.17590  0.90900  0.77620  Biso   1.000  H
  C79      1.0000 0.23190  0.71988  0.57970  Biso   1.000  C
  H68      1.0000 0.31280  0.72740  0.56000  Biso   1.000  H
  C80      1.0000 0.47230  0.03884  0.21500  Biso   1.000  C
  N15      1.0000 0.66090  0.16290  0.06210  Biso   1.000  N
  H69      1.0000 0.72930  0.13940  0.06970  Biso   1.000  H
  H70      1.0000 0.64010  0.17220  0.10000  Biso   1.000  H
  N16      1.0000 0.44720  0.99040  0.19130  Biso   1.000  N
  H71      1.0000 0.37040  0.99030  0.15840  Biso   1.000  H
  H72      1.0000 0.52390  0.97930  0.17690  Biso   1.000  H
  Zn5      1.0000 0.72848  0.37785  0.48513  Biso   1.000  Zn
  O25      1.0000 0.54610  0.33703  0.47793  Biso   1.000  O
  O26      1.0000 0.39340  0.38380  0.52612  Biso   1.000  O
  O27      1.0000 0.49770  0.71785  0.18070  Biso   1.000  O
  O28      1.0000 0.83230  0.37139  0.57920  Biso   1.000  O
  N17      1.0000 0.67140  0.82790  0.07005  Biso   1.000  N
  O29      1.0000 0.51390  0.57346  0.32517  Biso   1.000  O
  O30      1.0000 0.88510  0.45413  0.57249  Biso   1.000  O
  N18      1.0000 0.67120  0.44337  0.43383  Biso   1.000  N
  C81      1.0000 0.55970  0.75256  0.14441  Biso   1.000  C
  C82      1.0000 0.59190  0.67608  0.21127  Biso   1.000  C
  H73      1.0000 0.62410  0.65550  0.17690  Biso   1.000  H
  H74      1.0000 0.67990  0.68950  0.24150  Biso   1.000  H
  C83      1.0000 0.37070  0.25097  0.46900  Biso   1.000  C
  H75      1.0000 0.45160  0.25180  0.44780  Biso   1.000  H
  C84      1.0000 0.42980  0.34259  0.50256  Biso   1.000  C
  C85      1.0000 0.97290  0.36737  0.71580  Biso   1.000  C
  H76      1.0000 0.95470  0.33620  0.69280  Biso   1.000  H
  C86      1.0000 0.68160  0.74191  0.11650  Biso   1.000  C
  H77      1.0000 0.72840  0.70990  0.12230  Biso   1.000  H
  C87      1.0000 0.55100  0.83682  0.09760  Biso   1.000  C
  H78      1.0000 0.50530  0.86900  0.09100  Biso   1.000  H
  C88      1.0000 0.88390  0.41430  0.60550  Biso   1.000  C
  C89      1.0000 0.57390  0.53241  0.36102  Biso   1.000  C
  C90      1.0000 0.33480  0.29535  0.50102  Biso   1.000  C
  C91      1.0000 0.21090  0.29471  0.53220  Biso   1.000  C
  C92      1.0000 0.94460  0.41422  0.68012  Biso   1.000  C
  C93      1.0000 0.49290  0.80091  0.13470  Biso   1.000  C
  H79      1.0000 0.41030  0.80870  0.15300  Biso   1.000  H
  C94      1.0000 0.47180  0.49885  0.38080  Biso   1.000  C
  H80      1.0000 0.36990  0.50580  0.37000  Biso   1.000  H
  C95      1.0000 0.52420  0.45547  0.41650  Biso   1.000  C
  H81      1.0000 0.45540  0.43320  0.42940  Biso   1.000  H
  C96      1.0000 0.72530  0.52101  0.37940  Biso   1.000  C
  H82      1.0000 0.79640  0.54280  0.36760  Biso   1.000  H
  C97      1.0000 0.76770  0.47646  0.41570  Biso   1.000  C
  H83      1.0000 0.86920  0.46910  0.42820  Biso   1.000  H
  C98      1.0000 0.60830  0.60912  0.29932  Biso   1.000  C
  H84      1.0000 0.66670  0.62960  0.33540  Biso   1.000  H
  H85      1.0000 0.67590  0.59100  0.27620  Biso   1.000  H
  C99      1.0000 0.73190  0.78012  0.07970  Biso   1.000  C
  H86      1.0000 0.81280  0.77260  0.06000  Biso   1.000  H
  C100     1.0000 0.97230  0.46116  0.71500  Biso   1.000  C
  N19      1.0000 0.16090  0.33710  0.56210  Biso   1.000  N
  H87      1.0000 0.22930  0.36060  0.56970  Biso   1.000  H
  H88      1.0000 0.14010  0.32780  0.60000  Biso   1.000  H
  N20      1.0000 0.94720  0.50960  0.69130  Biso   1.000  N
  H89      1.0000 0.87040  0.50970  0.65840  Biso   1.000  H
  H90      1.0000 0.02390  0.52070  0.67690  Biso   1.000  H
  Zn6      1.0000 0.22848  0.87785  0.48513  Biso   1.000  Zn
  O31      1.0000 0.04610  0.83703  0.47793  Biso   1.000  O
  O32      1.0000 0.89340  0.88380  0.52612  Biso   1.000  O
  O33      1.0000 0.99770  0.21785  0.18070  Biso   1.000  O
  O34      1.0000 0.33230  0.87139  0.57920  Biso   1.000  O
  N21      1.0000 0.17140  0.32790  0.07005  Biso   1.000  N
  O35      1.0000 0.01390  0.07346  0.32517  Biso   1.000  O
  O36      1.0000 0.38510  0.95413  0.57249  Biso   1.000  O
  N22      1.0000 0.17120  0.94337  0.43383  Biso   1.000  N
  C101     1.0000 0.05970  0.25256  0.14441  Biso   1.000  C
  C102     1.0000 0.09190  0.17608  0.21127  Biso   1.000  C
  H91      1.0000 0.12410  0.15550  0.17690  Biso   1.000  H
  H92      1.0000 0.17990  0.18950  0.24150  Biso   1.000  H
  C103     1.0000 0.87070  0.75097  0.46900  Biso   1.000  C
  H93      1.0000 0.95160  0.75180  0.44780  Biso   1.000  H
  C104     1.0000 0.92980  0.84259  0.50256  Biso   1.000  C
  C105     1.0000 0.47290  0.86737  0.71580  Biso   1.000  C
  H94      1.0000 0.45470  0.83620  0.69280  Biso   1.000  H
  C106     1.0000 0.18160  0.24191  0.11650  Biso   1.000  C
  H95      1.0000 0.22840  0.20990  0.12230  Biso   1.000  H
  C107     1.0000 0.05100  0.33682  0.09760  Biso   1.000  C
  H96      1.0000 0.00530  0.36900  0.09100  Biso   1.000  H
  C108     1.0000 0.38390  0.91430  0.60550  Biso   1.000  C
  C109     1.0000 0.07390  0.03241  0.36102  Biso   1.000  C
  C110     1.0000 0.83480  0.79535  0.50102  Biso   1.000  C
  C111     1.0000 0.71090  0.79471  0.53220  Biso   1.000  C
  C112     1.0000 0.44460  0.91422  0.68012  Biso   1.000  C
  C113     1.0000 0.99290  0.30091  0.13470  Biso   1.000  C
  H97      1.0000 0.91030  0.30870  0.15300  Biso   1.000  H
  C114     1.0000 0.97180  0.99885  0.38080  Biso   1.000  C
  H98      1.0000 0.86990  0.00580  0.37000  Biso   1.000  H
  C115     1.0000 0.02420  0.95547  0.41650  Biso   1.000  C
  H99      1.0000 0.95540  0.93320  0.42940  Biso   1.000  H
  C116     1.0000 0.22530  0.02101  0.37940  Biso   1.000  C
  H100     1.0000 0.29640  0.04280  0.36760  Biso   1.000  H
  C117     1.0000 0.26770  0.97646  0.41570  Biso   1.000  C
  H101     1.0000 0.36920  0.96910  0.42820  Biso   1.000  H
  C118     1.0000 0.10830  0.10912  0.29932  Biso   1.000  C
  H102     1.0000 0.16670  0.12960  0.33540  Biso   1.000  H
  H103     1.0000 0.17590  0.09100  0.27620  Biso   1.000  H
  C119     1.0000 0.23190  0.28012  0.07970  Biso   1.000  C
  H104     1.0000 0.31280  0.27260  0.06000  Biso   1.000  H
  C120     1.0000 0.47230  0.96116  0.71500  Biso   1.000  C
  N23      1.0000 0.66090  0.83710  0.56210  Biso   1.000  N
  H105     1.0000 0.72930  0.86060  0.56970  Biso   1.000  H
  H106     1.0000 0.64010  0.82780  0.60000  Biso   1.000  H
  N24      1.0000 0.44720  0.00960  0.69130  Biso   1.000  N
  H107     1.0000 0.37040  0.00970  0.65840  Biso   1.000  H
  H108     1.0000 0.52390  0.02070  0.67690  Biso   1.000  H
  Zn7      1.0000 0.27152  0.37785  0.01487  Biso   1.000  Zn
  O37      1.0000 0.45390  0.33703  0.02207  Biso   1.000  O
  O38      1.0000 0.60660  0.38380  0.97388  Biso   1.000  O
  O39      1.0000 0.50230  0.71785  0.31930  Biso   1.000  O
  O40      1.0000 0.16770  0.37139  0.92080  Biso   1.000  O
  N25      1.0000 0.32860  0.82790  0.42995  Biso   1.000  N
  O41      1.0000 0.48610  0.57346  0.17483  Biso   1.000  O
  O42      1.0000 0.11490  0.45413  0.92751  Biso   1.000  O
  N26      1.0000 0.32880  0.44337  0.06617  Biso   1.000  N
  C121     1.0000 0.44030  0.75256  0.35559  Biso   1.000  C
  C122     1.0000 0.40810  0.67608  0.28873  Biso   1.000  C
  H109     1.0000 0.37590  0.65550  0.32310  Biso   1.000  H
  H110     1.0000 0.32010  0.68950  0.25850  Biso   1.000  H
  C123     1.0000 0.62930  0.25097  0.03100  Biso   1.000  C
  H111     1.0000 0.54840  0.25180  0.05220  Biso   1.000  H
  C124     1.0000 0.57020  0.34259  0.99744  Biso   1.000  C
  C125     1.0000 0.02710  0.36737  0.78420  Biso   1.000  C
  H112     1.0000 0.04530  0.33620  0.80720  Biso   1.000  H
  C126     1.0000 0.31840  0.74191  0.38350  Biso   1.000  C
  H113     1.0000 0.27160  0.70990  0.37770  Biso   1.000  H
  C127     1.0000 0.44900  0.83682  0.40240  Biso   1.000  C
  H114     1.0000 0.49470  0.86900  0.40900  Biso   1.000  H
  C128     1.0000 0.11610  0.41430  0.89450  Biso   1.000  C
  C129     1.0000 0.42610  0.53241  0.13898  Biso   1.000  C
  C130     1.0000 0.66520  0.29535  0.99898  Biso   1.000  C
  C131     1.0000 0.78910  0.29471  0.96780  Biso   1.000  C
  C132     1.0000 0.05540  0.41422  0.81988  Biso   1.000  C
  C133     1.0000 0.50710  0.80091  0.36530  Biso   1.000  C
  H115     1.0000 0.58970  0.80870  0.34700  Biso   1.000  H
  C134     1.0000 0.52820  0.49885  0.11920  Biso   1.000  C
  H116     1.0000 0.63010  0.50580  0.13000  Biso   1.000  H
  C135     1.0000 0.47580  0.45547  0.08350  Biso   1.000  C
  H117     1.0000 0.54460  0.43320  0.07060  Biso   1.000  H
  C136     1.0000 0.27470  0.52101  0.12060  Biso   1.000  C
  H118     1.0000 0.20360  0.54280  0.13240  Biso   1.000  H
  C137     1.0000 0.23230  0.47646  0.08430  Biso   1.000  C
  H119     1.0000 0.13080  0.46910  0.07180  Biso   1.000  H
  C138     1.0000 0.39170  0.60912  0.20068  Biso   1.000  C
  H120     1.0000 0.33330  0.62960  0.16460  Biso   1.000  H
  H121     1.0000 0.32410  0.59100  0.22380  Biso   1.000  H
  C139     1.0000 0.26810  0.78012  0.42030  Biso   1.000  C
  H122     1.0000 0.18720  0.77260  0.44000  Biso   1.000  H
  C140     1.0000 0.02770  0.46116  0.78500  Biso   1.000  C
  N27      1.0000 0.83910  0.33710  0.93790  Biso   1.000  N
  H123     1.0000 0.77070  0.36060  0.93030  Biso   1.000  H
  H124     1.0000 0.85990  0.32780  0.90000  Biso   1.000  H
  N28      1.0000 0.05280  0.50960  0.80870  Biso   1.000  N
  H125     1.0000 0.12960  0.50970  0.84160  Biso   1.000  H
  H126     1.0000 0.97610  0.52070  0.82310  Biso   1.000  H
  Zn8      1.0000 0.77152  0.87785  0.01487  Biso   1.000  Zn
  O43      1.0000 0.95390  0.83703  0.02207  Biso   1.000  O
  O44      1.0000 0.10660  0.88380  0.97388  Biso   1.000  O
  O45      1.0000 0.00230  0.21785  0.31930  Biso   1.000  O
  O46      1.0000 0.66770  0.87139  0.92080  Biso   1.000  O
  N29      1.0000 0.82860  0.32790  0.42995  Biso   1.000  N
  O47      1.0000 0.98610  0.07346  0.17483  Biso   1.000  O
  O48      1.0000 0.61490  0.95413  0.92751  Biso   1.000  O
  N30      1.0000 0.82880  0.94337  0.06617  Biso   1.000  N
  C141     1.0000 0.94030  0.25256  0.35559  Biso   1.000  C
  C142     1.0000 0.90810  0.17608  0.28873  Biso   1.000  C
  H127     1.0000 0.87590  0.15550  0.32310  Biso   1.000  H
  H128     1.0000 0.82010  0.18950  0.25850  Biso   1.000  H
  C143     1.0000 0.12930  0.75097  0.03100  Biso   1.000  C
  H129     1.0000 0.04840  0.75180  0.05220  Biso   1.000  H
  C144     1.0000 0.07020  0.84259  0.99744  Biso   1.000  C
  C145     1.0000 0.52710  0.86737  0.78420  Biso   1.000  C
  H130     1.0000 0.54530  0.83620  0.80720  Biso   1.000  H
  C146     1.0000 0.81840  0.24191  0.38350  Biso   1.000  C
  H131     1.0000 0.77160  0.20990  0.37770  Biso   1.000  H
  C147     1.0000 0.94900  0.33682  0.40240  Biso   1.000  C
  H132     1.0000 0.99470  0.36900  0.40900  Biso   1.000  H
  C148     1.0000 0.61610  0.91430  0.89450  Biso   1.000  C
  C149     1.0000 0.92610  0.03241  0.13898  Biso   1.000  C
  C150     1.0000 0.16520  0.79535  0.99898  Biso   1.000  C
  C151     1.0000 0.28910  0.79471  0.96780  Biso   1.000  C
  C152     1.0000 0.55540  0.91422  0.81988  Biso   1.000  C
  C153     1.0000 0.00710  0.30091  0.36530  Biso   1.000  C
  H133     1.0000 0.08970  0.30870  0.34700  Biso   1.000  H
  C154     1.0000 0.02820  0.99885  0.11920  Biso   1.000  C
  H134     1.0000 0.13010  0.00580  0.13000  Biso   1.000  H
  C155     1.0000 0.97580  0.95547  0.08350  Biso   1.000  C
  H135     1.0000 0.04460  0.93320  0.07060  Biso   1.000  H
  C156     1.0000 0.77470  0.02101  0.12060  Biso   1.000  C
  H136     1.0000 0.70360  0.04280  0.13240  Biso   1.000  H
  C157     1.0000 0.73230  0.97646  0.08430  Biso   1.000  C
  H137     1.0000 0.63080  0.96910  0.07180  Biso   1.000  H
  C158     1.0000 0.89170  0.10912  0.20068  Biso   1.000  C
  H138     1.0000 0.83330  0.12960  0.16460  Biso   1.000  H
  H139     1.0000 0.82410  0.09100  0.22380  Biso   1.000  H
  C159     1.0000 0.76810  0.28012  0.42030  Biso   1.000  C
  H140     1.0000 0.68720  0.27260  0.44000  Biso   1.000  H
  C160     1.0000 0.52770  0.96116  0.78500  Biso   1.000  C
  N31      1.0000 0.33910  0.83710  0.93790  Biso   1.000  N
  H141     1.0000 0.27070  0.86060  0.93030  Biso   1.000  H
  H142     1.0000 0.35990  0.82780  0.90000  Biso   1.000  H
  N32      1.0000 0.55280  0.00960  0.80870  Biso   1.000  N
  H143     1.0000 0.62960  0.00970  0.84160  Biso   1.000  H
  H144     1.0000 0.47610  0.02070  0.82310  Biso   1.000  H
  C161     1.0000 0.50000  0.35650  0.75000  Biso   1.000  C
  C162     1.0000 0.00000  0.85650  0.75000  Biso   1.000  C
  C163     1.0000 0.50000  0.64350  0.25000  Biso   1.000  C
  C164     1.0000 0.00000  0.14350  0.25000  Biso   1.000  C
