data_image0
_cell_length_a       10.108
_cell_length_b       13.6695
_cell_length_c       28.8626
_cell_angle_alpha    90
_cell_angle_beta     99.502
_cell_angle_gamma    90

_symmetry_space_group_name_H-M    "P 1"
_symmetry_int_tables_number       1

loop_
  _symmetry_equiv_pos_as_xyz
  'x, y, z'

loop_
  _atom_site_label
  _atom_site_occupancy
  _atom_site_fract_x
  _atom_site_fract_y
  _atom_site_fract_z
  _atom_site_thermal_displace_type
  _atom_site_B_iso_or_equiv
  _atom_site_type_symbol
  C1       1.0000 0.47850  0.18600  0.88874  Biso   1.000  C
  C2       1.0000 0.42760  0.24680  0.92549  Biso   1.000  C
  C3       1.0000 0.49360  0.25060  0.97107  Biso   1.000  C
  H1       1.0000 0.56710  0.21010  0.98030  Biso   1.000  H
  C4       1.0000 0.31420  0.30380  0.91348  Biso   1.000  C
  H2       1.0000 0.26700  0.30070  0.88300  Biso   1.000  H
  C5       1.0000 0.26940  0.36500  0.94526  Biso   1.000  C
  H3       1.0000 0.19130  0.40110  0.93640  Biso   1.000  H
  C6       1.0000 0.45240  0.31370  0.00357  Biso   1.000  C
  H4       1.0000 0.49980  0.31600  0.03400  Biso   1.000  H
  C7       1.0000 0.34100  0.37330  0.99101  Biso   1.000  C
  C8       1.0000 0.23220  0.52930  0.00685  Biso   1.000  C
  C9       1.0000 0.13850  0.56660  0.03250  Biso   1.000  C
  H5       1.0000 0.12020  0.53340  0.05890  Biso   1.000  H
  C10      1.0000 0.25450  0.57880  0.96732  Biso   1.000  C
  H6       1.0000 0.31670  0.55470  0.94980  Biso   1.000  H
  C11      1.0000 0.18520  0.66410  0.95349  Biso   1.000  C
  H7       1.0000 0.20060  0.69590  0.92640  Biso   1.000  H
  C12      1.0000 0.07240  0.65370  0.01870  Biso   1.000  C
  H8       1.0000 0.01220  0.67960  0.03660  Biso   1.000  H
  C13      1.0000 0.09490  0.70230  0.97860  Biso   1.000  C
  H9       1.0000 0.04930  0.75990  0.96910  Biso   1.000  H
  C14      1.0000 0.35410  0.43540  0.07196  Biso   1.000  C
  C15      1.0000 0.33910  0.35050  0.09657  Biso   1.000  C
  H10      1.0000 0.29740  0.29620  0.08110  Biso   1.000  H
  C16      1.0000 0.41990  0.51450  0.09485  Biso   1.000  C
  H11      1.0000 0.43320  0.57060  0.07800  Biso   1.000  H
  C17      1.0000 0.38640  0.34680  0.14429  Biso   1.000  C
  H12      1.0000 0.37600  0.28960  0.16070  Biso   1.000  H
  C18      1.0000 0.46640  0.51060  0.14292  Biso   1.000  C
  H13      1.0000 0.50940  0.56460  0.15830  Biso   1.000  H
  C19      1.0000 0.44880  0.42630  0.16802  Biso   1.000  C
  C20      1.0000 0.49060  0.42370  0.22064  Biso   1.000  C
  N1       1.0000 0.30290  0.44200  0.02292  Biso   1.000  N
  O1       1.0000 0.43060  0.20370  0.84673  Biso   1.000  O
  O2       1.0000 0.56390  0.12120  0.90083  Biso   1.000  O
  O3       1.0000 0.45500  0.35230  0.24298  Biso   1.000  O
  O4       1.0000 0.55750  0.49240  0.24112  Biso   1.000  O
  C21      1.0000 0.47850  0.31400  0.38874  Biso   1.000  C
  C22      1.0000 0.42760  0.25320  0.42549  Biso   1.000  C
  C23      1.0000 0.49360  0.24940  0.47107  Biso   1.000  C
  H14      1.0000 0.56710  0.28990  0.48030  Biso   1.000  H
  C24      1.0000 0.31420  0.19620  0.41348  Biso   1.000  C
  H15      1.0000 0.26700  0.19930  0.38300  Biso   1.000  H
  C25      1.0000 0.26940  0.13500  0.44526  Biso   1.000  C
  H16      1.0000 0.19130  0.09890  0.43640  Biso   1.000  H
  C26      1.0000 0.45240  0.18630  0.50357  Biso   1.000  C
  H17      1.0000 0.49980  0.18400  0.53400  Biso   1.000  H
  C27      1.0000 0.34100  0.12670  0.49101  Biso   1.000  C
  C28      1.0000 0.23220  0.97070  0.50685  Biso   1.000  C
  C29      1.0000 0.13850  0.93340  0.53250  Biso   1.000  C
  H18      1.0000 0.12020  0.96660  0.55890  Biso   1.000  H
  C30      1.0000 0.25450  0.92120  0.46732  Biso   1.000  C
  H19      1.0000 0.31670  0.94530  0.44980  Biso   1.000  H
  C31      1.0000 0.18520  0.83590  0.45349  Biso   1.000  C
  H20      1.0000 0.20060  0.80410  0.42640  Biso   1.000  H
  C32      1.0000 0.07240  0.84630  0.51870  Biso   1.000  C
  H21      1.0000 0.01220  0.82040  0.53660  Biso   1.000  H
  C33      1.0000 0.09490  0.79770  0.47860  Biso   1.000  C
  H22      1.0000 0.04930  0.74010  0.46910  Biso   1.000  H
  C34      1.0000 0.35410  0.06460  0.57196  Biso   1.000  C
  C35      1.0000 0.33910  0.14950  0.59657  Biso   1.000  C
  H23      1.0000 0.29740  0.20380  0.58110  Biso   1.000  H
  C36      1.0000 0.41990  0.98550  0.59485  Biso   1.000  C
  H24      1.0000 0.43320  0.92940  0.57800  Biso   1.000  H
  C37      1.0000 0.38640  0.15320  0.64429  Biso   1.000  C
  H25      1.0000 0.37600  0.21040  0.66070  Biso   1.000  H
  C38      1.0000 0.46640  0.98940  0.64292  Biso   1.000  C
  H26      1.0000 0.50940  0.93540  0.65830  Biso   1.000  H
  C39      1.0000 0.44880  0.07370  0.66802  Biso   1.000  C
  C40      1.0000 0.49060  0.07630  0.72064  Biso   1.000  C
  N2       1.0000 0.30290  0.05800  0.52292  Biso   1.000  N
  O5       1.0000 0.43060  0.29630  0.34673  Biso   1.000  O
  O6       1.0000 0.56390  0.37880  0.40083  Biso   1.000  O
  O7       1.0000 0.45500  0.14770  0.74298  Biso   1.000  O
  O8       1.0000 0.55750  0.00760  0.74112  Biso   1.000  O
  C41      1.0000 0.52150  0.68600  0.61126  Biso   1.000  C
  C42      1.0000 0.57240  0.74680  0.57451  Biso   1.000  C
  C43      1.0000 0.50640  0.75060  0.52893  Biso   1.000  C
  H27      1.0000 0.43290  0.71010  0.51970  Biso   1.000  H
  C44      1.0000 0.68580  0.80380  0.58652  Biso   1.000  C
  H28      1.0000 0.73300  0.80070  0.61700  Biso   1.000  H
  C45      1.0000 0.73060  0.86500  0.55474  Biso   1.000  C
  H29      1.0000 0.80870  0.90110  0.56360  Biso   1.000  H
  C46      1.0000 0.54760  0.81370  0.49643  Biso   1.000  C
  H30      1.0000 0.50020  0.81600  0.46600  Biso   1.000  H
  C47      1.0000 0.65900  0.87330  0.50899  Biso   1.000  C
  C48      1.0000 0.76780  0.02930  0.49315  Biso   1.000  C
  C49      1.0000 0.86150  0.06660  0.46750  Biso   1.000  C
  H31      1.0000 0.87980  0.03340  0.44110  Biso   1.000  H
  C50      1.0000 0.74550  0.07880  0.53268  Biso   1.000  C
  H32      1.0000 0.68330  0.05470  0.55020  Biso   1.000  H
  C51      1.0000 0.81480  0.16410  0.54651  Biso   1.000  C
  H33      1.0000 0.79940  0.19590  0.57360  Biso   1.000  H
  C52      1.0000 0.92760  0.15370  0.48130  Biso   1.000  C
  H34      1.0000 0.98780  0.17960  0.46340  Biso   1.000  H
  C53      1.0000 0.90510  0.20230  0.52140  Biso   1.000  C
  H35      1.0000 0.95070  0.25990  0.53090  Biso   1.000  H
  C54      1.0000 0.64590  0.93540  0.42804  Biso   1.000  C
  C55      1.0000 0.66090  0.85050  0.40343  Biso   1.000  C
  H36      1.0000 0.70260  0.79620  0.41890  Biso   1.000  H
  C56      1.0000 0.58010  0.01450  0.40515  Biso   1.000  C
  H37      1.0000 0.56680  0.07060  0.42200  Biso   1.000  H
  C57      1.0000 0.61360  0.84680  0.35571  Biso   1.000  C
  H38      1.0000 0.62400  0.78960  0.33930  Biso   1.000  H
  C58      1.0000 0.53360  0.01060  0.35708  Biso   1.000  C
  H39      1.0000 0.49060  0.06460  0.34170  Biso   1.000  H
  C59      1.0000 0.55120  0.92630  0.33198  Biso   1.000  C
  C60      1.0000 0.50940  0.92370  0.27936  Biso   1.000  C
  N3       1.0000 0.69710  0.94200  0.47708  Biso   1.000  N
  O9       1.0000 0.56940  0.70370  0.65327  Biso   1.000  O
  O10      1.0000 0.43610  0.62120  0.59917  Biso   1.000  O
  O11      1.0000 0.54500  0.85230  0.25702  Biso   1.000  O
  O12      1.0000 0.44250  0.99240  0.25888  Biso   1.000  O
  C61      1.0000 0.52150  0.81400  0.11126  Biso   1.000  C
  C62      1.0000 0.57240  0.75320  0.07451  Biso   1.000  C
  C63      1.0000 0.50640  0.74940  0.02893  Biso   1.000  C
  H40      1.0000 0.43290  0.78990  0.01970  Biso   1.000  H
  C64      1.0000 0.68580  0.69620  0.08652  Biso   1.000  C
  H41      1.0000 0.73300  0.69930  0.11700  Biso   1.000  H
  C65      1.0000 0.73060  0.63500  0.05474  Biso   1.000  C
  H42      1.0000 0.80870  0.59890  0.06360  Biso   1.000  H
  C66      1.0000 0.54760  0.68630  0.99643  Biso   1.000  C
  H43      1.0000 0.50020  0.68400  0.96600  Biso   1.000  H
  C67      1.0000 0.65900  0.62670  0.00899  Biso   1.000  C
  C68      1.0000 0.76780  0.47070  0.99315  Biso   1.000  C
  C69      1.0000 0.86150  0.43340  0.96750  Biso   1.000  C
  H44      1.0000 0.87980  0.46660  0.94110  Biso   1.000  H
  C70      1.0000 0.74550  0.42120  0.03268  Biso   1.000  C
  H45      1.0000 0.68330  0.44530  0.05020  Biso   1.000  H
  C71      1.0000 0.81480  0.33590  0.04651  Biso   1.000  C
  H46      1.0000 0.79940  0.30410  0.07360  Biso   1.000  H
  C72      1.0000 0.92760  0.34630  0.98130  Biso   1.000  C
  H47      1.0000 0.98780  0.32040  0.96340  Biso   1.000  H
  C73      1.0000 0.90510  0.29770  0.02140  Biso   1.000  C
  H48      1.0000 0.95070  0.24010  0.03090  Biso   1.000  H
  C74      1.0000 0.64590  0.56460  0.92804  Biso   1.000  C
  C75      1.0000 0.66090  0.64950  0.90343  Biso   1.000  C
  H49      1.0000 0.70260  0.70380  0.91890  Biso   1.000  H
  C76      1.0000 0.58010  0.48550  0.90515  Biso   1.000  C
  H50      1.0000 0.56680  0.42940  0.92200  Biso   1.000  H
  C77      1.0000 0.61360  0.65320  0.85571  Biso   1.000  C
  H51      1.0000 0.62400  0.71040  0.83930  Biso   1.000  H
  C78      1.0000 0.53360  0.48940  0.85708  Biso   1.000  C
  H52      1.0000 0.49060  0.43540  0.84170  Biso   1.000  H
  C79      1.0000 0.55120  0.57370  0.83198  Biso   1.000  C
  C80      1.0000 0.50940  0.57630  0.77936  Biso   1.000  C
  N4       1.0000 0.69710  0.55800  0.97708  Biso   1.000  N
  O13      1.0000 0.56940  0.79630  0.15327  Biso   1.000  O
  O14      1.0000 0.43610  0.87880  0.09917  Biso   1.000  O
  O15      1.0000 0.54500  0.64770  0.75702  Biso   1.000  O
  O16      1.0000 0.44250  0.50760  0.75888  Biso   1.000  O
  C81      1.0000 0.15340  0.86220  0.83236  Biso   1.000  C
  C82      1.0000 0.28230  0.82770  0.84453  Biso   1.000  C
  H53      1.0000 0.29660  0.76370  0.85510  Biso   1.000  H
  C83      1.0000 0.13980  0.95700  0.81636  Biso   1.000  C
  H54      1.0000 0.05460  0.98330  0.80730  Biso   1.000  H
  C84      1.0000 0.25070  0.01320  0.81364  Biso   1.000  C
  H55      1.0000 0.23820  0.07750  0.80340  Biso   1.000  H
  C85      1.0000 0.39030  0.88720  0.84124  Biso   1.000  C
  H56      1.0000 0.47640  0.86260  0.85050  Biso   1.000  H
  C86      1.0000 0.86000  0.17000  0.83456  Biso   1.000  C
  H57      1.0000 0.88050  0.10920  0.84840  Biso   1.000  H
  C87      1.0000 0.70740  0.27900  0.79825  Biso   1.000  C
  H58      1.0000 0.61870  0.29480  0.78640  Biso   1.000  H
  C88      1.0000 0.96240  0.23540  0.83292  Biso   1.000  C
  H59      1.0000 0.04990  0.21840  0.84580  Biso   1.000  H
  C89      1.0000 0.80380  0.34820  0.79518  Biso   1.000  C
  H60      1.0000 0.78040  0.40900  0.78180  Biso   1.000  H
  C90      1.0000 0.93650  0.32620  0.81232  Biso   1.000  C
  C91      1.0000 0.04950  0.39390  0.80628  Biso   1.000  C
  H61      1.0000 0.08170  0.37700  0.77740  Biso   1.000  H
  H62      1.0000 0.12280  0.38380  0.83210  Biso   1.000  H
  C92      1.0000 0.98280  0.53400  0.84947  Biso   1.000  C
  H63      1.0000 0.98520  0.49560  0.87620  Biso   1.000  H
  C93      1.0000 0.12000  0.55580  0.79049  Biso   1.000  C
  H64      1.0000 0.20020  0.53080  0.78370  Biso   1.000  H
  C94      1.0000 0.94880  0.63920  0.84731  Biso   1.000  C
  H65      1.0000 0.86830  0.66540  0.85320  Biso   1.000  H
  C95      1.0000 0.08240  0.66280  0.78842  Biso   1.000  C
  H66      1.0000 0.07490  0.70170  0.76170  Biso   1.000  H
  C96      1.0000 0.03240  0.80070  0.83559  Biso   1.000  C
  H67      1.0000 0.96210  0.81690  0.80960  Biso   1.000  H
  H68      1.0000 0.99990  0.81640  0.86450  Biso   1.000  H
  N5       1.0000 0.73290  0.19020  0.81717  Biso   1.000  N
  N6       1.0000 0.37560  0.97940  0.82515  Biso   1.000  N
  N7       1.0000 0.01220  0.49700  0.80464  Biso   1.000  N
  N8       1.0000 0.05970  0.69620  0.83461  Biso   1.000  N
  Cd1      1.0000 0.55659  0.08175  0.81774  Biso   1.000  Cd
  C97      1.0000 0.15340  0.63780  0.33236  Biso   1.000  C
  C98      1.0000 0.28230  0.67230  0.34453  Biso   1.000  C
  H69      1.0000 0.29660  0.73630  0.35510  Biso   1.000  H
  C99      1.0000 0.13980  0.54300  0.31636  Biso   1.000  C
  H70      1.0000 0.05460  0.51670  0.30730  Biso   1.000  H
  C100     1.0000 0.25070  0.48680  0.31364  Biso   1.000  C
  H71      1.0000 0.23820  0.42250  0.30340  Biso   1.000  H
  C101     1.0000 0.39030  0.61280  0.34124  Biso   1.000  C
  H72      1.0000 0.47640  0.63740  0.35050  Biso   1.000  H
  C102     1.0000 0.86000  0.33000  0.33456  Biso   1.000  C
  H73      1.0000 0.88050  0.39080  0.34840  Biso   1.000  H
  C103     1.0000 0.70740  0.22100  0.29825  Biso   1.000  C
  H74      1.0000 0.61870  0.20520  0.28640  Biso   1.000  H
  C104     1.0000 0.96240  0.26460  0.33292  Biso   1.000  C
  H75      1.0000 0.04990  0.28160  0.34580  Biso   1.000  H
  C105     1.0000 0.80380  0.15180  0.29518  Biso   1.000  C
  H76      1.0000 0.78040  0.09100  0.28180  Biso   1.000  H
  C106     1.0000 0.93650  0.17380  0.31232  Biso   1.000  C
  C107     1.0000 0.04950  0.10610  0.30628  Biso   1.000  C
  H77      1.0000 0.08170  0.12300  0.27740  Biso   1.000  H
  H78      1.0000 0.12280  0.11620  0.33210  Biso   1.000  H
  C108     1.0000 0.98280  0.96600  0.34947  Biso   1.000  C
  H79      1.0000 0.98520  0.00440  0.37620  Biso   1.000  H
  C109     1.0000 0.12000  0.94420  0.29049  Biso   1.000  C
  H80      1.0000 0.20020  0.96920  0.28370  Biso   1.000  H
  C110     1.0000 0.94880  0.86080  0.34731  Biso   1.000  C
  H81      1.0000 0.86830  0.83460  0.35320  Biso   1.000  H
  C111     1.0000 0.08240  0.83720  0.28842  Biso   1.000  C
  H82      1.0000 0.07490  0.79830  0.26170  Biso   1.000  H
  C112     1.0000 0.03240  0.69930  0.33559  Biso   1.000  C
  H83      1.0000 0.96210  0.68310  0.30960  Biso   1.000  H
  H84      1.0000 0.99990  0.68360  0.36450  Biso   1.000  H
  N9       1.0000 0.73290  0.30980  0.31717  Biso   1.000  N
  N10      1.0000 0.37560  0.52060  0.32515  Biso   1.000  N
  N11      1.0000 0.01220  0.00300  0.30464  Biso   1.000  N
  N12      1.0000 0.05970  0.80380  0.33461  Biso   1.000  N
  Cd2      1.0000 0.55659  0.41825  0.31774  Biso   1.000  Cd
  C113     1.0000 0.84660  0.36220  0.66764  Biso   1.000  C
  C114     1.0000 0.71770  0.32770  0.65547  Biso   1.000  C
  H85      1.0000 0.70340  0.26370  0.64490  Biso   1.000  H
  C115     1.0000 0.86020  0.45700  0.68364  Biso   1.000  C
  H86      1.0000 0.94540  0.48330  0.69270  Biso   1.000  H
  C116     1.0000 0.74930  0.51320  0.68636  Biso   1.000  C
  H87      1.0000 0.76180  0.57750  0.69660  Biso   1.000  H
  C117     1.0000 0.60970  0.38720  0.65876  Biso   1.000  C
  H88      1.0000 0.52360  0.36260  0.64950  Biso   1.000  H
  C118     1.0000 0.14000  0.67000  0.66544  Biso   1.000  C
  H89      1.0000 0.11950  0.60920  0.65160  Biso   1.000  H
  C119     1.0000 0.29260  0.77900  0.70175  Biso   1.000  C
  H90      1.0000 0.38130  0.79480  0.71360  Biso   1.000  H
  C120     1.0000 0.03760  0.73540  0.66708  Biso   1.000  C
  H91      1.0000 0.95010  0.71840  0.65420  Biso   1.000  H
  C121     1.0000 0.19620  0.84820  0.70482  Biso   1.000  C
  H92      1.0000 0.21960  0.90900  0.71820  Biso   1.000  H
  C122     1.0000 0.06350  0.82620  0.68768  Biso   1.000  C
  C123     1.0000 0.95050  0.89390  0.69372  Biso   1.000  C
  H93      1.0000 0.91830  0.87700  0.72260  Biso   1.000  H
  H94      1.0000 0.87720  0.88380  0.66790  Biso   1.000  H
  C124     1.0000 0.01720  0.03400  0.65053  Biso   1.000  C
  H95      1.0000 0.01480  0.99560  0.62380  Biso   1.000  H
  C125     1.0000 0.88000  0.05580  0.70951  Biso   1.000  C
  H96      1.0000 0.79980  0.03080  0.71630  Biso   1.000  H
  C126     1.0000 0.05120  0.13920  0.65269  Biso   1.000  C
  H97      1.0000 0.13170  0.16540  0.64680  Biso   1.000  H
  C127     1.0000 0.91760  0.16280  0.71158  Biso   1.000  C
  H98      1.0000 0.92510  0.20170  0.73830  Biso   1.000  H
  C128     1.0000 0.96760  0.30070  0.66441  Biso   1.000  C
  H99      1.0000 0.03790  0.31690  0.69040  Biso   1.000  H
  H100     1.0000 0.00010  0.31640  0.63550  Biso   1.000  H
  N13      1.0000 0.26710  0.69020  0.68283  Biso   1.000  N
  N14      1.0000 0.62440  0.47940  0.67485  Biso   1.000  N
  N15      1.0000 0.98780  0.99700  0.69536  Biso   1.000  N
  N16      1.0000 0.94030  0.19620  0.66539  Biso   1.000  N
  Cd3      1.0000 0.44341  0.58175  0.68226  Biso   1.000  Cd
  C129     1.0000 0.84660  0.13780  0.16764  Biso   1.000  C
  C130     1.0000 0.71770  0.17230  0.15547  Biso   1.000  C
  H101     1.0000 0.70340  0.23630  0.14490  Biso   1.000  H
  C131     1.0000 0.86020  0.04300  0.18364  Biso   1.000  C
  H102     1.0000 0.94540  0.01670  0.19270  Biso   1.000  H
  C132     1.0000 0.74930  0.98680  0.18636  Biso   1.000  C
  H103     1.0000 0.76180  0.92250  0.19660  Biso   1.000  H
  C133     1.0000 0.60970  0.11280  0.15876  Biso   1.000  C
  H104     1.0000 0.52360  0.13740  0.14950  Biso   1.000  H
  C134     1.0000 0.14000  0.83000  0.16544  Biso   1.000  C
  H105     1.0000 0.11950  0.89080  0.15160  Biso   1.000  H
  C135     1.0000 0.29260  0.72100  0.20175  Biso   1.000  C
  H106     1.0000 0.38130  0.70520  0.21360  Biso   1.000  H
  C136     1.0000 0.03760  0.76460  0.16708  Biso   1.000  C
  H107     1.0000 0.95010  0.78160  0.15420  Biso   1.000  H
  C137     1.0000 0.19620  0.65180  0.20482  Biso   1.000  C
  H108     1.0000 0.21960  0.59100  0.21820  Biso   1.000  H
  C138     1.0000 0.06350  0.67380  0.18768  Biso   1.000  C
  C139     1.0000 0.95050  0.60610  0.19372  Biso   1.000  C
  H109     1.0000 0.91830  0.62300  0.22260  Biso   1.000  H
  H110     1.0000 0.87720  0.61620  0.16790  Biso   1.000  H
  C140     1.0000 0.01720  0.46600  0.15053  Biso   1.000  C
  H111     1.0000 0.01480  0.50440  0.12380  Biso   1.000  H
  C141     1.0000 0.88000  0.44420  0.20951  Biso   1.000  C
  H112     1.0000 0.79980  0.46920  0.21630  Biso   1.000  H
  C142     1.0000 0.05120  0.36080  0.15269  Biso   1.000  C
  H113     1.0000 0.13170  0.33460  0.14680  Biso   1.000  H
  C143     1.0000 0.91760  0.33720  0.21158  Biso   1.000  C
  H114     1.0000 0.92510  0.29830  0.23830  Biso   1.000  H
  C144     1.0000 0.96760  0.19930  0.16441  Biso   1.000  C
  H115     1.0000 0.03790  0.18310  0.19040  Biso   1.000  H
  H116     1.0000 0.00010  0.18360  0.13550  Biso   1.000  H
  N17      1.0000 0.26710  0.80980  0.18283  Biso   1.000  N
  N18      1.0000 0.62440  0.02060  0.17485  Biso   1.000  N
  N19      1.0000 0.98780  0.50300  0.19536  Biso   1.000  N
  N20      1.0000 0.94030  0.30380  0.16539  Biso   1.000  N
  Cd4      1.0000 0.44341  0.91825  0.18226  Biso   1.000  Cd
