data_image0
_cell_length_a       18.5486
_cell_length_b       18.5486
_cell_length_c       9.8538
_cell_angle_alpha    90
_cell_angle_beta     90
_cell_angle_gamma    120

_symmetry_space_group_name_H-M    "P 1"
_symmetry_int_tables_number       1

loop_
  _symmetry_equiv_pos_as_xyz
  'x, y, z'

loop_
  _atom_site_label
  _atom_site_occupancy
  _atom_site_fract_x
  _atom_site_fract_y
  _atom_site_fract_z
  _atom_site_thermal_displace_type
  _atom_site_B_iso_or_equiv
  _atom_site_type_symbol
  C1       1.0000 0.37299  0.21578  0.33107  Biso   1.000  C
  H1       1.0000 0.40550  0.21650  0.25890  Biso   1.000  H
  N1       1.0000 0.43010  0.21940  0.23510  Biso   1.000  N
  H2       1.0000 0.45960  0.26460  0.19000  Biso   1.000  H
  H3       1.0000 0.43560  0.17650  0.22080  Biso   1.000  H
  N2       1.0000 0.35947  0.27741  0.36023  Biso   1.000  N
  C2       1.0000 0.03966  0.54911  0.66440  Biso   1.000  C
  H4       1.0000 0.07217  0.54983  0.59223  Biso   1.000  H
  N3       1.0000 0.09677  0.55273  0.56843  Biso   1.000  N
  H5       1.0000 0.12627  0.59793  0.52333  Biso   1.000  H
  H6       1.0000 0.10227  0.50983  0.55413  Biso   1.000  H
  N4       1.0000 0.02614  0.61074  0.69356  Biso   1.000  N
  C3       1.0000 0.70632  0.88245  0.99774  Biso   1.000  C
  H7       1.0000 0.73883  0.88317  0.92557  Biso   1.000  H
  N5       1.0000 0.76343  0.88607  0.90177  Biso   1.000  N
  H8       1.0000 0.79293  0.93127  0.85667  Biso   1.000  H
  H9       1.0000 0.76893  0.84317  0.88747  Biso   1.000  H
  N6       1.0000 0.69280  0.94408  0.02690  Biso   1.000  N
  C4       1.0000 0.78422  0.15721  0.33107  Biso   1.000  C
  H10      1.0000 0.78350  0.18900  0.25890  Biso   1.000  H
  N7       1.0000 0.78060  0.21070  0.23510  Biso   1.000  N
  H11      1.0000 0.73540  0.19500  0.19000  Biso   1.000  H
  H12      1.0000 0.82350  0.25910  0.22080  Biso   1.000  H
  N8       1.0000 0.72259  0.08206  0.36023  Biso   1.000  N
  C5       1.0000 0.45089  0.49054  0.66440  Biso   1.000  C
  H13      1.0000 0.45017  0.52233  0.59223  Biso   1.000  H
  N9       1.0000 0.44727  0.54403  0.56843  Biso   1.000  N
  H14      1.0000 0.40207  0.52833  0.52333  Biso   1.000  H
  H15      1.0000 0.49017  0.59243  0.55413  Biso   1.000  H
  N10      1.0000 0.38926  0.41539  0.69356  Biso   1.000  N
  C6       1.0000 0.11755  0.82388  0.99774  Biso   1.000  C
  H16      1.0000 0.11683  0.85567  0.92557  Biso   1.000  H
  N11      1.0000 0.11393  0.87737  0.90177  Biso   1.000  N
  H17      1.0000 0.06873  0.86167  0.85667  Biso   1.000  H
  H18      1.0000 0.15683  0.92577  0.88747  Biso   1.000  H
  N12      1.0000 0.05592  0.74873  0.02690  Biso   1.000  N
  C7       1.0000 0.84279  0.62701  0.33107  Biso   1.000  C
  H19      1.0000 0.81100  0.59450  0.25890  Biso   1.000  H
  N13      1.0000 0.78930  0.56990  0.23510  Biso   1.000  N
  H20      1.0000 0.80500  0.54040  0.19000  Biso   1.000  H
  H21      1.0000 0.74090  0.56440  0.22080  Biso   1.000  H
  N14      1.0000 0.91794  0.64053  0.36023  Biso   1.000  N
  C8       1.0000 0.50946  0.96034  0.66440  Biso   1.000  C
  H22      1.0000 0.47767  0.92783  0.59223  Biso   1.000  H
  N15      1.0000 0.45597  0.90323  0.56843  Biso   1.000  N
  H23      1.0000 0.47167  0.87373  0.52333  Biso   1.000  H
  H24      1.0000 0.40757  0.89773  0.55413  Biso   1.000  H
  N16      1.0000 0.58461  0.97386  0.69356  Biso   1.000  N
  C9       1.0000 0.17612  0.29368  0.99774  Biso   1.000  C
  H25      1.0000 0.14433  0.26117  0.92557  Biso   1.000  H
  N17      1.0000 0.12263  0.23657  0.90177  Biso   1.000  N
  H26      1.0000 0.13833  0.20707  0.85667  Biso   1.000  H
  H27      1.0000 0.07423  0.23107  0.88747  Biso   1.000  H
  N18      1.0000 0.25127  0.30720  0.02690  Biso   1.000  N
  C10      1.0000 0.21578  0.37299  0.16893  Biso   1.000  C
  H28      1.0000 0.21650  0.40550  0.24110  Biso   1.000  H
  N19      1.0000 0.21940  0.43010  0.26490  Biso   1.000  N
  H29      1.0000 0.26460  0.45960  0.31000  Biso   1.000  H
  H30      1.0000 0.17650  0.43560  0.27920  Biso   1.000  H
  N20      1.0000 0.27741  0.35947  0.13977  Biso   1.000  N
  C11      1.0000 0.88245  0.70632  0.50226  Biso   1.000  C
  H31      1.0000 0.88317  0.73883  0.57443  Biso   1.000  H
  N21      1.0000 0.88607  0.76343  0.59823  Biso   1.000  N
  H32      1.0000 0.93127  0.79293  0.64333  Biso   1.000  H
  H33      1.0000 0.84317  0.76893  0.61253  Biso   1.000  H
  N22      1.0000 0.94408  0.69280  0.47310  Biso   1.000  N
  C12      1.0000 0.54911  0.03966  0.83560  Biso   1.000  C
  H34      1.0000 0.54983  0.07217  0.90777  Biso   1.000  H
  N23      1.0000 0.55273  0.09677  0.93157  Biso   1.000  N
  H35      1.0000 0.59793  0.12627  0.97667  Biso   1.000  H
  H36      1.0000 0.50983  0.10227  0.94587  Biso   1.000  H
  N24      1.0000 0.61074  0.02614  0.80644  Biso   1.000  N
  C13      1.0000 0.15721  0.78422  0.16893  Biso   1.000  C
  H37      1.0000 0.18900  0.78350  0.24110  Biso   1.000  H
  N25      1.0000 0.21070  0.78060  0.26490  Biso   1.000  N
  H38      1.0000 0.19500  0.73540  0.31000  Biso   1.000  H
  H39      1.0000 0.25910  0.82350  0.27920  Biso   1.000  H
  N26      1.0000 0.08206  0.72259  0.13977  Biso   1.000  N
  C14      1.0000 0.82388  0.11755  0.50226  Biso   1.000  C
  H40      1.0000 0.85567  0.11683  0.57443  Biso   1.000  H
  N27      1.0000 0.87737  0.11393  0.59823  Biso   1.000  N
  H41      1.0000 0.86167  0.06873  0.64333  Biso   1.000  H
  H42      1.0000 0.92577  0.15683  0.61253  Biso   1.000  H
  N28      1.0000 0.74873  0.05592  0.47310  Biso   1.000  N
  C15      1.0000 0.49054  0.45089  0.83560  Biso   1.000  C
  H43      1.0000 0.52233  0.45017  0.90777  Biso   1.000  H
  N29      1.0000 0.54403  0.44727  0.93157  Biso   1.000  N
  H44      1.0000 0.52833  0.40207  0.97667  Biso   1.000  H
  H45      1.0000 0.59243  0.49017  0.94587  Biso   1.000  H
  N30      1.0000 0.41539  0.38926  0.80644  Biso   1.000  N
  C16      1.0000 0.62701  0.84279  0.16893  Biso   1.000  C
  H46      1.0000 0.59450  0.81100  0.24110  Biso   1.000  H
  N31      1.0000 0.56990  0.78930  0.26490  Biso   1.000  N
  H47      1.0000 0.54040  0.80500  0.31000  Biso   1.000  H
  H48      1.0000 0.56440  0.74090  0.27920  Biso   1.000  H
  N32      1.0000 0.64053  0.91794  0.13977  Biso   1.000  N
  C17      1.0000 0.29368  0.17612  0.50226  Biso   1.000  C
  H49      1.0000 0.26117  0.14433  0.57443  Biso   1.000  H
  N33      1.0000 0.23657  0.12263  0.59823  Biso   1.000  N
  H50      1.0000 0.20707  0.13833  0.64333  Biso   1.000  H
  H51      1.0000 0.23107  0.07423  0.61253  Biso   1.000  H
  N34      1.0000 0.30720  0.25127  0.47310  Biso   1.000  N
  C18      1.0000 0.96034  0.50946  0.83560  Biso   1.000  C
  H52      1.0000 0.92783  0.47767  0.90777  Biso   1.000  H
  N35      1.0000 0.90323  0.45597  0.93157  Biso   1.000  N
  H53      1.0000 0.87373  0.47167  0.97667  Biso   1.000  H
  H54      1.0000 0.89773  0.40757  0.94587  Biso   1.000  H
  N36      1.0000 0.97386  0.58461  0.80644  Biso   1.000  N
  C19      1.0000 0.62701  0.78422  0.66893  Biso   1.000  C
  H55      1.0000 0.59450  0.78350  0.74110  Biso   1.000  H
  N37      1.0000 0.56990  0.78060  0.76490  Biso   1.000  N
  H56      1.0000 0.54040  0.73540  0.81000  Biso   1.000  H
  H57      1.0000 0.56440  0.82350  0.77920  Biso   1.000  H
  N38      1.0000 0.64053  0.72259  0.63977  Biso   1.000  N
  C20      1.0000 0.29368  0.11755  0.00226  Biso   1.000  C
  H58      1.0000 0.26117  0.11683  0.07443  Biso   1.000  H
  N39      1.0000 0.23657  0.11393  0.09823  Biso   1.000  N
  H59      1.0000 0.20707  0.06873  0.14333  Biso   1.000  H
  H60      1.0000 0.23107  0.15683  0.11253  Biso   1.000  H
  N40      1.0000 0.30720  0.05592  0.97310  Biso   1.000  N
  C21      1.0000 0.96034  0.45089  0.33560  Biso   1.000  C
  H61      1.0000 0.92783  0.45017  0.40777  Biso   1.000  H
  N41      1.0000 0.90323  0.44727  0.43157  Biso   1.000  N
  H62      1.0000 0.87373  0.40207  0.47667  Biso   1.000  H
  H63      1.0000 0.89773  0.49017  0.44587  Biso   1.000  H
  N42      1.0000 0.97386  0.38926  0.30644  Biso   1.000  N
  C22      1.0000 0.21578  0.84279  0.66893  Biso   1.000  C
  H64      1.0000 0.21650  0.81100  0.74110  Biso   1.000  H
  N43      1.0000 0.21940  0.78930  0.76490  Biso   1.000  N
  H65      1.0000 0.26460  0.80500  0.81000  Biso   1.000  H
  H66      1.0000 0.17650  0.74090  0.77920  Biso   1.000  H
  N44      1.0000 0.27741  0.91794  0.63977  Biso   1.000  N
  C23      1.0000 0.88245  0.17612  0.00226  Biso   1.000  C
  H67      1.0000 0.88317  0.14433  0.07443  Biso   1.000  H
  N45      1.0000 0.88607  0.12263  0.09823  Biso   1.000  N
  H68      1.0000 0.93127  0.13833  0.14333  Biso   1.000  H
  H69      1.0000 0.84317  0.07423  0.11253  Biso   1.000  H
  N46      1.0000 0.94408  0.25127  0.97310  Biso   1.000  N
  C24      1.0000 0.54911  0.50946  0.33560  Biso   1.000  C
  H70      1.0000 0.54983  0.47767  0.40777  Biso   1.000  H
  N47      1.0000 0.55273  0.45597  0.43157  Biso   1.000  N
  H71      1.0000 0.59793  0.47167  0.47667  Biso   1.000  H
  H72      1.0000 0.50983  0.40757  0.44587  Biso   1.000  H
  N48      1.0000 0.61074  0.58461  0.30644  Biso   1.000  N
  C25      1.0000 0.15721  0.37299  0.66893  Biso   1.000  C
  H73      1.0000 0.18900  0.40550  0.74110  Biso   1.000  H
  N49      1.0000 0.21070  0.43010  0.76490  Biso   1.000  N
  H74      1.0000 0.19500  0.45960  0.81000  Biso   1.000  H
  H75      1.0000 0.25910  0.43560  0.77920  Biso   1.000  H
  N50      1.0000 0.08206  0.35947  0.63977  Biso   1.000  N
  C26      1.0000 0.82388  0.70632  0.00226  Biso   1.000  C
  H76      1.0000 0.85567  0.73883  0.07443  Biso   1.000  H
  N51      1.0000 0.87737  0.76343  0.09823  Biso   1.000  N
  H77      1.0000 0.86167  0.79293  0.14333  Biso   1.000  H
  H78      1.0000 0.92577  0.76893  0.11253  Biso   1.000  H
  N52      1.0000 0.74873  0.69280  0.97310  Biso   1.000  N
  C27      1.0000 0.49054  0.03966  0.33560  Biso   1.000  C
  H79      1.0000 0.52233  0.07217  0.40777  Biso   1.000  H
  N53      1.0000 0.54403  0.09677  0.43157  Biso   1.000  N
  H80      1.0000 0.52833  0.12627  0.47667  Biso   1.000  H
  H81      1.0000 0.59243  0.10227  0.44587  Biso   1.000  H
  N54      1.0000 0.41539  0.02614  0.30644  Biso   1.000  N
  C28      1.0000 0.78422  0.62701  0.83107  Biso   1.000  C
  H82      1.0000 0.78350  0.59450  0.75890  Biso   1.000  H
  N55      1.0000 0.78060  0.56990  0.73510  Biso   1.000  N
  H83      1.0000 0.73540  0.54040  0.69000  Biso   1.000  H
  H84      1.0000 0.82350  0.56440  0.72080  Biso   1.000  H
  N56      1.0000 0.72259  0.64053  0.86023  Biso   1.000  N
  C29      1.0000 0.45089  0.96034  0.16440  Biso   1.000  C
  H85      1.0000 0.45017  0.92783  0.09223  Biso   1.000  H
  N57      1.0000 0.44727  0.90323  0.06843  Biso   1.000  N
  H86      1.0000 0.40207  0.87373  0.02333  Biso   1.000  H
  H87      1.0000 0.49017  0.89773  0.05413  Biso   1.000  H
  N58      1.0000 0.38926  0.97386  0.19356  Biso   1.000  N
  C30      1.0000 0.11755  0.29368  0.49774  Biso   1.000  C
  H88      1.0000 0.11683  0.26117  0.42557  Biso   1.000  H
  N59      1.0000 0.11393  0.23657  0.40177  Biso   1.000  N
  H89      1.0000 0.06873  0.20707  0.35667  Biso   1.000  H
  H90      1.0000 0.15683  0.23107  0.38747  Biso   1.000  H
  N60      1.0000 0.05592  0.30720  0.52690  Biso   1.000  N
  C31      1.0000 0.84279  0.21578  0.83107  Biso   1.000  C
  H91      1.0000 0.81100  0.21650  0.75890  Biso   1.000  H
  N61      1.0000 0.78930  0.21940  0.73510  Biso   1.000  N
  H92      1.0000 0.80500  0.26460  0.69000  Biso   1.000  H
  H93      1.0000 0.74090  0.17650  0.72080  Biso   1.000  H
  N62      1.0000 0.91794  0.27741  0.86023  Biso   1.000  N
  C32      1.0000 0.50946  0.54911  0.16440  Biso   1.000  C
  H94      1.0000 0.47767  0.54983  0.09223  Biso   1.000  H
  N63      1.0000 0.45597  0.55273  0.06843  Biso   1.000  N
  H95      1.0000 0.47167  0.59793  0.02333  Biso   1.000  H
  H96      1.0000 0.40757  0.50983  0.05413  Biso   1.000  H
  N64      1.0000 0.58461  0.61074  0.19356  Biso   1.000  N
  C33      1.0000 0.17612  0.88245  0.49774  Biso   1.000  C
  H97      1.0000 0.14433  0.88317  0.42557  Biso   1.000  H
  N65      1.0000 0.12263  0.88607  0.40177  Biso   1.000  N
  H98      1.0000 0.13833  0.93127  0.35667  Biso   1.000  H
  H99      1.0000 0.07423  0.84317  0.38747  Biso   1.000  H
  N66      1.0000 0.25127  0.94408  0.52690  Biso   1.000  N
  C34      1.0000 0.37299  0.15721  0.83107  Biso   1.000  C
  H100     1.0000 0.40550  0.18900  0.75890  Biso   1.000  H
  N67      1.0000 0.43010  0.21070  0.73510  Biso   1.000  N
  H101     1.0000 0.45960  0.19500  0.69000  Biso   1.000  H
  H102     1.0000 0.43560  0.25910  0.72080  Biso   1.000  H
  N68      1.0000 0.35947  0.08206  0.86023  Biso   1.000  N
  C35      1.0000 0.03966  0.49054  0.16440  Biso   1.000  C
  H103     1.0000 0.07217  0.52233  0.09223  Biso   1.000  H
  N69      1.0000 0.09677  0.54403  0.06843  Biso   1.000  N
  H104     1.0000 0.12627  0.52833  0.02333  Biso   1.000  H
  H105     1.0000 0.10227  0.59243  0.05413  Biso   1.000  H
  N70      1.0000 0.02614  0.41539  0.19356  Biso   1.000  N
  C36      1.0000 0.70632  0.82388  0.49774  Biso   1.000  C
  H106     1.0000 0.73883  0.85567  0.42557  Biso   1.000  H
  N71      1.0000 0.76343  0.87737  0.40177  Biso   1.000  N
  H107     1.0000 0.79293  0.86167  0.35667  Biso   1.000  H
  H108     1.0000 0.76893  0.92577  0.38747  Biso   1.000  H
  N72      1.0000 0.69280  0.74873  0.52690  Biso   1.000  N
  Zn1      1.0000 0.37641  0.37641  0.25000  Biso   1.000  Zn
  Zn2      1.0000 0.04308  0.70975  0.58333  Biso   1.000  Zn
  Zn3      1.0000 0.70975  0.04308  0.91667  Biso   1.000  Zn
  Zn4      1.0000 0.62359  0.00000  0.25000  Biso   1.000  Zn
  Zn5      1.0000 0.29025  0.33333  0.58333  Biso   1.000  Zn
  Zn6      1.0000 0.95692  0.66667  0.91667  Biso   1.000  Zn
  Zn7      1.0000 0.00000  0.62359  0.25000  Biso   1.000  Zn
  Zn8      1.0000 0.66667  0.95692  0.58333  Biso   1.000  Zn
  Zn9      1.0000 0.33333  0.29025  0.91667  Biso   1.000  Zn
  Zn10     1.0000 0.62359  0.62359  0.75000  Biso   1.000  Zn
  Zn11     1.0000 0.29025  0.95692  0.08333  Biso   1.000  Zn
  Zn12     1.0000 0.95692  0.29025  0.41667  Biso   1.000  Zn
  Zn13     1.0000 0.37641  0.00000  0.75000  Biso   1.000  Zn
  Zn14     1.0000 0.04308  0.33333  0.08333  Biso   1.000  Zn
  Zn15     1.0000 0.70975  0.66667  0.41667  Biso   1.000  Zn
  Zn16     1.0000 0.00000  0.37641  0.75000  Biso   1.000  Zn
  Zn17     1.0000 0.66667  0.70975  0.08333  Biso   1.000  Zn
  Zn18     1.0000 0.33333  0.04308  0.41667  Biso   1.000  Zn
  F1       1.0000 0.41214  0.33333  0.08333  Biso   1.000  F
  F2       1.0000 0.66667  0.07880  0.08333  Biso   1.000  F
  F3       1.0000 0.33333  0.41214  0.41667  Biso   1.000  F
  F4       1.0000 0.92120  0.58786  0.08333  Biso   1.000  F
  F5       1.0000 0.25453  0.25453  0.75000  Biso   1.000  F
  F6       1.0000 0.00000  0.74547  0.75000  Biso   1.000  F
  F7       1.0000 0.07880  0.66667  0.41667  Biso   1.000  F
  F8       1.0000 0.74547  0.00000  0.75000  Biso   1.000  F
  F9       1.0000 0.58786  0.92120  0.41667  Biso   1.000  F
  F10      1.0000 0.58786  0.66667  0.91667  Biso   1.000  F
  F11      1.0000 0.25453  0.00000  0.25000  Biso   1.000  F
  F12      1.0000 0.92120  0.33333  0.58333  Biso   1.000  F
  F13      1.0000 0.33333  0.92120  0.91667  Biso   1.000  F
  F14      1.0000 0.00000  0.25453  0.25000  Biso   1.000  F
  F15      1.0000 0.07880  0.41214  0.91667  Biso   1.000  F
  F16      1.0000 0.74547  0.74547  0.25000  Biso   1.000  F
  F17      1.0000 0.66667  0.58786  0.58333  Biso   1.000  F
  F18      1.0000 0.41214  0.07880  0.58333  Biso   1.000  F
  N73      1.0000 0.33333  0.15071  0.41667  Biso   1.000  N
  N74      1.0000 0.00000  0.48404  0.75000  Biso   1.000  N
  N75      1.0000 0.84929  0.18263  0.41667  Biso   1.000  N
  N76      1.0000 0.51596  0.51596  0.75000  Biso   1.000  N
  N77      1.0000 0.81737  0.66667  0.41667  Biso   1.000  N
  N78      1.0000 0.48404  0.00000  0.75000  Biso   1.000  N
  N79      1.0000 0.15071  0.33333  0.08333  Biso   1.000  N
  N80      1.0000 0.18263  0.84929  0.08333  Biso   1.000  N
  N81      1.0000 0.66667  0.81737  0.08333  Biso   1.000  N
  N82      1.0000 0.66667  0.84929  0.58333  Biso   1.000  N
  N83      1.0000 0.15071  0.81737  0.58333  Biso   1.000  N
  N84      1.0000 0.18263  0.33333  0.58333  Biso   1.000  N
  N85      1.0000 0.84929  0.66667  0.91667  Biso   1.000  N
  N86      1.0000 0.51596  0.00000  0.25000  Biso   1.000  N
  N87      1.0000 0.81737  0.15071  0.91667  Biso   1.000  N
  N88      1.0000 0.48404  0.48404  0.25000  Biso   1.000  N
  N89      1.0000 0.33333  0.18263  0.91667  Biso   1.000  N
  N90      1.0000 0.00000  0.51596  0.25000  Biso   1.000  N
