data_image0
_cell_length_a       18.5059
_cell_length_b       18.5059
_cell_length_c       9.9168
_cell_angle_alpha    90
_cell_angle_beta     90
_cell_angle_gamma    120

_symmetry_space_group_name_H-M    "P 1"
_symmetry_int_tables_number       1

loop_
  _symmetry_equiv_pos_as_xyz
  'x, y, z'

loop_
  _atom_site_label
  _atom_site_occupancy
  _atom_site_fract_x
  _atom_site_fract_y
  _atom_site_fract_z
  _atom_site_thermal_displace_type
  _atom_site_B_iso_or_equiv
  _atom_site_type_symbol
  C1       1.0000 0.37251  0.21493  0.33085  Biso   1.000  C
  H1       1.0000 0.40500  0.21570  0.25870  Biso   1.000  H
  N1       1.0000 0.42970  0.21870  0.23480  Biso   1.000  N
  H2       1.0000 0.45930  0.26390  0.18980  Biso   1.000  H
  H3       1.0000 0.43520  0.17580  0.22060  Biso   1.000  H
  N2       1.0000 0.35905  0.27668  0.35996  Biso   1.000  N
  C2       1.0000 0.03918  0.54826  0.66418  Biso   1.000  C
  H4       1.0000 0.07167  0.54903  0.59203  Biso   1.000  H
  N3       1.0000 0.09637  0.55203  0.56813  Biso   1.000  N
  H5       1.0000 0.12597  0.59723  0.52313  Biso   1.000  H
  H6       1.0000 0.10187  0.50913  0.55393  Biso   1.000  H
  N4       1.0000 0.02572  0.61001  0.69329  Biso   1.000  N
  C3       1.0000 0.70584  0.88160  0.99752  Biso   1.000  C
  H7       1.0000 0.73833  0.88237  0.92537  Biso   1.000  H
  N5       1.0000 0.76303  0.88537  0.90147  Biso   1.000  N
  H8       1.0000 0.79263  0.93057  0.85647  Biso   1.000  H
  H9       1.0000 0.76853  0.84247  0.88727  Biso   1.000  H
  N6       1.0000 0.69238  0.94335  0.02663  Biso   1.000  N
  C4       1.0000 0.78507  0.15758  0.33085  Biso   1.000  C
  H10      1.0000 0.78430  0.18930  0.25870  Biso   1.000  H
  N7       1.0000 0.78130  0.21100  0.23480  Biso   1.000  N
  H11      1.0000 0.73610  0.19540  0.18980  Biso   1.000  H
  H12      1.0000 0.82420  0.25940  0.22060  Biso   1.000  H
  N8       1.0000 0.72332  0.08237  0.35996  Biso   1.000  N
  C5       1.0000 0.45174  0.49091  0.66418  Biso   1.000  C
  H13      1.0000 0.45097  0.52263  0.59203  Biso   1.000  H
  N9       1.0000 0.44797  0.54433  0.56813  Biso   1.000  N
  H14      1.0000 0.40277  0.52873  0.52313  Biso   1.000  H
  H15      1.0000 0.49087  0.59273  0.55393  Biso   1.000  H
  N10      1.0000 0.38999  0.41570  0.69329  Biso   1.000  N
  C6       1.0000 0.11840  0.82425  0.99752  Biso   1.000  C
  H16      1.0000 0.11763  0.85597  0.92537  Biso   1.000  H
  N11      1.0000 0.11463  0.87767  0.90147  Biso   1.000  N
  H17      1.0000 0.06943  0.86207  0.85647  Biso   1.000  H
  H18      1.0000 0.15753  0.92607  0.88727  Biso   1.000  H
  N12      1.0000 0.05665  0.74904  0.02663  Biso   1.000  N
  C7       1.0000 0.84242  0.62749  0.33085  Biso   1.000  C
  H19      1.0000 0.81070  0.59500  0.25870  Biso   1.000  H
  N13      1.0000 0.78900  0.57030  0.23480  Biso   1.000  N
  H20      1.0000 0.80460  0.54070  0.18980  Biso   1.000  H
  H21      1.0000 0.74060  0.56480  0.22060  Biso   1.000  H
  N14      1.0000 0.91763  0.64095  0.35996  Biso   1.000  N
  C8       1.0000 0.50909  0.96082  0.66418  Biso   1.000  C
  H22      1.0000 0.47737  0.92833  0.59203  Biso   1.000  H
  N15      1.0000 0.45567  0.90363  0.56813  Biso   1.000  N
  H23      1.0000 0.47127  0.87403  0.52313  Biso   1.000  H
  H24      1.0000 0.40727  0.89813  0.55393  Biso   1.000  H
  N16      1.0000 0.58430  0.97428  0.69329  Biso   1.000  N
  C9       1.0000 0.17575  0.29416  0.99752  Biso   1.000  C
  H25      1.0000 0.14403  0.26167  0.92537  Biso   1.000  H
  N17      1.0000 0.12233  0.23697  0.90147  Biso   1.000  N
  H26      1.0000 0.13793  0.20737  0.85647  Biso   1.000  H
  H27      1.0000 0.07393  0.23147  0.88727  Biso   1.000  H
  N18      1.0000 0.25096  0.30762  0.02663  Biso   1.000  N
  C10      1.0000 0.21493  0.37251  0.16915  Biso   1.000  C
  H28      1.0000 0.21570  0.40500  0.24130  Biso   1.000  H
  N19      1.0000 0.21870  0.42970  0.26520  Biso   1.000  N
  H29      1.0000 0.26390  0.45930  0.31020  Biso   1.000  H
  H30      1.0000 0.17580  0.43520  0.27940  Biso   1.000  H
  N20      1.0000 0.27668  0.35905  0.14004  Biso   1.000  N
  C11      1.0000 0.88160  0.70584  0.50248  Biso   1.000  C
  H31      1.0000 0.88237  0.73833  0.57463  Biso   1.000  H
  N21      1.0000 0.88537  0.76303  0.59853  Biso   1.000  N
  H32      1.0000 0.93057  0.79263  0.64353  Biso   1.000  H
  H33      1.0000 0.84247  0.76853  0.61273  Biso   1.000  H
  N22      1.0000 0.94335  0.69238  0.47337  Biso   1.000  N
  C12      1.0000 0.54826  0.03918  0.83582  Biso   1.000  C
  H34      1.0000 0.54903  0.07167  0.90797  Biso   1.000  H
  N23      1.0000 0.55203  0.09637  0.93187  Biso   1.000  N
  H35      1.0000 0.59723  0.12597  0.97687  Biso   1.000  H
  H36      1.0000 0.50913  0.10187  0.94607  Biso   1.000  H
  N24      1.0000 0.61001  0.02572  0.80671  Biso   1.000  N
  C13      1.0000 0.15758  0.78507  0.16915  Biso   1.000  C
  H37      1.0000 0.18930  0.78430  0.24130  Biso   1.000  H
  N25      1.0000 0.21100  0.78130  0.26520  Biso   1.000  N
  H38      1.0000 0.19540  0.73610  0.31020  Biso   1.000  H
  H39      1.0000 0.25940  0.82420  0.27940  Biso   1.000  H
  N26      1.0000 0.08237  0.72332  0.14004  Biso   1.000  N
  C14      1.0000 0.82425  0.11840  0.50248  Biso   1.000  C
  H40      1.0000 0.85597  0.11763  0.57463  Biso   1.000  H
  N27      1.0000 0.87767  0.11463  0.59853  Biso   1.000  N
  H41      1.0000 0.86207  0.06943  0.64353  Biso   1.000  H
  H42      1.0000 0.92607  0.15753  0.61273  Biso   1.000  H
  N28      1.0000 0.74904  0.05665  0.47337  Biso   1.000  N
  C15      1.0000 0.49091  0.45174  0.83582  Biso   1.000  C
  H43      1.0000 0.52263  0.45097  0.90797  Biso   1.000  H
  N29      1.0000 0.54433  0.44797  0.93187  Biso   1.000  N
  H44      1.0000 0.52873  0.40277  0.97687  Biso   1.000  H
  H45      1.0000 0.59273  0.49087  0.94607  Biso   1.000  H
  N30      1.0000 0.41570  0.38999  0.80671  Biso   1.000  N
  C16      1.0000 0.62749  0.84242  0.16915  Biso   1.000  C
  H46      1.0000 0.59500  0.81070  0.24130  Biso   1.000  H
  N31      1.0000 0.57030  0.78900  0.26520  Biso   1.000  N
  H47      1.0000 0.54070  0.80460  0.31020  Biso   1.000  H
  H48      1.0000 0.56480  0.74060  0.27940  Biso   1.000  H
  N32      1.0000 0.64095  0.91763  0.14004  Biso   1.000  N
  C17      1.0000 0.29416  0.17575  0.50248  Biso   1.000  C
  H49      1.0000 0.26167  0.14403  0.57463  Biso   1.000  H
  N33      1.0000 0.23697  0.12233  0.59853  Biso   1.000  N
  H50      1.0000 0.20737  0.13793  0.64353  Biso   1.000  H
  H51      1.0000 0.23147  0.07393  0.61273  Biso   1.000  H
  N34      1.0000 0.30762  0.25096  0.47337  Biso   1.000  N
  C18      1.0000 0.96082  0.50909  0.83582  Biso   1.000  C
  H52      1.0000 0.92833  0.47737  0.90797  Biso   1.000  H
  N35      1.0000 0.90363  0.45567  0.93187  Biso   1.000  N
  H53      1.0000 0.87403  0.47127  0.97687  Biso   1.000  H
  H54      1.0000 0.89813  0.40727  0.94607  Biso   1.000  H
  N36      1.0000 0.97428  0.58430  0.80671  Biso   1.000  N
  C19      1.0000 0.62749  0.78507  0.66915  Biso   1.000  C
  H55      1.0000 0.59500  0.78430  0.74130  Biso   1.000  H
  N37      1.0000 0.57030  0.78130  0.76520  Biso   1.000  N
  H56      1.0000 0.54070  0.73610  0.81020  Biso   1.000  H
  H57      1.0000 0.56480  0.82420  0.77940  Biso   1.000  H
  N38      1.0000 0.64095  0.72332  0.64004  Biso   1.000  N
  C20      1.0000 0.29416  0.11840  0.00248  Biso   1.000  C
  H58      1.0000 0.26167  0.11763  0.07463  Biso   1.000  H
  N39      1.0000 0.23697  0.11463  0.09853  Biso   1.000  N
  H59      1.0000 0.20737  0.06943  0.14353  Biso   1.000  H
  H60      1.0000 0.23147  0.15753  0.11273  Biso   1.000  H
  N40      1.0000 0.30762  0.05665  0.97337  Biso   1.000  N
  C21      1.0000 0.96082  0.45174  0.33582  Biso   1.000  C
  H61      1.0000 0.92833  0.45097  0.40797  Biso   1.000  H
  N41      1.0000 0.90363  0.44797  0.43187  Biso   1.000  N
  H62      1.0000 0.87403  0.40277  0.47687  Biso   1.000  H
  H63      1.0000 0.89813  0.49087  0.44607  Biso   1.000  H
  N42      1.0000 0.97428  0.38999  0.30671  Biso   1.000  N
  C22      1.0000 0.21493  0.84242  0.66915  Biso   1.000  C
  H64      1.0000 0.21570  0.81070  0.74130  Biso   1.000  H
  N43      1.0000 0.21870  0.78900  0.76520  Biso   1.000  N
  H65      1.0000 0.26390  0.80460  0.81020  Biso   1.000  H
  H66      1.0000 0.17580  0.74060  0.77940  Biso   1.000  H
  N44      1.0000 0.27668  0.91763  0.64004  Biso   1.000  N
  C23      1.0000 0.88160  0.17575  0.00248  Biso   1.000  C
  H67      1.0000 0.88237  0.14403  0.07463  Biso   1.000  H
  N45      1.0000 0.88537  0.12233  0.09853  Biso   1.000  N
  H68      1.0000 0.93057  0.13793  0.14353  Biso   1.000  H
  H69      1.0000 0.84247  0.07393  0.11273  Biso   1.000  H
  N46      1.0000 0.94335  0.25096  0.97337  Biso   1.000  N
  C24      1.0000 0.54826  0.50909  0.33582  Biso   1.000  C
  H70      1.0000 0.54903  0.47737  0.40797  Biso   1.000  H
  N47      1.0000 0.55203  0.45567  0.43187  Biso   1.000  N
  H71      1.0000 0.59723  0.47127  0.47687  Biso   1.000  H
  H72      1.0000 0.50913  0.40727  0.44607  Biso   1.000  H
  N48      1.0000 0.61001  0.58430  0.30671  Biso   1.000  N
  C25      1.0000 0.15758  0.37251  0.66915  Biso   1.000  C
  H73      1.0000 0.18930  0.40500  0.74130  Biso   1.000  H
  N49      1.0000 0.21100  0.42970  0.76520  Biso   1.000  N
  H74      1.0000 0.19540  0.45930  0.81020  Biso   1.000  H
  H75      1.0000 0.25940  0.43520  0.77940  Biso   1.000  H
  N50      1.0000 0.08237  0.35905  0.64004  Biso   1.000  N
  C26      1.0000 0.82425  0.70584  0.00248  Biso   1.000  C
  H76      1.0000 0.85597  0.73833  0.07463  Biso   1.000  H
  N51      1.0000 0.87767  0.76303  0.09853  Biso   1.000  N
  H77      1.0000 0.86207  0.79263  0.14353  Biso   1.000  H
  H78      1.0000 0.92607  0.76853  0.11273  Biso   1.000  H
  N52      1.0000 0.74904  0.69238  0.97337  Biso   1.000  N
  C27      1.0000 0.49091  0.03918  0.33582  Biso   1.000  C
  H79      1.0000 0.52263  0.07167  0.40797  Biso   1.000  H
  N53      1.0000 0.54433  0.09637  0.43187  Biso   1.000  N
  H80      1.0000 0.52873  0.12597  0.47687  Biso   1.000  H
  H81      1.0000 0.59273  0.10187  0.44607  Biso   1.000  H
  N54      1.0000 0.41570  0.02572  0.30671  Biso   1.000  N
  C28      1.0000 0.78507  0.62749  0.83085  Biso   1.000  C
  H82      1.0000 0.78430  0.59500  0.75870  Biso   1.000  H
  N55      1.0000 0.78130  0.57030  0.73480  Biso   1.000  N
  H83      1.0000 0.73610  0.54070  0.68980  Biso   1.000  H
  H84      1.0000 0.82420  0.56480  0.72060  Biso   1.000  H
  N56      1.0000 0.72332  0.64095  0.85996  Biso   1.000  N
  C29      1.0000 0.45174  0.96082  0.16418  Biso   1.000  C
  H85      1.0000 0.45097  0.92833  0.09203  Biso   1.000  H
  N57      1.0000 0.44797  0.90363  0.06813  Biso   1.000  N
  H86      1.0000 0.40277  0.87403  0.02313  Biso   1.000  H
  H87      1.0000 0.49087  0.89813  0.05393  Biso   1.000  H
  N58      1.0000 0.38999  0.97428  0.19329  Biso   1.000  N
  C30      1.0000 0.11840  0.29416  0.49752  Biso   1.000  C
  H88      1.0000 0.11763  0.26167  0.42537  Biso   1.000  H
  N59      1.0000 0.11463  0.23697  0.40147  Biso   1.000  N
  H89      1.0000 0.06943  0.20737  0.35647  Biso   1.000  H
  H90      1.0000 0.15753  0.23147  0.38727  Biso   1.000  H
  N60      1.0000 0.05665  0.30762  0.52663  Biso   1.000  N
  C31      1.0000 0.84242  0.21493  0.83085  Biso   1.000  C
  H91      1.0000 0.81070  0.21570  0.75870  Biso   1.000  H
  N61      1.0000 0.78900  0.21870  0.73480  Biso   1.000  N
  H92      1.0000 0.80460  0.26390  0.68980  Biso   1.000  H
  H93      1.0000 0.74060  0.17580  0.72060  Biso   1.000  H
  N62      1.0000 0.91763  0.27668  0.85996  Biso   1.000  N
  C32      1.0000 0.50909  0.54826  0.16418  Biso   1.000  C
  H94      1.0000 0.47737  0.54903  0.09203  Biso   1.000  H
  N63      1.0000 0.45567  0.55203  0.06813  Biso   1.000  N
  H95      1.0000 0.47127  0.59723  0.02313  Biso   1.000  H
  H96      1.0000 0.40727  0.50913  0.05393  Biso   1.000  H
  N64      1.0000 0.58430  0.61001  0.19329  Biso   1.000  N
  C33      1.0000 0.17575  0.88160  0.49752  Biso   1.000  C
  H97      1.0000 0.14403  0.88237  0.42537  Biso   1.000  H
  N65      1.0000 0.12233  0.88537  0.40147  Biso   1.000  N
  H98      1.0000 0.13793  0.93057  0.35647  Biso   1.000  H
  H99      1.0000 0.07393  0.84247  0.38727  Biso   1.000  H
  N66      1.0000 0.25096  0.94335  0.52663  Biso   1.000  N
  C34      1.0000 0.37251  0.15758  0.83085  Biso   1.000  C
  H100     1.0000 0.40500  0.18930  0.75870  Biso   1.000  H
  N67      1.0000 0.42970  0.21100  0.73480  Biso   1.000  N
  H101     1.0000 0.45930  0.19540  0.68980  Biso   1.000  H
  H102     1.0000 0.43520  0.25940  0.72060  Biso   1.000  H
  N68      1.0000 0.35905  0.08237  0.85996  Biso   1.000  N
  C35      1.0000 0.03918  0.49091  0.16418  Biso   1.000  C
  H103     1.0000 0.07167  0.52263  0.09203  Biso   1.000  H
  N69      1.0000 0.09637  0.54433  0.06813  Biso   1.000  N
  H104     1.0000 0.12597  0.52873  0.02313  Biso   1.000  H
  H105     1.0000 0.10187  0.59273  0.05393  Biso   1.000  H
  N70      1.0000 0.02572  0.41570  0.19329  Biso   1.000  N
  C36      1.0000 0.70584  0.82425  0.49752  Biso   1.000  C
  H106     1.0000 0.73833  0.85597  0.42537  Biso   1.000  H
  N71      1.0000 0.76303  0.87767  0.40147  Biso   1.000  N
  H107     1.0000 0.79263  0.86207  0.35647  Biso   1.000  H
  H108     1.0000 0.76853  0.92607  0.38727  Biso   1.000  H
  N72      1.0000 0.69238  0.74904  0.52663  Biso   1.000  N
  Zn1      1.0000 0.37554  0.37554  0.25000  Biso   1.000  Zn
  Zn2      1.0000 0.04220  0.70887  0.58333  Biso   1.000  Zn
  Zn3      1.0000 0.70887  0.04220  0.91667  Biso   1.000  Zn
  Zn4      1.0000 0.62446  0.00000  0.25000  Biso   1.000  Zn
  Zn5      1.0000 0.29113  0.33333  0.58333  Biso   1.000  Zn
  Zn6      1.0000 0.95780  0.66667  0.91667  Biso   1.000  Zn
  Zn7      1.0000 0.00000  0.62446  0.25000  Biso   1.000  Zn
  Zn8      1.0000 0.66667  0.95780  0.58333  Biso   1.000  Zn
  Zn9      1.0000 0.33333  0.29113  0.91667  Biso   1.000  Zn
  Zn10     1.0000 0.62446  0.62446  0.75000  Biso   1.000  Zn
  Zn11     1.0000 0.29113  0.95780  0.08333  Biso   1.000  Zn
  Zn12     1.0000 0.95780  0.29113  0.41667  Biso   1.000  Zn
  Zn13     1.0000 0.37554  0.00000  0.75000  Biso   1.000  Zn
  Zn14     1.0000 0.04220  0.33333  0.08333  Biso   1.000  Zn
  Zn15     1.0000 0.70887  0.66667  0.41667  Biso   1.000  Zn
  Zn16     1.0000 0.00000  0.37554  0.75000  Biso   1.000  Zn
  Zn17     1.0000 0.66667  0.70887  0.08333  Biso   1.000  Zn
  Zn18     1.0000 0.33333  0.04220  0.41667  Biso   1.000  Zn
  F1       1.0000 0.41223  0.33333  0.08333  Biso   1.000  F
  F2       1.0000 0.66667  0.07889  0.08333  Biso   1.000  F
  F3       1.0000 0.33333  0.41223  0.41667  Biso   1.000  F
  F4       1.0000 0.92111  0.58777  0.08333  Biso   1.000  F
  F5       1.0000 0.25444  0.25444  0.75000  Biso   1.000  F
  F6       1.0000 0.00000  0.74556  0.75000  Biso   1.000  F
  F7       1.0000 0.07889  0.66667  0.41667  Biso   1.000  F
  F8       1.0000 0.74556  0.00000  0.75000  Biso   1.000  F
  F9       1.0000 0.58777  0.92111  0.41667  Biso   1.000  F
  F10      1.0000 0.58777  0.66667  0.91667  Biso   1.000  F
  F11      1.0000 0.25444  0.00000  0.25000  Biso   1.000  F
  F12      1.0000 0.92111  0.33333  0.58333  Biso   1.000  F
  F13      1.0000 0.33333  0.92111  0.91667  Biso   1.000  F
  F14      1.0000 0.00000  0.25444  0.25000  Biso   1.000  F
  F15      1.0000 0.07889  0.41223  0.91667  Biso   1.000  F
  F16      1.0000 0.74556  0.74556  0.25000  Biso   1.000  F
  F17      1.0000 0.66667  0.58777  0.58333  Biso   1.000  F
  F18      1.0000 0.41223  0.07889  0.58333  Biso   1.000  F
  N73      1.0000 0.33333  0.15020  0.41667  Biso   1.000  N
  N74      1.0000 0.00000  0.48353  0.75000  Biso   1.000  N
  N75      1.0000 0.84980  0.18314  0.41667  Biso   1.000  N
  N76      1.0000 0.51647  0.51647  0.75000  Biso   1.000  N
  N77      1.0000 0.81686  0.66667  0.41667  Biso   1.000  N
  N78      1.0000 0.48353  0.00000  0.75000  Biso   1.000  N
  N79      1.0000 0.15020  0.33333  0.08333  Biso   1.000  N
  N80      1.0000 0.18314  0.84980  0.08333  Biso   1.000  N
  N81      1.0000 0.66667  0.81686  0.08333  Biso   1.000  N
  N82      1.0000 0.66667  0.84980  0.58333  Biso   1.000  N
  N83      1.0000 0.15020  0.81686  0.58333  Biso   1.000  N
  N84      1.0000 0.18314  0.33333  0.58333  Biso   1.000  N
  N85      1.0000 0.84980  0.66667  0.91667  Biso   1.000  N
  N86      1.0000 0.51647  0.00000  0.25000  Biso   1.000  N
  N87      1.0000 0.81686  0.15020  0.91667  Biso   1.000  N
  N88      1.0000 0.48353  0.48353  0.25000  Biso   1.000  N
  N89      1.0000 0.33333  0.18314  0.91667  Biso   1.000  N
  N90      1.0000 0.00000  0.51647  0.25000  Biso   1.000  N
