data_image0
_cell_length_a       30.332
_cell_length_b       46.354
_cell_length_c       18.13
_cell_angle_alpha    90
_cell_angle_beta     116.729
_cell_angle_gamma    90

_symmetry_space_group_name_H-M    "P 1"
_symmetry_int_tables_number       1

loop_
  _symmetry_equiv_pos_as_xyz
  'x, y, z'

loop_
  _atom_site_label
  _atom_site_occupancy
  _atom_site_fract_x
  _atom_site_fract_y
  _atom_site_fract_z
  _atom_site_thermal_displace_type
  _atom_site_B_iso_or_equiv
  _atom_site_type_symbol
  Pr1      1.0000 0.92753  0.82788  0.76702  Biso   1.000  Pr
  Cu1      1.0000 0.69395  0.84907  0.08690  Biso   1.000  Cu
  Cu2      1.0000 0.76640  0.81957  0.08880  Biso   1.000  Cu
  Cu3      1.0000 0.74506  0.81331  0.20920  Biso   1.000  Cu
  Cu4      1.0000 0.68292  0.79328  0.06910  Biso   1.000  Cu
  Cu5      1.0000 0.14490  0.97192  0.80520  Biso   1.000  Cu
  I1       1.0000 0.21909  0.04797  0.77770  Biso   1.000  I
  I2       1.0000 0.67573  0.82639  0.94319  Biso   1.000  I
  I3       1.0000 0.77141  0.76705  0.14805  Biso   1.000  I
  I4       1.0000 0.78741  0.86323  0.18995  Biso   1.000  I
  I5       1.0000 0.65053  0.81931  0.16905  Biso   1.000  I
  O1       1.0000 0.90950  0.84630  0.88540  Biso   1.000  O
  O2       1.0000 0.86130  0.81330  0.80740  Biso   1.000  O
  O3       1.0000 0.98850  0.80530  0.90040  Biso   1.000  O
  O4       1.0000 0.00910  0.80280  0.79830  Biso   1.000  O
  O5       1.0000 0.84850  0.82280  0.63580  Biso   1.000  O
  O6       1.0000 0.91430  0.81150  0.62380  Biso   1.000  O
  O7       1.0000 0.99400  0.86530  0.84760  Biso   1.000  O
  O8       1.0000 0.97830  0.86040  0.71570  Biso   1.000  O
  N1       1.0000 0.80900  0.82070  0.03060  Biso   1.000  N
  C1       1.0000 0.84410  0.84200  0.04530  Biso   1.000  C
  H1       1.0000 0.85290  0.85470  0.09080  Biso   1.000  H
  C2       1.0000 0.86630  0.84480  0.99320  Biso   1.000  C
  H2       1.0000 0.89030  0.85940  0.00320  Biso   1.000  H
  C3       1.0000 0.85340  0.82620  0.92650  Biso   1.000  C
  C4       1.0000 0.81820  0.80480  0.91190  Biso   1.000  C
  H3       1.0000 0.80940  0.79210  0.86630  Biso   1.000  H
  C5       1.0000 0.79600  0.80210  0.96390  Biso   1.000  C
  H4       1.0000 0.77200  0.78750  0.95390  Biso   1.000  H
  C6       1.0000 0.87490  0.82870  0.86610  Biso   1.000  C
  N2       1.0000 0.13320  0.73830  0.01330  Biso   1.000  N
  C7       1.0000 0.10190  0.74870  0.04460  Biso   1.000  C
  H5       1.0000 0.10600  0.74240  0.09710  Biso   1.000  H
  C8       1.0000 0.06480  0.76820  0.99900  Biso   1.000  C
  H6       1.0000 0.04350  0.77520  0.02040  Biso   1.000  H
  C9       1.0000 0.05890  0.77740  0.92210  Biso   1.000  C
  C10      1.0000 0.09020  0.76710  0.89080  Biso   1.000  C
  H7       1.0000 0.08610  0.77330  0.83830  Biso   1.000  H
  C11      1.0000 0.12730  0.74750  0.93640  Biso   1.000  C
  H8       1.0000 0.14860  0.74050  0.91500  Biso   1.000  H
  C12      1.0000 0.01530  0.79780  0.86800  Biso   1.000  C
  N3       1.0000 0.78000  0.80910  0.33100  Biso   1.000  N
  C13      1.0000 0.75960  0.81940  0.38090  Biso   1.000  C
  H9       1.0000 0.72590  0.82510  0.35690  Biso   1.000  H
  C14      1.0000 0.78840  0.82130  0.46580  Biso   1.000  C
  H10      1.0000 0.77440  0.82840  0.49990  Biso   1.000  H
  C15      1.0000 0.83770  0.81300  0.50090  Biso   1.000  C
  C16      1.0000 0.85810  0.80270  0.45110  Biso   1.000  C
  H11      1.0000 0.89180  0.79700  0.47510  Biso   1.000  H
  C17      1.0000 0.82930  0.80070  0.36610  Biso   1.000  C
  H12      1.0000 0.84320  0.79370  0.33210  Biso   1.000  H
  C18      1.0000 0.86760  0.81620  0.58990  Biso   1.000  C
  N4       1.0000 0.10810  0.93640  0.81200  Biso   1.000  N
  C19      1.0000 0.09540  0.93230  0.87600  Biso   1.000  C
  H13      1.0000 0.10980  0.94400  0.92400  Biso   1.000  H
  C20      1.0000 0.06170  0.91090  0.86980  Biso   1.000  C
  H14      1.0000 0.05310  0.90810  0.91350  Biso   1.000  H
  C21      1.0000 0.04070  0.89370  0.79960  Biso   1.000  C
  C22      1.0000 0.05340  0.89790  0.73560  Biso   1.000  C
  H15      1.0000 0.03900  0.88610  0.68760  Biso   1.000  H
  C23      1.0000 0.08710  0.91920  0.74180  Biso   1.000  C
  H16      1.0000 0.09570  0.92210  0.69800  Biso   1.000  H
  C24      1.0000 0.00040  0.87140  0.78800  Biso   1.000  C
  N5       1.0000 0.65810  0.88610  0.06360  Biso   1.000  N
  C25      1.0000 0.66470  0.90310  0.13090  Biso   1.000  C
  H17      1.0000 0.68970  0.89840  0.18440  Biso   1.000  H
  C26      1.0000 0.63460  0.92700  0.11990  Biso   1.000  C
  H18      1.0000 0.63910  0.93860  0.16600  Biso   1.000  H
  C27      1.0000 0.59800  0.93380  0.04200  Biso   1.000  C
  C28      1.0000 0.59140  0.91680  0.97430  Biso   1.000  C
  H19      1.0000 0.56630  0.92150  0.92080  Biso   1.000  H
  C29      1.0000 0.62140  0.89290  0.98530  Biso   1.000  C
  H20      1.0000 0.61690  0.88130  0.93930  Biso   1.000  H
  O9       1.0000 0.53870  0.96790  0.95300  Biso   1.000  O
  O10      1.0000 0.56480  0.96950  0.09600  Biso   1.000  O
  C30      1.0000 0.56630  0.95770  0.03000  Biso   1.000  C
  Pr2      1.0000 0.42753  0.32788  0.76702  Biso   1.000  Pr
  Cu6      1.0000 0.19395  0.34907  0.08690  Biso   1.000  Cu
  Cu7      1.0000 0.26640  0.31957  0.08880  Biso   1.000  Cu
  Cu8      1.0000 0.24506  0.31331  0.20920  Biso   1.000  Cu
  Cu9      1.0000 0.18292  0.29328  0.06910  Biso   1.000  Cu
  Cu10     1.0000 0.64490  0.47192  0.80520  Biso   1.000  Cu
  I6       1.0000 0.71909  0.54797  0.77770  Biso   1.000  I
  I7       1.0000 0.17573  0.32639  0.94319  Biso   1.000  I
  I8       1.0000 0.27141  0.26705  0.14805  Biso   1.000  I
  I9       1.0000 0.28741  0.36323  0.18995  Biso   1.000  I
  I10      1.0000 0.15053  0.31931  0.16905  Biso   1.000  I
  O11      1.0000 0.40950  0.34630  0.88540  Biso   1.000  O
  O12      1.0000 0.36130  0.31330  0.80740  Biso   1.000  O
  O13      1.0000 0.48850  0.30530  0.90040  Biso   1.000  O
  O14      1.0000 0.50910  0.30280  0.79830  Biso   1.000  O
  O15      1.0000 0.34850  0.32280  0.63580  Biso   1.000  O
  O16      1.0000 0.41430  0.31150  0.62380  Biso   1.000  O
  O17      1.0000 0.49400  0.36530  0.84760  Biso   1.000  O
  O18      1.0000 0.47830  0.36040  0.71570  Biso   1.000  O
  N6       1.0000 0.30900  0.32070  0.03060  Biso   1.000  N
  C31      1.0000 0.34410  0.34200  0.04530  Biso   1.000  C
  H21      1.0000 0.35290  0.35470  0.09080  Biso   1.000  H
  C32      1.0000 0.36630  0.34480  0.99320  Biso   1.000  C
  H22      1.0000 0.39030  0.35940  0.00320  Biso   1.000  H
  C33      1.0000 0.35340  0.32620  0.92650  Biso   1.000  C
  C34      1.0000 0.31820  0.30480  0.91190  Biso   1.000  C
  H23      1.0000 0.30940  0.29210  0.86630  Biso   1.000  H
  C35      1.0000 0.29600  0.30210  0.96390  Biso   1.000  C
  H24      1.0000 0.27200  0.28750  0.95390  Biso   1.000  H
  C36      1.0000 0.37490  0.32870  0.86610  Biso   1.000  C
  N7       1.0000 0.63320  0.23830  0.01330  Biso   1.000  N
  C37      1.0000 0.60190  0.24870  0.04460  Biso   1.000  C
  H25      1.0000 0.60600  0.24240  0.09710  Biso   1.000  H
  C38      1.0000 0.56480  0.26820  0.99900  Biso   1.000  C
  H26      1.0000 0.54350  0.27520  0.02040  Biso   1.000  H
  C39      1.0000 0.55890  0.27740  0.92210  Biso   1.000  C
  C40      1.0000 0.59020  0.26710  0.89080  Biso   1.000  C
  H27      1.0000 0.58610  0.27330  0.83830  Biso   1.000  H
  C41      1.0000 0.62730  0.24750  0.93640  Biso   1.000  C
  H28      1.0000 0.64860  0.24050  0.91500  Biso   1.000  H
  C42      1.0000 0.51530  0.29780  0.86800  Biso   1.000  C
  N8       1.0000 0.28000  0.30910  0.33100  Biso   1.000  N
  C43      1.0000 0.25960  0.31940  0.38090  Biso   1.000  C
  H29      1.0000 0.22590  0.32510  0.35690  Biso   1.000  H
  C44      1.0000 0.28840  0.32130  0.46580  Biso   1.000  C
  H30      1.0000 0.27440  0.32840  0.49990  Biso   1.000  H
  C45      1.0000 0.33770  0.31300  0.50090  Biso   1.000  C
  C46      1.0000 0.35810  0.30270  0.45110  Biso   1.000  C
  H31      1.0000 0.39180  0.29700  0.47510  Biso   1.000  H
  C47      1.0000 0.32930  0.30070  0.36610  Biso   1.000  C
  H32      1.0000 0.34320  0.29370  0.33210  Biso   1.000  H
  C48      1.0000 0.36760  0.31620  0.58990  Biso   1.000  C
  N9       1.0000 0.60810  0.43640  0.81200  Biso   1.000  N
  C49      1.0000 0.59540  0.43230  0.87600  Biso   1.000  C
  H33      1.0000 0.60980  0.44400  0.92400  Biso   1.000  H
  C50      1.0000 0.56170  0.41090  0.86980  Biso   1.000  C
  H34      1.0000 0.55310  0.40810  0.91350  Biso   1.000  H
  C51      1.0000 0.54070  0.39370  0.79960  Biso   1.000  C
  C52      1.0000 0.55340  0.39790  0.73560  Biso   1.000  C
  H35      1.0000 0.53900  0.38610  0.68760  Biso   1.000  H
  C53      1.0000 0.58710  0.41920  0.74180  Biso   1.000  C
  H36      1.0000 0.59570  0.42210  0.69800  Biso   1.000  H
  C54      1.0000 0.50040  0.37140  0.78800  Biso   1.000  C
  N10      1.0000 0.15810  0.38610  0.06360  Biso   1.000  N
  C55      1.0000 0.16470  0.40310  0.13090  Biso   1.000  C
  H37      1.0000 0.18970  0.39840  0.18440  Biso   1.000  H
  C56      1.0000 0.13460  0.42700  0.11990  Biso   1.000  C
  H38      1.0000 0.13910  0.43860  0.16600  Biso   1.000  H
  C57      1.0000 0.09800  0.43380  0.04200  Biso   1.000  C
  C58      1.0000 0.09140  0.41680  0.97430  Biso   1.000  C
  H39      1.0000 0.06630  0.42150  0.92080  Biso   1.000  H
  C59      1.0000 0.12140  0.39290  0.98530  Biso   1.000  C
  H40      1.0000 0.11690  0.38130  0.93930  Biso   1.000  H
  O19      1.0000 0.03870  0.46790  0.95300  Biso   1.000  O
  O20      1.0000 0.06480  0.46950  0.09600  Biso   1.000  O
  C60      1.0000 0.06630  0.45770  0.03000  Biso   1.000  C
  Pr3      1.0000 0.07247  0.82788  0.23298  Biso   1.000  Pr
  Cu11     1.0000 0.30605  0.84907  0.91310  Biso   1.000  Cu
  Cu12     1.0000 0.23360  0.81957  0.91120  Biso   1.000  Cu
  Cu13     1.0000 0.25494  0.81331  0.79080  Biso   1.000  Cu
  Cu14     1.0000 0.31708  0.79328  0.93090  Biso   1.000  Cu
  Cu15     1.0000 0.85510  0.97192  0.19480  Biso   1.000  Cu
  I11      1.0000 0.78091  0.04797  0.22230  Biso   1.000  I
  I12      1.0000 0.32427  0.82639  0.05681  Biso   1.000  I
  I13      1.0000 0.22859  0.76705  0.85195  Biso   1.000  I
  I14      1.0000 0.21259  0.86323  0.81005  Biso   1.000  I
  I15      1.0000 0.34947  0.81931  0.83095  Biso   1.000  I
  O21      1.0000 0.09050  0.84630  0.11460  Biso   1.000  O
  O22      1.0000 0.13870  0.81330  0.19260  Biso   1.000  O
  O23      1.0000 0.01150  0.80530  0.09960  Biso   1.000  O
  O24      1.0000 0.99090  0.80280  0.20170  Biso   1.000  O
  O25      1.0000 0.15150  0.82280  0.36420  Biso   1.000  O
  O26      1.0000 0.08570  0.81150  0.37620  Biso   1.000  O
  O27      1.0000 0.00600  0.86530  0.15240  Biso   1.000  O
  O28      1.0000 0.02170  0.86040  0.28430  Biso   1.000  O
  N11      1.0000 0.19100  0.82070  0.96940  Biso   1.000  N
  C61      1.0000 0.15590  0.84200  0.95470  Biso   1.000  C
  H41      1.0000 0.14710  0.85470  0.90920  Biso   1.000  H
  C62      1.0000 0.13370  0.84480  0.00680  Biso   1.000  C
  H42      1.0000 0.10970  0.85940  0.99680  Biso   1.000  H
  C63      1.0000 0.14660  0.82620  0.07350  Biso   1.000  C
  C64      1.0000 0.18180  0.80480  0.08810  Biso   1.000  C
  H43      1.0000 0.19060  0.79210  0.13370  Biso   1.000  H
  C65      1.0000 0.20400  0.80210  0.03610  Biso   1.000  C
  H44      1.0000 0.22800  0.78750  0.04610  Biso   1.000  H
  C66      1.0000 0.12510  0.82870  0.13390  Biso   1.000  C
  N12      1.0000 0.86680  0.73830  0.98670  Biso   1.000  N
  C67      1.0000 0.89810  0.74870  0.95540  Biso   1.000  C
  H45      1.0000 0.89400  0.74240  0.90290  Biso   1.000  H
  C68      1.0000 0.93520  0.76820  0.00100  Biso   1.000  C
  H46      1.0000 0.95650  0.77520  0.97960  Biso   1.000  H
  C69      1.0000 0.94110  0.77740  0.07790  Biso   1.000  C
  C70      1.0000 0.90980  0.76710  0.10920  Biso   1.000  C
  H47      1.0000 0.91390  0.77330  0.16170  Biso   1.000  H
  C71      1.0000 0.87270  0.74750  0.06360  Biso   1.000  C
  H48      1.0000 0.85140  0.74050  0.08500  Biso   1.000  H
  C72      1.0000 0.98470  0.79780  0.13200  Biso   1.000  C
  N13      1.0000 0.22000  0.80910  0.66900  Biso   1.000  N
  C73      1.0000 0.24040  0.81940  0.61910  Biso   1.000  C
  H49      1.0000 0.27410  0.82510  0.64310  Biso   1.000  H
  C74      1.0000 0.21160  0.82130  0.53420  Biso   1.000  C
  H50      1.0000 0.22560  0.82840  0.50010  Biso   1.000  H
  C75      1.0000 0.16230  0.81300  0.49910  Biso   1.000  C
  C76      1.0000 0.14190  0.80270  0.54890  Biso   1.000  C
  H51      1.0000 0.10820  0.79700  0.52490  Biso   1.000  H
  C77      1.0000 0.17070  0.80070  0.63390  Biso   1.000  C
  H52      1.0000 0.15680  0.79370  0.66790  Biso   1.000  H
  C78      1.0000 0.13240  0.81620  0.41010  Biso   1.000  C
  N14      1.0000 0.89190  0.93640  0.18800  Biso   1.000  N
  C79      1.0000 0.90460  0.93230  0.12400  Biso   1.000  C
  H53      1.0000 0.89020  0.94400  0.07600  Biso   1.000  H
  C80      1.0000 0.93830  0.91090  0.13020  Biso   1.000  C
  H54      1.0000 0.94690  0.90810  0.08650  Biso   1.000  H
  C81      1.0000 0.95930  0.89370  0.20040  Biso   1.000  C
  C82      1.0000 0.94660  0.89790  0.26440  Biso   1.000  C
  H55      1.0000 0.96100  0.88610  0.31240  Biso   1.000  H
  C83      1.0000 0.91290  0.91920  0.25820  Biso   1.000  C
  H56      1.0000 0.90430  0.92210  0.30200  Biso   1.000  H
  C84      1.0000 0.99960  0.87140  0.21200  Biso   1.000  C
  N15      1.0000 0.34190  0.88610  0.93640  Biso   1.000  N
  C85      1.0000 0.33530  0.90310  0.86910  Biso   1.000  C
  H57      1.0000 0.31030  0.89840  0.81560  Biso   1.000  H
  C86      1.0000 0.36540  0.92700  0.88010  Biso   1.000  C
  H58      1.0000 0.36090  0.93860  0.83400  Biso   1.000  H
  C87      1.0000 0.40200  0.93380  0.95800  Biso   1.000  C
  C88      1.0000 0.40860  0.91680  0.02570  Biso   1.000  C
  H59      1.0000 0.43370  0.92150  0.07920  Biso   1.000  H
  C89      1.0000 0.37860  0.89290  0.01470  Biso   1.000  C
  H60      1.0000 0.38310  0.88130  0.06070  Biso   1.000  H
  O29      1.0000 0.46130  0.96790  0.04700  Biso   1.000  O
  O30      1.0000 0.43520  0.96950  0.90400  Biso   1.000  O
  C90      1.0000 0.43370  0.95770  0.97000  Biso   1.000  C
  Pr4      1.0000 0.57247  0.32788  0.23298  Biso   1.000  Pr
  Cu16     1.0000 0.80605  0.34907  0.91310  Biso   1.000  Cu
  Cu17     1.0000 0.73360  0.31957  0.91120  Biso   1.000  Cu
  Cu18     1.0000 0.75494  0.31331  0.79080  Biso   1.000  Cu
  Cu19     1.0000 0.81708  0.29328  0.93090  Biso   1.000  Cu
  Cu20     1.0000 0.35510  0.47192  0.19480  Biso   1.000  Cu
  I16      1.0000 0.28091  0.54797  0.22230  Biso   1.000  I
  I17      1.0000 0.82427  0.32639  0.05681  Biso   1.000  I
  I18      1.0000 0.72859  0.26705  0.85195  Biso   1.000  I
  I19      1.0000 0.71259  0.36323  0.81005  Biso   1.000  I
  I20      1.0000 0.84947  0.31931  0.83095  Biso   1.000  I
  O31      1.0000 0.59050  0.34630  0.11460  Biso   1.000  O
  O32      1.0000 0.63870  0.31330  0.19260  Biso   1.000  O
  O33      1.0000 0.51150  0.30530  0.09960  Biso   1.000  O
  O34      1.0000 0.49090  0.30280  0.20170  Biso   1.000  O
  O35      1.0000 0.65150  0.32280  0.36420  Biso   1.000  O
  O36      1.0000 0.58570  0.31150  0.37620  Biso   1.000  O
  O37      1.0000 0.50600  0.36530  0.15240  Biso   1.000  O
  O38      1.0000 0.52170  0.36040  0.28430  Biso   1.000  O
  N16      1.0000 0.69100  0.32070  0.96940  Biso   1.000  N
  C91      1.0000 0.65590  0.34200  0.95470  Biso   1.000  C
  H61      1.0000 0.64710  0.35470  0.90920  Biso   1.000  H
  C92      1.0000 0.63370  0.34480  0.00680  Biso   1.000  C
  H62      1.0000 0.60970  0.35940  0.99680  Biso   1.000  H
  C93      1.0000 0.64660  0.32620  0.07350  Biso   1.000  C
  C94      1.0000 0.68180  0.30480  0.08810  Biso   1.000  C
  H63      1.0000 0.69060  0.29210  0.13370  Biso   1.000  H
  C95      1.0000 0.70400  0.30210  0.03610  Biso   1.000  C
  H64      1.0000 0.72800  0.28750  0.04610  Biso   1.000  H
  C96      1.0000 0.62510  0.32870  0.13390  Biso   1.000  C
  N17      1.0000 0.36680  0.23830  0.98670  Biso   1.000  N
  C97      1.0000 0.39810  0.24870  0.95540  Biso   1.000  C
  H65      1.0000 0.39400  0.24240  0.90290  Biso   1.000  H
  C98      1.0000 0.43520  0.26820  0.00100  Biso   1.000  C
  H66      1.0000 0.45650  0.27520  0.97960  Biso   1.000  H
  C99      1.0000 0.44110  0.27740  0.07790  Biso   1.000  C
  C100     1.0000 0.40980  0.26710  0.10920  Biso   1.000  C
  H67      1.0000 0.41390  0.27330  0.16170  Biso   1.000  H
  C101     1.0000 0.37270  0.24750  0.06360  Biso   1.000  C
  H68      1.0000 0.35140  0.24050  0.08500  Biso   1.000  H
  C102     1.0000 0.48470  0.29780  0.13200  Biso   1.000  C
  N18      1.0000 0.72000  0.30910  0.66900  Biso   1.000  N
  C103     1.0000 0.74040  0.31940  0.61910  Biso   1.000  C
  H69      1.0000 0.77410  0.32510  0.64310  Biso   1.000  H
  C104     1.0000 0.71160  0.32130  0.53420  Biso   1.000  C
  H70      1.0000 0.72560  0.32840  0.50010  Biso   1.000  H
  C105     1.0000 0.66230  0.31300  0.49910  Biso   1.000  C
  C106     1.0000 0.64190  0.30270  0.54890  Biso   1.000  C
  H71      1.0000 0.60820  0.29700  0.52490  Biso   1.000  H
  C107     1.0000 0.67070  0.30070  0.63390  Biso   1.000  C
  H72      1.0000 0.65680  0.29370  0.66790  Biso   1.000  H
  C108     1.0000 0.63240  0.31620  0.41010  Biso   1.000  C
  N19      1.0000 0.39190  0.43640  0.18800  Biso   1.000  N
  C109     1.0000 0.40460  0.43230  0.12400  Biso   1.000  C
  H73      1.0000 0.39020  0.44400  0.07600  Biso   1.000  H
  C110     1.0000 0.43830  0.41090  0.13020  Biso   1.000  C
  H74      1.0000 0.44690  0.40810  0.08650  Biso   1.000  H
  C111     1.0000 0.45930  0.39370  0.20040  Biso   1.000  C
  C112     1.0000 0.44660  0.39790  0.26440  Biso   1.000  C
  H75      1.0000 0.46100  0.38610  0.31240  Biso   1.000  H
  C113     1.0000 0.41290  0.41920  0.25820  Biso   1.000  C
  H76      1.0000 0.40430  0.42210  0.30200  Biso   1.000  H
  C114     1.0000 0.49960  0.37140  0.21200  Biso   1.000  C
  N20      1.0000 0.84190  0.38610  0.93640  Biso   1.000  N
  C115     1.0000 0.83530  0.40310  0.86910  Biso   1.000  C
  H77      1.0000 0.81030  0.39840  0.81560  Biso   1.000  H
  C116     1.0000 0.86540  0.42700  0.88010  Biso   1.000  C
  H78      1.0000 0.86090  0.43860  0.83400  Biso   1.000  H
  C117     1.0000 0.90200  0.43380  0.95800  Biso   1.000  C
  C118     1.0000 0.90860  0.41680  0.02570  Biso   1.000  C
  H79      1.0000 0.93370  0.42150  0.07920  Biso   1.000  H
  C119     1.0000 0.87860  0.39290  0.01470  Biso   1.000  C
  H80      1.0000 0.88310  0.38130  0.06070  Biso   1.000  H
  O39      1.0000 0.96130  0.46790  0.04700  Biso   1.000  O
  O40      1.0000 0.93520  0.46950  0.90400  Biso   1.000  O
  C120     1.0000 0.93370  0.45770  0.97000  Biso   1.000  C
  Pr5      1.0000 0.07247  0.17212  0.23298  Biso   1.000  Pr
  Cu21     1.0000 0.30605  0.15093  0.91310  Biso   1.000  Cu
  Cu22     1.0000 0.23360  0.18043  0.91120  Biso   1.000  Cu
  Cu23     1.0000 0.25494  0.18669  0.79080  Biso   1.000  Cu
  Cu24     1.0000 0.31708  0.20672  0.93090  Biso   1.000  Cu
  Cu25     1.0000 0.85510  0.02808  0.19480  Biso   1.000  Cu
  I21      1.0000 0.78091  0.95203  0.22230  Biso   1.000  I
  I22      1.0000 0.32427  0.17361  0.05681  Biso   1.000  I
  I23      1.0000 0.22859  0.23295  0.85195  Biso   1.000  I
  I24      1.0000 0.21259  0.13677  0.81005  Biso   1.000  I
  I25      1.0000 0.34947  0.18069  0.83095  Biso   1.000  I
  O41      1.0000 0.09050  0.15370  0.11460  Biso   1.000  O
  O42      1.0000 0.13870  0.18670  0.19260  Biso   1.000  O
  O43      1.0000 0.01150  0.19470  0.09960  Biso   1.000  O
  O44      1.0000 0.99090  0.19720  0.20170  Biso   1.000  O
  O45      1.0000 0.15150  0.17720  0.36420  Biso   1.000  O
  O46      1.0000 0.08570  0.18850  0.37620  Biso   1.000  O
  O47      1.0000 0.00600  0.13470  0.15240  Biso   1.000  O
  O48      1.0000 0.02170  0.13960  0.28430  Biso   1.000  O
  N21      1.0000 0.19100  0.17930  0.96940  Biso   1.000  N
  C121     1.0000 0.15590  0.15800  0.95470  Biso   1.000  C
  H81      1.0000 0.14710  0.14530  0.90920  Biso   1.000  H
  C122     1.0000 0.13370  0.15520  0.00680  Biso   1.000  C
  H82      1.0000 0.10970  0.14060  0.99680  Biso   1.000  H
  C123     1.0000 0.14660  0.17380  0.07350  Biso   1.000  C
  C124     1.0000 0.18180  0.19520  0.08810  Biso   1.000  C
  H83      1.0000 0.19060  0.20790  0.13370  Biso   1.000  H
  C125     1.0000 0.20400  0.19790  0.03610  Biso   1.000  C
  H84      1.0000 0.22800  0.21250  0.04610  Biso   1.000  H
  C126     1.0000 0.12510  0.17130  0.13390  Biso   1.000  C
  N22      1.0000 0.86680  0.26170  0.98670  Biso   1.000  N
  C127     1.0000 0.89810  0.25130  0.95540  Biso   1.000  C
  H85      1.0000 0.89400  0.25760  0.90290  Biso   1.000  H
  C128     1.0000 0.93520  0.23180  0.00100  Biso   1.000  C
  H86      1.0000 0.95650  0.22480  0.97960  Biso   1.000  H
  C129     1.0000 0.94110  0.22260  0.07790  Biso   1.000  C
  C130     1.0000 0.90980  0.23290  0.10920  Biso   1.000  C
  H87      1.0000 0.91390  0.22670  0.16170  Biso   1.000  H
  C131     1.0000 0.87270  0.25250  0.06360  Biso   1.000  C
  H88      1.0000 0.85140  0.25950  0.08500  Biso   1.000  H
  C132     1.0000 0.98470  0.20220  0.13200  Biso   1.000  C
  N23      1.0000 0.22000  0.19090  0.66900  Biso   1.000  N
  C133     1.0000 0.24040  0.18060  0.61910  Biso   1.000  C
  H89      1.0000 0.27410  0.17490  0.64310  Biso   1.000  H
  C134     1.0000 0.21160  0.17870  0.53420  Biso   1.000  C
  H90      1.0000 0.22560  0.17160  0.50010  Biso   1.000  H
  C135     1.0000 0.16230  0.18700  0.49910  Biso   1.000  C
  C136     1.0000 0.14190  0.19730  0.54890  Biso   1.000  C
  H91      1.0000 0.10820  0.20300  0.52490  Biso   1.000  H
  C137     1.0000 0.17070  0.19930  0.63390  Biso   1.000  C
  H92      1.0000 0.15680  0.20630  0.66790  Biso   1.000  H
  C138     1.0000 0.13240  0.18380  0.41010  Biso   1.000  C
  N24      1.0000 0.89190  0.06360  0.18800  Biso   1.000  N
  C139     1.0000 0.90460  0.06770  0.12400  Biso   1.000  C
  H93      1.0000 0.89020  0.05600  0.07600  Biso   1.000  H
  C140     1.0000 0.93830  0.08910  0.13020  Biso   1.000  C
  H94      1.0000 0.94690  0.09190  0.08650  Biso   1.000  H
  C141     1.0000 0.95930  0.10630  0.20040  Biso   1.000  C
  C142     1.0000 0.94660  0.10210  0.26440  Biso   1.000  C
  H95      1.0000 0.96100  0.11390  0.31240  Biso   1.000  H
  C143     1.0000 0.91290  0.08080  0.25820  Biso   1.000  C
  H96      1.0000 0.90430  0.07790  0.30200  Biso   1.000  H
  C144     1.0000 0.99960  0.12860  0.21200  Biso   1.000  C
  N25      1.0000 0.34190  0.11390  0.93640  Biso   1.000  N
  C145     1.0000 0.33530  0.09690  0.86910  Biso   1.000  C
  H97      1.0000 0.31030  0.10160  0.81560  Biso   1.000  H
  C146     1.0000 0.36540  0.07300  0.88010  Biso   1.000  C
  H98      1.0000 0.36090  0.06140  0.83400  Biso   1.000  H
  C147     1.0000 0.40200  0.06620  0.95800  Biso   1.000  C
  C148     1.0000 0.40860  0.08320  0.02570  Biso   1.000  C
  H99      1.0000 0.43370  0.07850  0.07920  Biso   1.000  H
  C149     1.0000 0.37860  0.10710  0.01470  Biso   1.000  C
  H100     1.0000 0.38310  0.11870  0.06070  Biso   1.000  H
  O49      1.0000 0.46130  0.03210  0.04700  Biso   1.000  O
  O50      1.0000 0.43520  0.03050  0.90400  Biso   1.000  O
  C150     1.0000 0.43370  0.04230  0.97000  Biso   1.000  C
  Pr6      1.0000 0.57247  0.67212  0.23298  Biso   1.000  Pr
  Cu26     1.0000 0.80605  0.65093  0.91310  Biso   1.000  Cu
  Cu27     1.0000 0.73360  0.68043  0.91120  Biso   1.000  Cu
  Cu28     1.0000 0.75494  0.68669  0.79080  Biso   1.000  Cu
  Cu29     1.0000 0.81708  0.70672  0.93090  Biso   1.000  Cu
  Cu30     1.0000 0.35510  0.52808  0.19480  Biso   1.000  Cu
  I26      1.0000 0.28091  0.45203  0.22230  Biso   1.000  I
  I27      1.0000 0.82427  0.67361  0.05681  Biso   1.000  I
  I28      1.0000 0.72859  0.73295  0.85195  Biso   1.000  I
  I29      1.0000 0.71259  0.63677  0.81005  Biso   1.000  I
  I30      1.0000 0.84947  0.68069  0.83095  Biso   1.000  I
  O51      1.0000 0.59050  0.65370  0.11460  Biso   1.000  O
  O52      1.0000 0.63870  0.68670  0.19260  Biso   1.000  O
  O53      1.0000 0.51150  0.69470  0.09960  Biso   1.000  O
  O54      1.0000 0.49090  0.69720  0.20170  Biso   1.000  O
  O55      1.0000 0.65150  0.67720  0.36420  Biso   1.000  O
  O56      1.0000 0.58570  0.68850  0.37620  Biso   1.000  O
  O57      1.0000 0.50600  0.63470  0.15240  Biso   1.000  O
  O58      1.0000 0.52170  0.63960  0.28430  Biso   1.000  O
  N26      1.0000 0.69100  0.67930  0.96940  Biso   1.000  N
  C151     1.0000 0.65590  0.65800  0.95470  Biso   1.000  C
  H101     1.0000 0.64710  0.64530  0.90920  Biso   1.000  H
  C152     1.0000 0.63370  0.65520  0.00680  Biso   1.000  C
  H102     1.0000 0.60970  0.64060  0.99680  Biso   1.000  H
  C153     1.0000 0.64660  0.67380  0.07350  Biso   1.000  C
  C154     1.0000 0.68180  0.69520  0.08810  Biso   1.000  C
  H103     1.0000 0.69060  0.70790  0.13370  Biso   1.000  H
  C155     1.0000 0.70400  0.69790  0.03610  Biso   1.000  C
  H104     1.0000 0.72800  0.71250  0.04610  Biso   1.000  H
  C156     1.0000 0.62510  0.67130  0.13390  Biso   1.000  C
  N27      1.0000 0.36680  0.76170  0.98670  Biso   1.000  N
  C157     1.0000 0.39810  0.75130  0.95540  Biso   1.000  C
  H105     1.0000 0.39400  0.75760  0.90290  Biso   1.000  H
  C158     1.0000 0.43520  0.73180  0.00100  Biso   1.000  C
  H106     1.0000 0.45650  0.72480  0.97960  Biso   1.000  H
  C159     1.0000 0.44110  0.72260  0.07790  Biso   1.000  C
  C160     1.0000 0.40980  0.73290  0.10920  Biso   1.000  C
  H107     1.0000 0.41390  0.72670  0.16170  Biso   1.000  H
  C161     1.0000 0.37270  0.75250  0.06360  Biso   1.000  C
  H108     1.0000 0.35140  0.75950  0.08500  Biso   1.000  H
  C162     1.0000 0.48470  0.70220  0.13200  Biso   1.000  C
  N28      1.0000 0.72000  0.69090  0.66900  Biso   1.000  N
  C163     1.0000 0.74040  0.68060  0.61910  Biso   1.000  C
  H109     1.0000 0.77410  0.67490  0.64310  Biso   1.000  H
  C164     1.0000 0.71160  0.67870  0.53420  Biso   1.000  C
  H110     1.0000 0.72560  0.67160  0.50010  Biso   1.000  H
  C165     1.0000 0.66230  0.68700  0.49910  Biso   1.000  C
  C166     1.0000 0.64190  0.69730  0.54890  Biso   1.000  C
  H111     1.0000 0.60820  0.70300  0.52490  Biso   1.000  H
  C167     1.0000 0.67070  0.69930  0.63390  Biso   1.000  C
  H112     1.0000 0.65680  0.70630  0.66790  Biso   1.000  H
  C168     1.0000 0.63240  0.68380  0.41010  Biso   1.000  C
  N29      1.0000 0.39190  0.56360  0.18800  Biso   1.000  N
  C169     1.0000 0.40460  0.56770  0.12400  Biso   1.000  C
  H113     1.0000 0.39020  0.55600  0.07600  Biso   1.000  H
  C170     1.0000 0.43830  0.58910  0.13020  Biso   1.000  C
  H114     1.0000 0.44690  0.59190  0.08650  Biso   1.000  H
  C171     1.0000 0.45930  0.60630  0.20040  Biso   1.000  C
  C172     1.0000 0.44660  0.60210  0.26440  Biso   1.000  C
  H115     1.0000 0.46100  0.61390  0.31240  Biso   1.000  H
  C173     1.0000 0.41290  0.58080  0.25820  Biso   1.000  C
  H116     1.0000 0.40430  0.57790  0.30200  Biso   1.000  H
  C174     1.0000 0.49960  0.62860  0.21200  Biso   1.000  C
  N30      1.0000 0.84190  0.61390  0.93640  Biso   1.000  N
  C175     1.0000 0.83530  0.59690  0.86910  Biso   1.000  C
  H117     1.0000 0.81030  0.60160  0.81560  Biso   1.000  H
  C176     1.0000 0.86540  0.57300  0.88010  Biso   1.000  C
  H118     1.0000 0.86090  0.56140  0.83400  Biso   1.000  H
  C177     1.0000 0.90200  0.56620  0.95800  Biso   1.000  C
  C178     1.0000 0.90860  0.58320  0.02570  Biso   1.000  C
  H119     1.0000 0.93370  0.57850  0.07920  Biso   1.000  H
  C179     1.0000 0.87860  0.60710  0.01470  Biso   1.000  C
  H120     1.0000 0.88310  0.61870  0.06070  Biso   1.000  H
  O59      1.0000 0.96130  0.53210  0.04700  Biso   1.000  O
  O60      1.0000 0.93520  0.53050  0.90400  Biso   1.000  O
  C180     1.0000 0.93370  0.54230  0.97000  Biso   1.000  C
  Pr7      1.0000 0.92753  0.17212  0.76702  Biso   1.000  Pr
  Cu31     1.0000 0.69395  0.15093  0.08690  Biso   1.000  Cu
  Cu32     1.0000 0.76640  0.18043  0.08880  Biso   1.000  Cu
  Cu33     1.0000 0.74506  0.18669  0.20920  Biso   1.000  Cu
  Cu34     1.0000 0.68292  0.20672  0.06910  Biso   1.000  Cu
  Cu35     1.0000 0.14490  0.02808  0.80520  Biso   1.000  Cu
  I31      1.0000 0.21909  0.95203  0.77770  Biso   1.000  I
  I32      1.0000 0.67573  0.17361  0.94319  Biso   1.000  I
  I33      1.0000 0.77141  0.23295  0.14805  Biso   1.000  I
  I34      1.0000 0.78741  0.13677  0.18995  Biso   1.000  I
  I35      1.0000 0.65053  0.18069  0.16905  Biso   1.000  I
  O61      1.0000 0.90950  0.15370  0.88540  Biso   1.000  O
  O62      1.0000 0.86130  0.18670  0.80740  Biso   1.000  O
  O63      1.0000 0.98850  0.19470  0.90040  Biso   1.000  O
  O64      1.0000 0.00910  0.19720  0.79830  Biso   1.000  O
  O65      1.0000 0.84850  0.17720  0.63580  Biso   1.000  O
  O66      1.0000 0.91430  0.18850  0.62380  Biso   1.000  O
  O67      1.0000 0.99400  0.13470  0.84760  Biso   1.000  O
  O68      1.0000 0.97830  0.13960  0.71570  Biso   1.000  O
  N31      1.0000 0.80900  0.17930  0.03060  Biso   1.000  N
  C181     1.0000 0.84410  0.15800  0.04530  Biso   1.000  C
  H121     1.0000 0.85290  0.14530  0.09080  Biso   1.000  H
  C182     1.0000 0.86630  0.15520  0.99320  Biso   1.000  C
  H122     1.0000 0.89030  0.14060  0.00320  Biso   1.000  H
  C183     1.0000 0.85340  0.17380  0.92650  Biso   1.000  C
  C184     1.0000 0.81820  0.19520  0.91190  Biso   1.000  C
  H123     1.0000 0.80940  0.20790  0.86630  Biso   1.000  H
  C185     1.0000 0.79600  0.19790  0.96390  Biso   1.000  C
  H124     1.0000 0.77200  0.21250  0.95390  Biso   1.000  H
  C186     1.0000 0.87490  0.17130  0.86610  Biso   1.000  C
  N32      1.0000 0.13320  0.26170  0.01330  Biso   1.000  N
  C187     1.0000 0.10190  0.25130  0.04460  Biso   1.000  C
  H125     1.0000 0.10600  0.25760  0.09710  Biso   1.000  H
  C188     1.0000 0.06480  0.23180  0.99900  Biso   1.000  C
  H126     1.0000 0.04350  0.22480  0.02040  Biso   1.000  H
  C189     1.0000 0.05890  0.22260  0.92210  Biso   1.000  C
  C190     1.0000 0.09020  0.23290  0.89080  Biso   1.000  C
  H127     1.0000 0.08610  0.22670  0.83830  Biso   1.000  H
  C191     1.0000 0.12730  0.25250  0.93640  Biso   1.000  C
  H128     1.0000 0.14860  0.25950  0.91500  Biso   1.000  H
  C192     1.0000 0.01530  0.20220  0.86800  Biso   1.000  C
  N33      1.0000 0.78000  0.19090  0.33100  Biso   1.000  N
  C193     1.0000 0.75960  0.18060  0.38090  Biso   1.000  C
  H129     1.0000 0.72590  0.17490  0.35690  Biso   1.000  H
  C194     1.0000 0.78840  0.17870  0.46580  Biso   1.000  C
  H130     1.0000 0.77440  0.17160  0.49990  Biso   1.000  H
  C195     1.0000 0.83770  0.18700  0.50090  Biso   1.000  C
  C196     1.0000 0.85810  0.19730  0.45110  Biso   1.000  C
  H131     1.0000 0.89180  0.20300  0.47510  Biso   1.000  H
  C197     1.0000 0.82930  0.19930  0.36610  Biso   1.000  C
  H132     1.0000 0.84320  0.20630  0.33210  Biso   1.000  H
  C198     1.0000 0.86760  0.18380  0.58990  Biso   1.000  C
  N34      1.0000 0.10810  0.06360  0.81200  Biso   1.000  N
  C199     1.0000 0.09540  0.06770  0.87600  Biso   1.000  C
  H133     1.0000 0.10980  0.05600  0.92400  Biso   1.000  H
  C200     1.0000 0.06170  0.08910  0.86980  Biso   1.000  C
  H134     1.0000 0.05310  0.09190  0.91350  Biso   1.000  H
  C201     1.0000 0.04070  0.10630  0.79960  Biso   1.000  C
  C202     1.0000 0.05340  0.10210  0.73560  Biso   1.000  C
  H135     1.0000 0.03900  0.11390  0.68760  Biso   1.000  H
  C203     1.0000 0.08710  0.08080  0.74180  Biso   1.000  C
  H136     1.0000 0.09570  0.07790  0.69800  Biso   1.000  H
  C204     1.0000 0.00040  0.12860  0.78800  Biso   1.000  C
  N35      1.0000 0.65810  0.11390  0.06360  Biso   1.000  N
  C205     1.0000 0.66470  0.09690  0.13090  Biso   1.000  C
  H137     1.0000 0.68970  0.10160  0.18440  Biso   1.000  H
  C206     1.0000 0.63460  0.07300  0.11990  Biso   1.000  C
  H138     1.0000 0.63910  0.06140  0.16600  Biso   1.000  H
  C207     1.0000 0.59800  0.06620  0.04200  Biso   1.000  C
  C208     1.0000 0.59140  0.08320  0.97430  Biso   1.000  C
  H139     1.0000 0.56630  0.07850  0.92080  Biso   1.000  H
  C209     1.0000 0.62140  0.10710  0.98530  Biso   1.000  C
  H140     1.0000 0.61690  0.11870  0.93930  Biso   1.000  H
  O69      1.0000 0.53870  0.03210  0.95300  Biso   1.000  O
  O70      1.0000 0.56480  0.03050  0.09600  Biso   1.000  O
  C210     1.0000 0.56630  0.04230  0.03000  Biso   1.000  C
  Pr8      1.0000 0.42753  0.67212  0.76702  Biso   1.000  Pr
  Cu36     1.0000 0.19395  0.65093  0.08690  Biso   1.000  Cu
  Cu37     1.0000 0.26640  0.68043  0.08880  Biso   1.000  Cu
  Cu38     1.0000 0.24506  0.68669  0.20920  Biso   1.000  Cu
  Cu39     1.0000 0.18292  0.70672  0.06910  Biso   1.000  Cu
  Cu40     1.0000 0.64490  0.52808  0.80520  Biso   1.000  Cu
  I36      1.0000 0.71909  0.45203  0.77770  Biso   1.000  I
  I37      1.0000 0.17573  0.67361  0.94319  Biso   1.000  I
  I38      1.0000 0.27141  0.73295  0.14805  Biso   1.000  I
  I39      1.0000 0.28741  0.63677  0.18995  Biso   1.000  I
  I40      1.0000 0.15053  0.68069  0.16905  Biso   1.000  I
  O71      1.0000 0.40950  0.65370  0.88540  Biso   1.000  O
  O72      1.0000 0.36130  0.68670  0.80740  Biso   1.000  O
  O73      1.0000 0.48850  0.69470  0.90040  Biso   1.000  O
  O74      1.0000 0.50910  0.69720  0.79830  Biso   1.000  O
  O75      1.0000 0.34850  0.67720  0.63580  Biso   1.000  O
  O76      1.0000 0.41430  0.68850  0.62380  Biso   1.000  O
  O77      1.0000 0.49400  0.63470  0.84760  Biso   1.000  O
  O78      1.0000 0.47830  0.63960  0.71570  Biso   1.000  O
  N36      1.0000 0.30900  0.67930  0.03060  Biso   1.000  N
  C211     1.0000 0.34410  0.65800  0.04530  Biso   1.000  C
  H141     1.0000 0.35290  0.64530  0.09080  Biso   1.000  H
  C212     1.0000 0.36630  0.65520  0.99320  Biso   1.000  C
  H142     1.0000 0.39030  0.64060  0.00320  Biso   1.000  H
  C213     1.0000 0.35340  0.67380  0.92650  Biso   1.000  C
  C214     1.0000 0.31820  0.69520  0.91190  Biso   1.000  C
  H143     1.0000 0.30940  0.70790  0.86630  Biso   1.000  H
  C215     1.0000 0.29600  0.69790  0.96390  Biso   1.000  C
  H144     1.0000 0.27200  0.71250  0.95390  Biso   1.000  H
  C216     1.0000 0.37490  0.67130  0.86610  Biso   1.000  C
  N37      1.0000 0.63320  0.76170  0.01330  Biso   1.000  N
  C217     1.0000 0.60190  0.75130  0.04460  Biso   1.000  C
  H145     1.0000 0.60600  0.75760  0.09710  Biso   1.000  H
  C218     1.0000 0.56480  0.73180  0.99900  Biso   1.000  C
  H146     1.0000 0.54350  0.72480  0.02040  Biso   1.000  H
  C219     1.0000 0.55890  0.72260  0.92210  Biso   1.000  C
  C220     1.0000 0.59020  0.73290  0.89080  Biso   1.000  C
  H147     1.0000 0.58610  0.72670  0.83830  Biso   1.000  H
  C221     1.0000 0.62730  0.75250  0.93640  Biso   1.000  C
  H148     1.0000 0.64860  0.75950  0.91500  Biso   1.000  H
  C222     1.0000 0.51530  0.70220  0.86800  Biso   1.000  C
  N38      1.0000 0.28000  0.69090  0.33100  Biso   1.000  N
  C223     1.0000 0.25960  0.68060  0.38090  Biso   1.000  C
  H149     1.0000 0.22590  0.67490  0.35690  Biso   1.000  H
  C224     1.0000 0.28840  0.67870  0.46580  Biso   1.000  C
  H150     1.0000 0.27440  0.67160  0.49990  Biso   1.000  H
  C225     1.0000 0.33770  0.68700  0.50090  Biso   1.000  C
  C226     1.0000 0.35810  0.69730  0.45110  Biso   1.000  C
  H151     1.0000 0.39180  0.70300  0.47510  Biso   1.000  H
  C227     1.0000 0.32930  0.69930  0.36610  Biso   1.000  C
  H152     1.0000 0.34320  0.70630  0.33210  Biso   1.000  H
  C228     1.0000 0.36760  0.68380  0.58990  Biso   1.000  C
  N39      1.0000 0.60810  0.56360  0.81200  Biso   1.000  N
  C229     1.0000 0.59540  0.56770  0.87600  Biso   1.000  C
  H153     1.0000 0.60980  0.55600  0.92400  Biso   1.000  H
  C230     1.0000 0.56170  0.58910  0.86980  Biso   1.000  C
  H154     1.0000 0.55310  0.59190  0.91350  Biso   1.000  H
  C231     1.0000 0.54070  0.60630  0.79960  Biso   1.000  C
  C232     1.0000 0.55340  0.60210  0.73560  Biso   1.000  C
  H155     1.0000 0.53900  0.61390  0.68760  Biso   1.000  H
  C233     1.0000 0.58710  0.58080  0.74180  Biso   1.000  C
  H156     1.0000 0.59570  0.57790  0.69800  Biso   1.000  H
  C234     1.0000 0.50040  0.62860  0.78800  Biso   1.000  C
  N40      1.0000 0.15810  0.61390  0.06360  Biso   1.000  N
  C235     1.0000 0.16470  0.59690  0.13090  Biso   1.000  C
  H157     1.0000 0.18970  0.60160  0.18440  Biso   1.000  H
  C236     1.0000 0.13460  0.57300  0.11990  Biso   1.000  C
  H158     1.0000 0.13910  0.56140  0.16600  Biso   1.000  H
  C237     1.0000 0.09800  0.56620  0.04200  Biso   1.000  C
  C238     1.0000 0.09140  0.58320  0.97430  Biso   1.000  C
  H159     1.0000 0.06630  0.57850  0.92080  Biso   1.000  H
  C239     1.0000 0.12140  0.60710  0.98530  Biso   1.000  C
  H160     1.0000 0.11690  0.61870  0.93930  Biso   1.000  H
  O79      1.0000 0.03870  0.53210  0.95300  Biso   1.000  O
  O80      1.0000 0.06480  0.53050  0.09600  Biso   1.000  O
  C240     1.0000 0.06630  0.54230  0.03000  Biso   1.000  C
  Cu41     1.0000 0.22670  0.00000  0.85870  Biso   1.000  Cu
  Cu42     1.0000 0.17300  0.00000  0.70220  Biso   1.000  Cu
  I41      1.0000 0.16822  0.00000  0.94270  Biso   1.000  I
  I42      1.0000 0.07900  0.00000  0.66890  Biso   1.000  I
  Pr9      1.0000 0.48013  0.00000  0.86150  Biso   1.000  Pr
  Cu43     1.0000 0.72670  0.50000  0.85870  Biso   1.000  Cu
  Cu44     1.0000 0.67300  0.50000  0.70220  Biso   1.000  Cu
  I43      1.0000 0.66822  0.50000  0.94270  Biso   1.000  I
  I44      1.0000 0.57900  0.50000  0.66890  Biso   1.000  I
  Pr10     1.0000 0.98013  0.50000  0.86150  Biso   1.000  Pr
  Cu45     1.0000 0.77330  0.00000  0.14130  Biso   1.000  Cu
  Cu46     1.0000 0.82700  0.00000  0.29780  Biso   1.000  Cu
  I45      1.0000 0.83178  0.00000  0.05730  Biso   1.000  I
  I46      1.0000 0.92100  0.00000  0.33110  Biso   1.000  I
  Pr11     1.0000 0.51987  0.00000  0.13850  Biso   1.000  Pr
  Cu47     1.0000 0.27330  0.50000  0.14130  Biso   1.000  Cu
  Cu48     1.0000 0.32700  0.50000  0.29780  Biso   1.000  Cu
  I47      1.0000 0.33178  0.50000  0.05730  Biso   1.000  I
  I48      1.0000 0.42100  0.50000  0.33110  Biso   1.000  I
  Pr12     1.0000 0.01987  0.50000  0.13850  Biso   1.000  Pr
  K1       1.0000 0.00000  0.85610  0.00000  Biso   1.000  K
  K2       1.0000 0.50000  0.35610  0.00000  Biso   1.000  K
  K3       1.0000 0.00000  0.14390  0.00000  Biso   1.000  K
  K4       1.0000 0.50000  0.64390  0.00000  Biso   1.000  K
