data_image0
_cell_length_a       15.095
_cell_length_b       25.0532
_cell_length_c       29.7588
_cell_angle_alpha    90
_cell_angle_beta     107.936
_cell_angle_gamma    90

_symmetry_space_group_name_H-M    "P 1"
_symmetry_int_tables_number       1

loop_
  _symmetry_equiv_pos_as_xyz
  'x, y, z'

loop_
  _atom_site_label
  _atom_site_occupancy
  _atom_site_fract_x
  _atom_site_fract_y
  _atom_site_fract_z
  _atom_site_thermal_displace_type
  _atom_site_B_iso_or_equiv
  _atom_site_type_symbol
  Pr1      1.0000 0.04151  0.59997  0.46473  Biso   1.000  Pr
  Pr2      1.0000 0.95673  0.75910  0.50388  Biso   1.000  Pr
  Pr3      1.0000 0.03358  0.92362  0.48509  Biso   1.000  Pr
  I1       1.0000 0.32773  0.56718  0.81614  Biso   1.000  I
  I2       1.0000 0.52221  0.64482  0.73936  Biso   1.000  I
  I3       1.0000 0.48761  0.71180  0.87306  Biso   1.000  I
  I4       1.0000 0.25937  0.71886  0.73034  Biso   1.000  I
  I5       1.0000 0.49778  0.81161  0.75989  Biso   1.000  I
  I6       1.0000 0.68420  0.74907  0.67205  Biso   1.000  I
  I7       1.0000 0.74218  0.60336  0.26497  Biso   1.000  I
  I8       1.0000 0.50352  0.89191  0.62795  Biso   1.000  I
  I9       1.0000 0.48719  0.97890  0.74946  Biso   1.000  I
  I10      1.0000 0.30404  0.91135  0.83579  Biso   1.000  I
  I11      1.0000 0.47135  0.44514  0.38098  Biso   1.000  I
  I12      1.0000 0.22655  0.05547  0.74678  Biso   1.000  I
  Cu1      1.0000 0.34893  0.62282  0.74230  Biso   1.000  Cu
  Cu2      1.0000 0.48280  0.62318  0.81973  Biso   1.000  Cu
  Cu3      1.0000 0.32287  0.67056  0.81434  Biso   1.000  Cu
  Cu4      1.0000 0.43604  0.71875  0.77916  Biso   1.000  Cu
  Cu5      1.0000 0.53122  0.79579  0.67644  Biso   1.000  Cu
  Cu6      1.0000 0.66925  0.70177  0.25279  Biso   1.000  Cu
  Cu7      1.0000 0.67649  0.85354  0.67835  Biso   1.000  Cu
  Cu8      1.0000 0.56390  0.89428  0.72018  Biso   1.000  Cu
  Cu9      1.0000 0.31834  0.96106  0.75718  Biso   1.000  Cu
  Cu10     1.0000 0.45986  0.53951  0.33406  Biso   1.000  Cu
  Cu11     1.0000 0.70255  0.51629  0.66576  Biso   1.000  Cu
  Cu12     1.0000 0.59286  0.55644  0.71173  Biso   1.000  Cu
  O1       1.0000 0.12300  0.52979  0.51706  Biso   1.000  O
  O2       1.0000 0.06460  0.47166  0.55718  Biso   1.000  O
  O3       1.0000 0.17930  0.64484  0.51968  Biso   1.000  O
  O4       1.0000 0.10220  0.71664  0.53080  Biso   1.000  O
  O5       1.0000 0.98810  0.60802  0.53502  Biso   1.000  O
  O6       1.0000 0.92670  0.68537  0.54900  Biso   1.000  O
  O7       1.0000 0.89870  0.65300  0.44264  Biso   1.000  O
  O8       1.0000 0.81060  0.71716  0.45559  Biso   1.000  O
  O9       1.0000 0.07560  0.68105  0.42942  Biso   1.000  O
  O10      1.0000 0.01430  0.76039  0.43629  Biso   1.000  O
  O11      1.0000 0.02410  0.79634  0.58520  Biso   1.000  O
  O12      1.0000 0.08060  0.84437  0.53817  Biso   1.000  O
  O13      1.0000 0.90730  0.84479  0.45580  Biso   1.000  O
  O14      1.0000 0.95530  0.88924  0.40357  Biso   1.000  O
  O15      1.0000 0.19520  0.95430  0.52925  Biso   1.000  O
  O16      1.0000 0.09730  0.01400  0.54019  Biso   1.000  O
  O17      1.0000 0.03500  0.07114  0.45198  Biso   1.000  O
  O18      1.0000 0.07910  0.98982  0.43661  Biso   1.000  O
  N1       1.0000 0.28330  0.57902  0.68533  Biso   1.000  N
  N2       1.0000 0.42170  0.75409  0.63631  Biso   1.000  N
  N3       1.0000 0.78350  0.55342  0.63125  Biso   1.000  N
  N4       1.0000 0.57280  0.58352  0.36867  Biso   1.000  N
  N5       1.0000 0.23250  0.79810  0.34410  Biso   1.000  N
  N6       1.0000 0.24900  0.91390  0.70224  Biso   1.000  N
  N7       1.0000 0.73730  0.75490  0.30241  Biso   1.000  N
  N8       1.0000 0.41140  0.07825  0.64067  Biso   1.000  N
  N9       1.0000 0.24130  0.11280  0.35540  Biso   1.000  N
  C1       1.0000 0.29990  0.58950  0.64450  Biso   1.000  C
  H1       1.0000 0.34940  0.61310  0.64490  Biso   1.000  H
  C2       1.0000 0.24850  0.56750  0.60184  Biso   1.000  C
  H2       1.0000 0.26330  0.57540  0.57380  Biso   1.000  H
  C3       1.0000 0.17510  0.53390  0.60070  Biso   1.000  C
  C4       1.0000 0.15960  0.52120  0.64290  Biso   1.000  C
  H3       1.0000 0.11180  0.49670  0.64350  Biso   1.000  H
  C5       1.0000 0.21400  0.54440  0.68400  Biso   1.000  C
  H4       1.0000 0.20230  0.53570  0.71280  Biso   1.000  H
  C6       1.0000 0.11590  0.51020  0.55448  Biso   1.000  C
  C7       1.0000 0.42710  0.71420  0.60690  Biso   1.000  C
  H5       1.0000 0.48690  0.70120  0.60810  Biso   1.000  H
  C8       1.0000 0.34960  0.69160  0.57500  Biso   1.000  C
  H6       1.0000 0.35620  0.66390  0.55440  Biso   1.000  H
  C9       1.0000 0.26190  0.70990  0.57349  Biso   1.000  C
  C10      1.0000 0.25610  0.74900  0.60520  Biso   1.000  C
  H7       1.0000 0.19710  0.76150  0.60600  Biso   1.000  H
  C11      1.0000 0.33690  0.76970  0.63580  Biso   1.000  C
  H8       1.0000 0.33200  0.79640  0.65760  Biso   1.000  H
  C12      1.0000 0.17450  0.68830  0.53846  Biso   1.000  C
  C13      1.0000 0.84020  0.52700  0.61220  Biso   1.000  C
  H9       1.0000 0.84600  0.48950  0.61650  Biso   1.000  H
  C14      1.0000 0.89100  0.55180  0.58650  Biso   1.000  C
  H10      1.0000 0.92970  0.53150  0.57310  Biso   1.000  H
  C15      1.0000 0.88440  0.60670  0.58066  Biso   1.000  C
  C16      1.0000 0.82810  0.63450  0.60170  Biso   1.000  C
  H11      1.0000 0.82360  0.67220  0.59930  Biso   1.000  H
  C17      1.0000 0.77870  0.60650  0.62610  Biso   1.000  C
  H12      1.0000 0.73950  0.62590  0.63980  Biso   1.000  H
  C18      1.0000 0.93800  0.63540  0.55247  Biso   1.000  C
  C19      1.0000 0.65760  0.56690  0.36880  Biso   1.000  C
  H13      1.0000 0.66190  0.53470  0.35270  Biso   1.000  H
  C20      1.0000 0.73900  0.59400  0.39110  Biso   1.000  C
  H14      1.0000 0.79750  0.58040  0.39070  Biso   1.000  H
  C21      1.0000 0.73400  0.64130  0.41400  Biso   1.000  C
  C22      1.0000 0.64690  0.65960  0.41340  Biso   1.000  C
  H15      1.0000 0.64080  0.69210  0.42870  Biso   1.000  H
  C23      1.0000 0.56910  0.63000  0.39030  Biso   1.000  C
  H16      1.0000 0.50980  0.64320  0.38980  Biso   1.000  H
  C24      1.0000 0.82130  0.67280  0.43920  Biso   1.000  C
  C25      1.0000 0.23370  0.74530  0.35230  Biso   1.000  C
  H17      1.0000 0.27430  0.72330  0.34160  Biso   1.000  H
  C26      1.0000 0.17810  0.72200  0.37570  Biso   1.000  C
  H18      1.0000 0.18080  0.68460  0.38130  Biso   1.000  H
  C27      1.0000 0.11840  0.75360  0.39100  Biso   1.000  C
  C28      1.0000 0.11090  0.80650  0.37875  Biso   1.000  C
  H19      1.0000 0.06600  0.82860  0.38600  Biso   1.000  H
  C29      1.0000 0.16950  0.82710  0.35570  Biso   1.000  C
  H20      1.0000 0.16460  0.86390  0.34780  Biso   1.000  H
  C30      1.0000 0.06440  0.72940  0.42119  Biso   1.000  C
  C31      1.0000 0.17620  0.88350  0.70330  Biso   1.000  C
  H21      1.0000 0.16320  0.88030  0.73240  Biso   1.000  H
  C32      1.0000 0.11970  0.85670  0.66490  Biso   1.000  C
  H22      1.0000 0.06910  0.83580  0.66760  Biso   1.000  H
  C33      1.0000 0.13770  0.86090  0.62200  Biso   1.000  C
  C34      1.0000 0.21430  0.88990  0.62050  Biso   1.000  C
  H23      1.0000 0.23050  0.89190  0.59220  Biso   1.000  H
  C35      1.0000 0.26760  0.91620  0.66090  Biso   1.000  C
  H24      1.0000 0.31950  0.93670  0.65920  Biso   1.000  H
  C36      1.0000 0.07630  0.83220  0.57890  Biso   1.000  C
  C37      1.0000 0.71670  0.76180  0.34230  Biso   1.000  C
  H25      1.0000 0.66420  0.74350  0.34600  Biso   1.000  H
  C38      1.0000 0.76750  0.79420  0.37889  Biso   1.000  C
  H26      1.0000 0.75010  0.79810  0.40680  Biso   1.000  H
  C39      1.0000 0.84400  0.82090  0.37393  Biso   1.000  C
  C40      1.0000 0.86270  0.81670  0.33150  Biso   1.000  C
  H27      1.0000 0.91170  0.83680  0.32600  Biso   1.000  H
  C41      1.0000 0.80950  0.78310  0.29740  Biso   1.000  C
  H28      1.0000 0.82440  0.77960  0.26870  Biso   1.000  H
  C42      1.0000 0.90640  0.85410  0.41334  Biso   1.000  C
  C43      1.0000 0.42030  0.04760  0.60530  Biso   1.000  C
  H29      1.0000 0.47990  0.04460  0.60100  Biso   1.000  H
  C44      1.0000 0.34690  0.02020  0.57490  Biso   1.000  C
  H30      1.0000 0.35590  0.99840  0.55050  Biso   1.000  H
  C45      1.0000 0.25950  0.02530  0.58080  Biso   1.000  C
  C46      1.0000 0.25040  0.05480  0.61760  Biso   1.000  C
  H31      1.0000 0.19170  0.05770  0.62310  Biso   1.000  H
  C47      1.0000 0.32780  0.08060  0.64706  Biso   1.000  C
  H32      1.0000 0.32110  0.10080  0.67280  Biso   1.000  H
  C48      1.0000 0.17850  0.99590  0.54752  Biso   1.000  C
  C49      1.0000 0.17990  0.13990  0.36900  Biso   1.000  C
  H33      1.0000 0.17250  0.17680  0.36140  Biso   1.000  H
  C50      1.0000 0.12570  0.11770  0.39370  Biso   1.000  C
  H34      1.0000 0.08380  0.13950  0.40370  Biso   1.000  H
  C51      1.0000 0.13180  0.06460  0.40390  Biso   1.000  C
  C52      1.0000 0.19580  0.03550  0.38960  Biso   1.000  C
  H35      1.0000 0.20210  0.99820  0.39560  Biso   1.000  H
  C53      1.0000 0.25050  0.06060  0.36670  Biso   1.000  C
  H36      1.0000 0.29650  0.04040  0.35840  Biso   1.000  H
  C54      1.0000 0.07700  0.03920  0.43270  Biso   1.000  C
  Pr4      1.0000 0.95849  0.09997  0.03527  Biso   1.000  Pr
  Pr5      1.0000 0.04327  0.25910  0.99612  Biso   1.000  Pr
  Pr6      1.0000 0.96642  0.42362  0.01491  Biso   1.000  Pr
  I13      1.0000 0.67227  0.06718  0.68386  Biso   1.000  I
  I14      1.0000 0.47779  0.14482  0.76064  Biso   1.000  I
  I15      1.0000 0.51239  0.21180  0.62694  Biso   1.000  I
  I16      1.0000 0.74063  0.21886  0.76966  Biso   1.000  I
  I17      1.0000 0.50222  0.31161  0.74011  Biso   1.000  I
  I18      1.0000 0.31580  0.24907  0.82795  Biso   1.000  I
  I19      1.0000 0.25782  0.10336  0.23503  Biso   1.000  I
  I20      1.0000 0.49648  0.39191  0.87204  Biso   1.000  I
  I21      1.0000 0.51281  0.47890  0.75054  Biso   1.000  I
  I22      1.0000 0.69596  0.41135  0.66421  Biso   1.000  I
  I23      1.0000 0.52865  0.94514  0.11902  Biso   1.000  I
  I24      1.0000 0.77345  0.55547  0.75322  Biso   1.000  I
  Cu13     1.0000 0.65107  0.12282  0.75770  Biso   1.000  Cu
  Cu14     1.0000 0.51720  0.12318  0.68027  Biso   1.000  Cu
  Cu15     1.0000 0.67713  0.17056  0.68566  Biso   1.000  Cu
  Cu16     1.0000 0.56396  0.21875  0.72084  Biso   1.000  Cu
  Cu17     1.0000 0.46878  0.29579  0.82356  Biso   1.000  Cu
  Cu18     1.0000 0.33075  0.20177  0.24721  Biso   1.000  Cu
  Cu19     1.0000 0.32351  0.35354  0.82165  Biso   1.000  Cu
  Cu20     1.0000 0.43610  0.39428  0.77982  Biso   1.000  Cu
  Cu21     1.0000 0.68166  0.46106  0.74282  Biso   1.000  Cu
  Cu22     1.0000 0.54014  0.03951  0.16594  Biso   1.000  Cu
  Cu23     1.0000 0.29745  0.01629  0.83424  Biso   1.000  Cu
  Cu24     1.0000 0.40714  0.05644  0.78827  Biso   1.000  Cu
  O19      1.0000 0.87700  0.02979  0.98294  Biso   1.000  O
  O20      1.0000 0.93540  0.97166  0.94282  Biso   1.000  O
  O21      1.0000 0.82070  0.14484  0.98032  Biso   1.000  O
  O22      1.0000 0.89780  0.21664  0.96920  Biso   1.000  O
  O23      1.0000 0.01190  0.10802  0.96498  Biso   1.000  O
  O24      1.0000 0.07330  0.18537  0.95100  Biso   1.000  O
  O25      1.0000 0.10130  0.15300  0.05736  Biso   1.000  O
  O26      1.0000 0.18940  0.21716  0.04441  Biso   1.000  O
  O27      1.0000 0.92440  0.18105  0.07058  Biso   1.000  O
  O28      1.0000 0.98570  0.26039  0.06371  Biso   1.000  O
  O29      1.0000 0.97590  0.29634  0.91480  Biso   1.000  O
  O30      1.0000 0.91940  0.34437  0.96183  Biso   1.000  O
  O31      1.0000 0.09270  0.34479  0.04420  Biso   1.000  O
  O32      1.0000 0.04470  0.38924  0.09643  Biso   1.000  O
  O33      1.0000 0.80480  0.45430  0.97075  Biso   1.000  O
  O34      1.0000 0.90270  0.51400  0.95981  Biso   1.000  O
  O35      1.0000 0.96500  0.57114  0.04802  Biso   1.000  O
  O36      1.0000 0.92090  0.48982  0.06339  Biso   1.000  O
  N10      1.0000 0.71670  0.07902  0.81467  Biso   1.000  N
  N11      1.0000 0.57830  0.25409  0.86369  Biso   1.000  N
  N12      1.0000 0.21650  0.05342  0.86875  Biso   1.000  N
  N13      1.0000 0.42720  0.08352  0.13133  Biso   1.000  N
  N14      1.0000 0.76750  0.29810  0.15590  Biso   1.000  N
  N15      1.0000 0.75100  0.41390  0.79776  Biso   1.000  N
  N16      1.0000 0.26270  0.25490  0.19759  Biso   1.000  N
  N17      1.0000 0.58860  0.57825  0.85933  Biso   1.000  N
  N18      1.0000 0.75870  0.61280  0.14460  Biso   1.000  N
  C55      1.0000 0.70010  0.08950  0.85550  Biso   1.000  C
  H37      1.0000 0.65060  0.11310  0.85510  Biso   1.000  H
  C56      1.0000 0.75150  0.06750  0.89816  Biso   1.000  C
  H38      1.0000 0.73670  0.07540  0.92620  Biso   1.000  H
  C57      1.0000 0.82490  0.03390  0.89930  Biso   1.000  C
  C58      1.0000 0.84040  0.02120  0.85710  Biso   1.000  C
  H39      1.0000 0.88820  0.99670  0.85650  Biso   1.000  H
  C59      1.0000 0.78600  0.04440  0.81600  Biso   1.000  C
  H40      1.0000 0.79770  0.03570  0.78720  Biso   1.000  H
  C60      1.0000 0.88410  0.01020  0.94552  Biso   1.000  C
  C61      1.0000 0.57290  0.21420  0.89310  Biso   1.000  C
  H41      1.0000 0.51310  0.20120  0.89190  Biso   1.000  H
  C62      1.0000 0.65040  0.19160  0.92500  Biso   1.000  C
  H42      1.0000 0.64380  0.16390  0.94560  Biso   1.000  H
  C63      1.0000 0.73810  0.20990  0.92651  Biso   1.000  C
  C64      1.0000 0.74390  0.24900  0.89480  Biso   1.000  C
  H43      1.0000 0.80290  0.26150  0.89400  Biso   1.000  H
  C65      1.0000 0.66310  0.26970  0.86420  Biso   1.000  C
  H44      1.0000 0.66800  0.29640  0.84240  Biso   1.000  H
  C66      1.0000 0.82550  0.18830  0.96154  Biso   1.000  C
  C67      1.0000 0.15980  0.02700  0.88780  Biso   1.000  C
  H45      1.0000 0.15400  0.98950  0.88350  Biso   1.000  H
  C68      1.0000 0.10900  0.05180  0.91350  Biso   1.000  C
  H46      1.0000 0.07030  0.03150  0.92690  Biso   1.000  H
  C69      1.0000 0.11560  0.10670  0.91934  Biso   1.000  C
  C70      1.0000 0.17190  0.13450  0.89830  Biso   1.000  C
  H47      1.0000 0.17640  0.17220  0.90070  Biso   1.000  H
  C71      1.0000 0.22130  0.10650  0.87390  Biso   1.000  C
  H48      1.0000 0.26050  0.12590  0.86020  Biso   1.000  H
  C72      1.0000 0.06200  0.13540  0.94753  Biso   1.000  C
  C73      1.0000 0.34240  0.06690  0.13120  Biso   1.000  C
  H49      1.0000 0.33810  0.03470  0.14730  Biso   1.000  H
  C74      1.0000 0.26100  0.09400  0.10890  Biso   1.000  C
  H50      1.0000 0.20250  0.08040  0.10930  Biso   1.000  H
  C75      1.0000 0.26600  0.14130  0.08600  Biso   1.000  C
  C76      1.0000 0.35310  0.15960  0.08660  Biso   1.000  C
  H51      1.0000 0.35920  0.19210  0.07130  Biso   1.000  H
  C77      1.0000 0.43090  0.13000  0.10970  Biso   1.000  C
  H52      1.0000 0.49020  0.14320  0.11020  Biso   1.000  H
  C78      1.0000 0.17870  0.17280  0.06080  Biso   1.000  C
  C79      1.0000 0.76630  0.24530  0.14770  Biso   1.000  C
  H53      1.0000 0.72570  0.22330  0.15840  Biso   1.000  H
  C80      1.0000 0.82190  0.22200  0.12430  Biso   1.000  C
  H54      1.0000 0.81920  0.18460  0.11870  Biso   1.000  H
  C81      1.0000 0.88160  0.25360  0.10900  Biso   1.000  C
  C82      1.0000 0.88910  0.30650  0.12125  Biso   1.000  C
  H55      1.0000 0.93400  0.32860  0.11400  Biso   1.000  H
  C83      1.0000 0.83050  0.32710  0.14430  Biso   1.000  C
  H56      1.0000 0.83540  0.36390  0.15220  Biso   1.000  H
  C84      1.0000 0.93560  0.22940  0.07881  Biso   1.000  C
  C85      1.0000 0.82380  0.38350  0.79670  Biso   1.000  C
  H57      1.0000 0.83680  0.38030  0.76760  Biso   1.000  H
  C86      1.0000 0.88030  0.35670  0.83510  Biso   1.000  C
  H58      1.0000 0.93090  0.33580  0.83240  Biso   1.000  H
  C87      1.0000 0.86230  0.36090  0.87800  Biso   1.000  C
  C88      1.0000 0.78570  0.38990  0.87950  Biso   1.000  C
  H59      1.0000 0.76950  0.39190  0.90780  Biso   1.000  H
  C89      1.0000 0.73240  0.41620  0.83910  Biso   1.000  C
  H60      1.0000 0.68050  0.43670  0.84080  Biso   1.000  H
  C90      1.0000 0.92370  0.33220  0.92110  Biso   1.000  C
  C91      1.0000 0.28330  0.26180  0.15770  Biso   1.000  C
  H61      1.0000 0.33580  0.24350  0.15400  Biso   1.000  H
  C92      1.0000 0.23250  0.29420  0.12111  Biso   1.000  C
  H62      1.0000 0.24990  0.29810  0.09320  Biso   1.000  H
  C93      1.0000 0.15600  0.32090  0.12607  Biso   1.000  C
  C94      1.0000 0.13730  0.31670  0.16850  Biso   1.000  C
  H63      1.0000 0.08830  0.33680  0.17400  Biso   1.000  H
  C95      1.0000 0.19050  0.28310  0.20260  Biso   1.000  C
  H64      1.0000 0.17560  0.27960  0.23130  Biso   1.000  H
  C96      1.0000 0.09360  0.35410  0.08666  Biso   1.000  C
  C97      1.0000 0.57970  0.54760  0.89470  Biso   1.000  C
  H65      1.0000 0.52010  0.54460  0.89900  Biso   1.000  H
  C98      1.0000 0.65310  0.52020  0.92510  Biso   1.000  C
  H66      1.0000 0.64410  0.49840  0.94950  Biso   1.000  H
  C99      1.0000 0.74050  0.52530  0.91920  Biso   1.000  C
  C100     1.0000 0.74960  0.55480  0.88240  Biso   1.000  C
  H67      1.0000 0.80830  0.55770  0.87690  Biso   1.000  H
  C101     1.0000 0.67220  0.58060  0.85294  Biso   1.000  C
  H68      1.0000 0.67890  0.60080  0.82720  Biso   1.000  H
  C102     1.0000 0.82150  0.49590  0.95248  Biso   1.000  C
  C103     1.0000 0.82010  0.63990  0.13100  Biso   1.000  C
  H69      1.0000 0.82750  0.67680  0.13860  Biso   1.000  H
  C104     1.0000 0.87430  0.61770  0.10630  Biso   1.000  C
  H70      1.0000 0.91620  0.63950  0.09630  Biso   1.000  H
  C105     1.0000 0.86820  0.56460  0.09610  Biso   1.000  C
  C106     1.0000 0.80420  0.53550  0.11040  Biso   1.000  C
  H71      1.0000 0.79790  0.49820  0.10440  Biso   1.000  H
  C107     1.0000 0.74950  0.56060  0.13330  Biso   1.000  C
  H72      1.0000 0.70350  0.54040  0.14160  Biso   1.000  H
  C108     1.0000 0.92300  0.53920  0.06730  Biso   1.000  C
  Pr7      1.0000 0.95849  0.40003  0.53527  Biso   1.000  Pr
  Pr8      1.0000 0.04327  0.24090  0.49612  Biso   1.000  Pr
  Pr9      1.0000 0.96642  0.07638  0.51491  Biso   1.000  Pr
  I25      1.0000 0.67227  0.43282  0.18386  Biso   1.000  I
  I26      1.0000 0.47779  0.35518  0.26064  Biso   1.000  I
  I27      1.0000 0.51239  0.28820  0.12694  Biso   1.000  I
  I28      1.0000 0.74063  0.28114  0.26966  Biso   1.000  I
  I29      1.0000 0.50222  0.18839  0.24011  Biso   1.000  I
  I30      1.0000 0.31580  0.25093  0.32795  Biso   1.000  I
  I31      1.0000 0.25782  0.39664  0.73503  Biso   1.000  I
  I32      1.0000 0.49648  0.10809  0.37204  Biso   1.000  I
  I33      1.0000 0.51281  0.02110  0.25054  Biso   1.000  I
  I34      1.0000 0.69596  0.08865  0.16421  Biso   1.000  I
  I35      1.0000 0.52865  0.55486  0.61902  Biso   1.000  I
  I36      1.0000 0.77345  0.94452  0.25322  Biso   1.000  I
  Cu25     1.0000 0.65107  0.37718  0.25770  Biso   1.000  Cu
  Cu26     1.0000 0.51720  0.37682  0.18027  Biso   1.000  Cu
  Cu27     1.0000 0.67713  0.32944  0.18566  Biso   1.000  Cu
  Cu28     1.0000 0.56396  0.28125  0.22084  Biso   1.000  Cu
  Cu29     1.0000 0.46878  0.20421  0.32356  Biso   1.000  Cu
  Cu30     1.0000 0.33075  0.29823  0.74721  Biso   1.000  Cu
  Cu31     1.0000 0.32351  0.14646  0.32165  Biso   1.000  Cu
  Cu32     1.0000 0.43610  0.10572  0.27982  Biso   1.000  Cu
  Cu33     1.0000 0.68166  0.03894  0.24282  Biso   1.000  Cu
  Cu34     1.0000 0.54014  0.46049  0.66594  Biso   1.000  Cu
  Cu35     1.0000 0.29745  0.48371  0.33424  Biso   1.000  Cu
  Cu36     1.0000 0.40714  0.44356  0.28827  Biso   1.000  Cu
  O37      1.0000 0.87700  0.47021  0.48294  Biso   1.000  O
  O38      1.0000 0.93540  0.52834  0.44282  Biso   1.000  O
  O39      1.0000 0.82070  0.35516  0.48032  Biso   1.000  O
  O40      1.0000 0.89780  0.28336  0.46920  Biso   1.000  O
  O41      1.0000 0.01190  0.39198  0.46498  Biso   1.000  O
  O42      1.0000 0.07330  0.31463  0.45100  Biso   1.000  O
  O43      1.0000 0.10130  0.34700  0.55736  Biso   1.000  O
  O44      1.0000 0.18940  0.28284  0.54441  Biso   1.000  O
  O45      1.0000 0.92440  0.31895  0.57058  Biso   1.000  O
  O46      1.0000 0.98570  0.23961  0.56371  Biso   1.000  O
  O47      1.0000 0.97590  0.20366  0.41480  Biso   1.000  O
  O48      1.0000 0.91940  0.15563  0.46183  Biso   1.000  O
  O49      1.0000 0.09270  0.15521  0.54420  Biso   1.000  O
  O50      1.0000 0.04470  0.11076  0.59643  Biso   1.000  O
  O51      1.0000 0.80480  0.04570  0.47075  Biso   1.000  O
  O52      1.0000 0.90270  0.98600  0.45981  Biso   1.000  O
  O53      1.0000 0.96500  0.92886  0.54802  Biso   1.000  O
  O54      1.0000 0.92090  0.01018  0.56339  Biso   1.000  O
  N19      1.0000 0.71670  0.42098  0.31467  Biso   1.000  N
  N20      1.0000 0.57830  0.24591  0.36369  Biso   1.000  N
  N21      1.0000 0.21650  0.44658  0.36875  Biso   1.000  N
  N22      1.0000 0.42720  0.41648  0.63133  Biso   1.000  N
  N23      1.0000 0.76750  0.20190  0.65590  Biso   1.000  N
  N24      1.0000 0.75100  0.08610  0.29776  Biso   1.000  N
  N25      1.0000 0.26270  0.24510  0.69759  Biso   1.000  N
  N26      1.0000 0.58860  0.92175  0.35933  Biso   1.000  N
  N27      1.0000 0.75870  0.88720  0.64460  Biso   1.000  N
  C109     1.0000 0.70010  0.41050  0.35550  Biso   1.000  C
  H73      1.0000 0.65060  0.38690  0.35510  Biso   1.000  H
  C110     1.0000 0.75150  0.43250  0.39816  Biso   1.000  C
  H74      1.0000 0.73670  0.42460  0.42620  Biso   1.000  H
  C111     1.0000 0.82490  0.46610  0.39930  Biso   1.000  C
  C112     1.0000 0.84040  0.47880  0.35710  Biso   1.000  C
  H75      1.0000 0.88820  0.50330  0.35650  Biso   1.000  H
  C113     1.0000 0.78600  0.45560  0.31600  Biso   1.000  C
  H76      1.0000 0.79770  0.46430  0.28720  Biso   1.000  H
  C114     1.0000 0.88410  0.48980  0.44552  Biso   1.000  C
  C115     1.0000 0.57290  0.28580  0.39310  Biso   1.000  C
  H77      1.0000 0.51310  0.29880  0.39190  Biso   1.000  H
  C116     1.0000 0.65040  0.30840  0.42500  Biso   1.000  C
  H78      1.0000 0.64380  0.33610  0.44560  Biso   1.000  H
  C117     1.0000 0.73810  0.29010  0.42651  Biso   1.000  C
  C118     1.0000 0.74390  0.25100  0.39480  Biso   1.000  C
  H79      1.0000 0.80290  0.23850  0.39400  Biso   1.000  H
  C119     1.0000 0.66310  0.23030  0.36420  Biso   1.000  C
  H80      1.0000 0.66800  0.20360  0.34240  Biso   1.000  H
  C120     1.0000 0.82550  0.31170  0.46154  Biso   1.000  C
  C121     1.0000 0.15980  0.47300  0.38780  Biso   1.000  C
  H81      1.0000 0.15400  0.51050  0.38350  Biso   1.000  H
  C122     1.0000 0.10900  0.44820  0.41350  Biso   1.000  C
  H82      1.0000 0.07030  0.46850  0.42690  Biso   1.000  H
  C123     1.0000 0.11560  0.39330  0.41934  Biso   1.000  C
  C124     1.0000 0.17190  0.36550  0.39830  Biso   1.000  C
  H83      1.0000 0.17640  0.32780  0.40070  Biso   1.000  H
  C125     1.0000 0.22130  0.39350  0.37390  Biso   1.000  C
  H84      1.0000 0.26050  0.37410  0.36020  Biso   1.000  H
  C126     1.0000 0.06200  0.36460  0.44753  Biso   1.000  C
  C127     1.0000 0.34240  0.43310  0.63120  Biso   1.000  C
  H85      1.0000 0.33810  0.46530  0.64730  Biso   1.000  H
  C128     1.0000 0.26100  0.40600  0.60890  Biso   1.000  C
  H86      1.0000 0.20250  0.41960  0.60930  Biso   1.000  H
  C129     1.0000 0.26600  0.35870  0.58600  Biso   1.000  C
  C130     1.0000 0.35310  0.34040  0.58660  Biso   1.000  C
  H87      1.0000 0.35920  0.30790  0.57130  Biso   1.000  H
  C131     1.0000 0.43090  0.37000  0.60970  Biso   1.000  C
  H88      1.0000 0.49020  0.35680  0.61020  Biso   1.000  H
  C132     1.0000 0.17870  0.32720  0.56080  Biso   1.000  C
  C133     1.0000 0.76630  0.25470  0.64770  Biso   1.000  C
  H89      1.0000 0.72570  0.27670  0.65840  Biso   1.000  H
  C134     1.0000 0.82190  0.27800  0.62430  Biso   1.000  C
  H90      1.0000 0.81920  0.31540  0.61870  Biso   1.000  H
  C135     1.0000 0.88160  0.24640  0.60900  Biso   1.000  C
  C136     1.0000 0.88910  0.19350  0.62125  Biso   1.000  C
  H91      1.0000 0.93400  0.17140  0.61400  Biso   1.000  H
  C137     1.0000 0.83050  0.17290  0.64430  Biso   1.000  C
  H92      1.0000 0.83540  0.13610  0.65220  Biso   1.000  H
  C138     1.0000 0.93560  0.27060  0.57881  Biso   1.000  C
  C139     1.0000 0.82380  0.11650  0.29670  Biso   1.000  C
  H93      1.0000 0.83680  0.11970  0.26760  Biso   1.000  H
  C140     1.0000 0.88030  0.14330  0.33510  Biso   1.000  C
  H94      1.0000 0.93090  0.16420  0.33240  Biso   1.000  H
  C141     1.0000 0.86230  0.13910  0.37800  Biso   1.000  C
  C142     1.0000 0.78570  0.11010  0.37950  Biso   1.000  C
  H95      1.0000 0.76950  0.10810  0.40780  Biso   1.000  H
  C143     1.0000 0.73240  0.08380  0.33910  Biso   1.000  C
  H96      1.0000 0.68050  0.06330  0.34080  Biso   1.000  H
  C144     1.0000 0.92370  0.16780  0.42110  Biso   1.000  C
  C145     1.0000 0.28330  0.23820  0.65770  Biso   1.000  C
  H97      1.0000 0.33580  0.25650  0.65400  Biso   1.000  H
  C146     1.0000 0.23250  0.20580  0.62111  Biso   1.000  C
  H98      1.0000 0.24990  0.20190  0.59320  Biso   1.000  H
  C147     1.0000 0.15600  0.17910  0.62607  Biso   1.000  C
  C148     1.0000 0.13730  0.18330  0.66850  Biso   1.000  C
  H99      1.0000 0.08830  0.16320  0.67400  Biso   1.000  H
  C149     1.0000 0.19050  0.21690  0.70260  Biso   1.000  C
  H100     1.0000 0.17560  0.22040  0.73130  Biso   1.000  H
  C150     1.0000 0.09360  0.14590  0.58666  Biso   1.000  C
  C151     1.0000 0.57970  0.95240  0.39470  Biso   1.000  C
  H101     1.0000 0.52010  0.95540  0.39900  Biso   1.000  H
  C152     1.0000 0.65310  0.97980  0.42510  Biso   1.000  C
  H102     1.0000 0.64410  0.00160  0.44950  Biso   1.000  H
  C153     1.0000 0.74050  0.97470  0.41920  Biso   1.000  C
  C154     1.0000 0.74960  0.94520  0.38240  Biso   1.000  C
  H103     1.0000 0.80830  0.94230  0.37690  Biso   1.000  H
  C155     1.0000 0.67220  0.91940  0.35294  Biso   1.000  C
  H104     1.0000 0.67890  0.89920  0.32720  Biso   1.000  H
  C156     1.0000 0.82150  0.00410  0.45248  Biso   1.000  C
  C157     1.0000 0.82010  0.86010  0.63100  Biso   1.000  C
  H105     1.0000 0.82750  0.82320  0.63860  Biso   1.000  H
  C158     1.0000 0.87430  0.88230  0.60630  Biso   1.000  C
  H106     1.0000 0.91620  0.86050  0.59630  Biso   1.000  H
  C159     1.0000 0.86820  0.93540  0.59610  Biso   1.000  C
  C160     1.0000 0.80420  0.96450  0.61040  Biso   1.000  C
  H107     1.0000 0.79790  0.00180  0.60440  Biso   1.000  H
  C161     1.0000 0.74950  0.93940  0.63330  Biso   1.000  C
  H108     1.0000 0.70350  0.95960  0.64160  Biso   1.000  H
  C162     1.0000 0.92300  0.96080  0.56730  Biso   1.000  C
  Pr10     1.0000 0.04151  0.90003  0.96473  Biso   1.000  Pr
  Pr11     1.0000 0.95673  0.74090  0.00388  Biso   1.000  Pr
  Pr12     1.0000 0.03358  0.57638  0.98509  Biso   1.000  Pr
  I37      1.0000 0.32773  0.93282  0.31614  Biso   1.000  I
  I38      1.0000 0.52221  0.85518  0.23936  Biso   1.000  I
  I39      1.0000 0.48761  0.78820  0.37306  Biso   1.000  I
  I40      1.0000 0.25937  0.78114  0.23034  Biso   1.000  I
  I41      1.0000 0.49778  0.68839  0.25989  Biso   1.000  I
  I42      1.0000 0.68420  0.75093  0.17205  Biso   1.000  I
  I43      1.0000 0.74218  0.89664  0.76497  Biso   1.000  I
  I44      1.0000 0.50352  0.60809  0.12795  Biso   1.000  I
  I45      1.0000 0.48719  0.52110  0.24946  Biso   1.000  I
  I46      1.0000 0.30404  0.58865  0.33579  Biso   1.000  I
  I47      1.0000 0.47135  0.05486  0.88098  Biso   1.000  I
  I48      1.0000 0.22655  0.44452  0.24678  Biso   1.000  I
  Cu37     1.0000 0.34893  0.87718  0.24230  Biso   1.000  Cu
  Cu38     1.0000 0.48280  0.87682  0.31973  Biso   1.000  Cu
  Cu39     1.0000 0.32287  0.82944  0.31434  Biso   1.000  Cu
  Cu40     1.0000 0.43604  0.78125  0.27916  Biso   1.000  Cu
  Cu41     1.0000 0.53122  0.70421  0.17644  Biso   1.000  Cu
  Cu42     1.0000 0.66925  0.79823  0.75279  Biso   1.000  Cu
  Cu43     1.0000 0.67649  0.64646  0.17835  Biso   1.000  Cu
  Cu44     1.0000 0.56390  0.60572  0.22018  Biso   1.000  Cu
  Cu45     1.0000 0.31834  0.53894  0.25718  Biso   1.000  Cu
  Cu46     1.0000 0.45986  0.96049  0.83406  Biso   1.000  Cu
  Cu47     1.0000 0.70255  0.98371  0.16576  Biso   1.000  Cu
  Cu48     1.0000 0.59286  0.94356  0.21173  Biso   1.000  Cu
  O55      1.0000 0.12300  0.97021  0.01706  Biso   1.000  O
  O56      1.0000 0.06460  0.02834  0.05718  Biso   1.000  O
  O57      1.0000 0.17930  0.85516  0.01968  Biso   1.000  O
  O58      1.0000 0.10220  0.78336  0.03080  Biso   1.000  O
  O59      1.0000 0.98810  0.89198  0.03502  Biso   1.000  O
  O60      1.0000 0.92670  0.81463  0.04900  Biso   1.000  O
  O61      1.0000 0.89870  0.84700  0.94264  Biso   1.000  O
  O62      1.0000 0.81060  0.78284  0.95559  Biso   1.000  O
  O63      1.0000 0.07560  0.81895  0.92942  Biso   1.000  O
  O64      1.0000 0.01430  0.73961  0.93629  Biso   1.000  O
  O65      1.0000 0.02410  0.70366  0.08520  Biso   1.000  O
  O66      1.0000 0.08060  0.65563  0.03817  Biso   1.000  O
  O67      1.0000 0.90730  0.65521  0.95580  Biso   1.000  O
  O68      1.0000 0.95530  0.61076  0.90357  Biso   1.000  O
  O69      1.0000 0.19520  0.54570  0.02925  Biso   1.000  O
  O70      1.0000 0.09730  0.48600  0.04019  Biso   1.000  O
  O71      1.0000 0.03500  0.42886  0.95198  Biso   1.000  O
  O72      1.0000 0.07910  0.51018  0.93661  Biso   1.000  O
  N28      1.0000 0.28330  0.92098  0.18533  Biso   1.000  N
  N29      1.0000 0.42170  0.74591  0.13631  Biso   1.000  N
  N30      1.0000 0.78350  0.94658  0.13125  Biso   1.000  N
  N31      1.0000 0.57280  0.91648  0.86867  Biso   1.000  N
  N32      1.0000 0.23250  0.70190  0.84410  Biso   1.000  N
  N33      1.0000 0.24900  0.58610  0.20224  Biso   1.000  N
  N34      1.0000 0.73730  0.74510  0.80241  Biso   1.000  N
  N35      1.0000 0.41140  0.42175  0.14067  Biso   1.000  N
  N36      1.0000 0.24130  0.38720  0.85540  Biso   1.000  N
  C163     1.0000 0.29990  0.91050  0.14450  Biso   1.000  C
  H109     1.0000 0.34940  0.88690  0.14490  Biso   1.000  H
  C164     1.0000 0.24850  0.93250  0.10184  Biso   1.000  C
  H110     1.0000 0.26330  0.92460  0.07380  Biso   1.000  H
  C165     1.0000 0.17510  0.96610  0.10070  Biso   1.000  C
  C166     1.0000 0.15960  0.97880  0.14290  Biso   1.000  C
  H111     1.0000 0.11180  0.00330  0.14350  Biso   1.000  H
  C167     1.0000 0.21400  0.95560  0.18400  Biso   1.000  C
  H112     1.0000 0.20230  0.96430  0.21280  Biso   1.000  H
  C168     1.0000 0.11590  0.98980  0.05448  Biso   1.000  C
  C169     1.0000 0.42710  0.78580  0.10690  Biso   1.000  C
  H113     1.0000 0.48690  0.79880  0.10810  Biso   1.000  H
  C170     1.0000 0.34960  0.80840  0.07500  Biso   1.000  C
  H114     1.0000 0.35620  0.83610  0.05440  Biso   1.000  H
  C171     1.0000 0.26190  0.79010  0.07349  Biso   1.000  C
  C172     1.0000 0.25610  0.75100  0.10520  Biso   1.000  C
  H115     1.0000 0.19710  0.73850  0.10600  Biso   1.000  H
  C173     1.0000 0.33690  0.73030  0.13580  Biso   1.000  C
  H116     1.0000 0.33200  0.70360  0.15760  Biso   1.000  H
  C174     1.0000 0.17450  0.81170  0.03846  Biso   1.000  C
  C175     1.0000 0.84020  0.97300  0.11220  Biso   1.000  C
  H117     1.0000 0.84600  0.01050  0.11650  Biso   1.000  H
  C176     1.0000 0.89100  0.94820  0.08650  Biso   1.000  C
  H118     1.0000 0.92970  0.96850  0.07310  Biso   1.000  H
  C177     1.0000 0.88440  0.89330  0.08066  Biso   1.000  C
  C178     1.0000 0.82810  0.86550  0.10170  Biso   1.000  C
  H119     1.0000 0.82360  0.82780  0.09930  Biso   1.000  H
  C179     1.0000 0.77870  0.89350  0.12610  Biso   1.000  C
  H120     1.0000 0.73950  0.87410  0.13980  Biso   1.000  H
  C180     1.0000 0.93800  0.86460  0.05247  Biso   1.000  C
  C181     1.0000 0.65760  0.93310  0.86880  Biso   1.000  C
  H121     1.0000 0.66190  0.96530  0.85270  Biso   1.000  H
  C182     1.0000 0.73900  0.90600  0.89110  Biso   1.000  C
  H122     1.0000 0.79750  0.91960  0.89070  Biso   1.000  H
  C183     1.0000 0.73400  0.85870  0.91400  Biso   1.000  C
  C184     1.0000 0.64690  0.84040  0.91340  Biso   1.000  C
  H123     1.0000 0.64080  0.80790  0.92870  Biso   1.000  H
  C185     1.0000 0.56910  0.87000  0.89030  Biso   1.000  C
  H124     1.0000 0.50980  0.85680  0.88980  Biso   1.000  H
  C186     1.0000 0.82130  0.82720  0.93920  Biso   1.000  C
  C187     1.0000 0.23370  0.75470  0.85230  Biso   1.000  C
  H125     1.0000 0.27430  0.77670  0.84160  Biso   1.000  H
  C188     1.0000 0.17810  0.77800  0.87570  Biso   1.000  C
  H126     1.0000 0.18080  0.81540  0.88130  Biso   1.000  H
  C189     1.0000 0.11840  0.74640  0.89100  Biso   1.000  C
  C190     1.0000 0.11090  0.69350  0.87875  Biso   1.000  C
  H127     1.0000 0.06600  0.67140  0.88600  Biso   1.000  H
  C191     1.0000 0.16950  0.67290  0.85570  Biso   1.000  C
  H128     1.0000 0.16460  0.63610  0.84780  Biso   1.000  H
  C192     1.0000 0.06440  0.77060  0.92119  Biso   1.000  C
  C193     1.0000 0.17620  0.61650  0.20330  Biso   1.000  C
  H129     1.0000 0.16320  0.61970  0.23240  Biso   1.000  H
  C194     1.0000 0.11970  0.64330  0.16490  Biso   1.000  C
  H130     1.0000 0.06910  0.66420  0.16760  Biso   1.000  H
  C195     1.0000 0.13770  0.63910  0.12200  Biso   1.000  C
  C196     1.0000 0.21430  0.61010  0.12050  Biso   1.000  C
  H131     1.0000 0.23050  0.60810  0.09220  Biso   1.000  H
  C197     1.0000 0.26760  0.58380  0.16090  Biso   1.000  C
  H132     1.0000 0.31950  0.56330  0.15920  Biso   1.000  H
  C198     1.0000 0.07630  0.66780  0.07890  Biso   1.000  C
  C199     1.0000 0.71670  0.73820  0.84230  Biso   1.000  C
  H133     1.0000 0.66420  0.75650  0.84600  Biso   1.000  H
  C200     1.0000 0.76750  0.70580  0.87889  Biso   1.000  C
  H134     1.0000 0.75010  0.70190  0.90680  Biso   1.000  H
  C201     1.0000 0.84400  0.67910  0.87393  Biso   1.000  C
  C202     1.0000 0.86270  0.68330  0.83150  Biso   1.000  C
  H135     1.0000 0.91170  0.66320  0.82600  Biso   1.000  H
  C203     1.0000 0.80950  0.71690  0.79740  Biso   1.000  C
  H136     1.0000 0.82440  0.72040  0.76870  Biso   1.000  H
  C204     1.0000 0.90640  0.64590  0.91334  Biso   1.000  C
  C205     1.0000 0.42030  0.45240  0.10530  Biso   1.000  C
  H137     1.0000 0.47990  0.45540  0.10100  Biso   1.000  H
  C206     1.0000 0.34690  0.47980  0.07490  Biso   1.000  C
  H138     1.0000 0.35590  0.50160  0.05050  Biso   1.000  H
  C207     1.0000 0.25950  0.47470  0.08080  Biso   1.000  C
  C208     1.0000 0.25040  0.44520  0.11760  Biso   1.000  C
  H139     1.0000 0.19170  0.44230  0.12310  Biso   1.000  H
  C209     1.0000 0.32780  0.41940  0.14706  Biso   1.000  C
  H140     1.0000 0.32110  0.39920  0.17280  Biso   1.000  H
  C210     1.0000 0.17850  0.50410  0.04752  Biso   1.000  C
  C211     1.0000 0.17990  0.36010  0.86900  Biso   1.000  C
  H141     1.0000 0.17250  0.32320  0.86140  Biso   1.000  H
  C212     1.0000 0.12570  0.38230  0.89370  Biso   1.000  C
  H142     1.0000 0.08380  0.36050  0.90370  Biso   1.000  H
  C213     1.0000 0.13180  0.43540  0.90390  Biso   1.000  C
  C214     1.0000 0.19580  0.46450  0.88960  Biso   1.000  C
  H143     1.0000 0.20210  0.50180  0.89560  Biso   1.000  H
  C215     1.0000 0.25050  0.43940  0.86670  Biso   1.000  C
  H144     1.0000 0.29650  0.45960  0.85840  Biso   1.000  H
  C216     1.0000 0.07700  0.46080  0.93270  Biso   1.000  C
