data_image0
_cell_length_a       15.289
_cell_length_b       8.168
_cell_length_c       28.995
_cell_angle_alpha    90
_cell_angle_beta     100.646
_cell_angle_gamma    90

_symmetry_space_group_name_H-M    "P 1"
_symmetry_int_tables_number       1

loop_
  _symmetry_equiv_pos_as_xyz
  'x, y, z'

loop_
  _atom_site_label
  _atom_site_occupancy
  _atom_site_fract_x
  _atom_site_fract_y
  _atom_site_fract_z
  _atom_site_thermal_displace_type
  _atom_site_B_iso_or_equiv
  _atom_site_type_symbol
  Pr1      1.0000 0.55017  0.25071  0.01181  Biso   1.000  Pr
  Cu1      1.0000 0.99843  0.56998  0.17016  Biso   1.000  Cu
  Cu2      1.0000 0.14509  0.70179  0.21415  Biso   1.000  Cu
  Cu3      1.0000 0.42503  0.92063  0.25049  Biso   1.000  Cu
  Cu4      1.0000 0.35247  0.89653  0.32433  Biso   1.000  Cu
  I1       1.0000 0.12366  0.67954  0.12244  Biso   1.000  I
  I2       1.0000 0.00516  0.71975  0.25432  Biso   1.000  I
  I3       1.0000 0.24726  0.96087  0.24098  Biso   1.000  I
  I4       1.0000 0.50912  0.74941  0.32853  Biso   1.000  I
  O1       1.0000 0.35890  0.95790  0.94246  Biso   1.000  O
  O2       1.0000 0.42110  0.20680  0.95060  Biso   1.000  O
  O3       1.0000 0.56660  0.37470  0.09308  Biso   1.000  O
  O4       1.0000 0.46460  0.50590  0.04332  Biso   1.000  O
  O5       1.0000 0.64130  0.12590  0.96050  Biso   1.000  O
  O6       1.0000 0.55220  0.91230  0.95470  Biso   1.000  O
  N1       1.0000 0.11550  0.32830  0.86410  Biso   1.000  N
  N2       1.0000 0.44890  0.77160  0.19820  Biso   1.000  N
  N3       1.0000 0.77810  0.74080  0.86030  Biso   1.000  N
  C1       1.0000 0.12050  0.16990  0.87440  Biso   1.000  C
  H1       1.0000 0.06870  0.10480  0.86520  Biso   1.000  H
  C2       1.0000 0.19680  0.09430  0.89760  Biso   1.000  C
  H2       1.0000 0.19630  0.98080  0.90480  Biso   1.000  H
  C3       1.0000 0.27340  0.18400  0.91030  Biso   1.000  C
  C4       1.0000 0.26950  0.34810  0.89830  Biso   1.000  C
  H3       1.0000 0.32110  0.41480  0.90570  Biso   1.000  H
  C5       1.0000 0.19010  0.41430  0.87540  Biso   1.000  C
  H4       1.0000 0.18880  0.52710  0.86730  Biso   1.000  H
  C6       1.0000 0.35770  0.10920  0.93620  Biso   1.000  C
  C7       1.0000 0.52750  0.69830  0.20070  Biso   1.000  C
  H5       1.0000 0.57140  0.71280  0.22810  Biso   1.000  H
  C8       1.0000 0.54780  0.60180  0.16460  Biso   1.000  C
  H6       1.0000 0.60420  0.54990  0.16780  Biso   1.000  H
  C9       1.0000 0.48500  0.58210  0.12430  Biso   1.000  C
  C10      1.0000 0.40460  0.65410  0.12230  Biso   1.000  C
  H7       1.0000 0.35950  0.64030  0.09530  Biso   1.000  H
  C11      1.0000 0.38780  0.74820  0.15970  Biso   1.000  C
  H8       1.0000 0.33080  0.79730  0.15760  Biso   1.000  H
  C12      1.0000 0.50730  0.48040  0.08460  Biso   1.000  C
  C13      1.0000 0.81240  0.85800  0.89080  Biso   1.000  C
  H9       1.0000 0.87360  0.88480  0.89350  Biso   1.000  H
  C14      1.0000 0.76280  0.94090  0.91830  Biso   1.000  C
  H10      1.0000 0.78930  0.02360  0.93930  Biso   1.000  H
  C15      1.0000 0.67420  0.90250  0.91480  Biso   1.000  C
  C16      1.0000 0.63680  0.78800  0.88210  Biso   1.000  C
  H11      1.0000 0.57510  0.76320  0.87760  Biso   1.000  H
  C17      1.0000 0.69150  0.71030  0.85590  Biso   1.000  C
  H12      1.0000 0.66580  0.63080  0.83350  Biso   1.000  H
  C18      1.0000 0.61870  0.98620  0.94570  Biso   1.000  C
  Pr2      1.0000 0.94983  0.75071  0.48819  Biso   1.000  Pr
  Cu5      1.0000 0.50157  0.06998  0.32984  Biso   1.000  Cu
  Cu6      1.0000 0.35491  0.20179  0.28585  Biso   1.000  Cu
  Cu7      1.0000 0.07497  0.42063  0.24951  Biso   1.000  Cu
  Cu8      1.0000 0.14753  0.39653  0.17567  Biso   1.000  Cu
  I5       1.0000 0.37634  0.17954  0.37756  Biso   1.000  I
  I6       1.0000 0.49484  0.21975  0.24568  Biso   1.000  I
  I7       1.0000 0.25274  0.46087  0.25902  Biso   1.000  I
  I8       1.0000 0.99088  0.24941  0.17147  Biso   1.000  I
  O7       1.0000 0.14110  0.45790  0.55754  Biso   1.000  O
  O8       1.0000 0.07890  0.70680  0.54940  Biso   1.000  O
  O9       1.0000 0.93340  0.87470  0.40692  Biso   1.000  O
  O10      1.0000 0.03540  0.00590  0.45668  Biso   1.000  O
  O11      1.0000 0.85870  0.62590  0.53950  Biso   1.000  O
  O12      1.0000 0.94780  0.41230  0.54530  Biso   1.000  O
  N4       1.0000 0.38450  0.82830  0.63590  Biso   1.000  N
  N5       1.0000 0.05110  0.27160  0.30180  Biso   1.000  N
  N6       1.0000 0.72190  0.24080  0.63970  Biso   1.000  N
  C19      1.0000 0.37950  0.66990  0.62560  Biso   1.000  C
  H13      1.0000 0.43130  0.60480  0.63480  Biso   1.000  H
  C20      1.0000 0.30320  0.59430  0.60240  Biso   1.000  C
  H14      1.0000 0.30370  0.48080  0.59520  Biso   1.000  H
  C21      1.0000 0.22660  0.68400  0.58970  Biso   1.000  C
  C22      1.0000 0.23050  0.84810  0.60170  Biso   1.000  C
  H15      1.0000 0.17890  0.91480  0.59430  Biso   1.000  H
  C23      1.0000 0.30990  0.91430  0.62460  Biso   1.000  C
  H16      1.0000 0.31120  0.02710  0.63270  Biso   1.000  H
  C24      1.0000 0.14230  0.60920  0.56380  Biso   1.000  C
  C25      1.0000 0.97250  0.19830  0.29930  Biso   1.000  C
  H17      1.0000 0.92860  0.21280  0.27190  Biso   1.000  H
  C26      1.0000 0.95220  0.10180  0.33540  Biso   1.000  C
  H18      1.0000 0.89580  0.04990  0.33220  Biso   1.000  H
  C27      1.0000 0.01500  0.08210  0.37570  Biso   1.000  C
  C28      1.0000 0.09540  0.15410  0.37770  Biso   1.000  C
  H19      1.0000 0.14050  0.14030  0.40470  Biso   1.000  H
  C29      1.0000 0.11220  0.24820  0.34030  Biso   1.000  C
  H20      1.0000 0.16920  0.29730  0.34240  Biso   1.000  H
  C30      1.0000 0.99270  0.98040  0.41540  Biso   1.000  C
  C31      1.0000 0.68760  0.35800  0.60920  Biso   1.000  C
  H21      1.0000 0.62640  0.38480  0.60650  Biso   1.000  H
  C32      1.0000 0.73720  0.44090  0.58170  Biso   1.000  C
  H22      1.0000 0.71070  0.52360  0.56070  Biso   1.000  H
  C33      1.0000 0.82580  0.40250  0.58520  Biso   1.000  C
  C34      1.0000 0.86320  0.28800  0.61790  Biso   1.000  C
  H23      1.0000 0.92490  0.26320  0.62240  Biso   1.000  H
  C35      1.0000 0.80850  0.21030  0.64410  Biso   1.000  C
  H24      1.0000 0.83420  0.13080  0.66650  Biso   1.000  H
  C36      1.0000 0.88130  0.48620  0.55430  Biso   1.000  C
  Pr3      1.0000 0.44983  0.74929  0.98819  Biso   1.000  Pr
  Cu9      1.0000 0.00157  0.43002  0.82984  Biso   1.000  Cu
  Cu10     1.0000 0.85491  0.29821  0.78585  Biso   1.000  Cu
  Cu11     1.0000 0.57497  0.07937  0.74951  Biso   1.000  Cu
  Cu12     1.0000 0.64753  0.10347  0.67567  Biso   1.000  Cu
  I9       1.0000 0.87634  0.32046  0.87756  Biso   1.000  I
  I10      1.0000 0.99484  0.28025  0.74568  Biso   1.000  I
  I11      1.0000 0.75274  0.03913  0.75902  Biso   1.000  I
  I12      1.0000 0.49088  0.25059  0.67147  Biso   1.000  I
  O13      1.0000 0.64110  0.04210  0.05754  Biso   1.000  O
  O14      1.0000 0.57890  0.79320  0.04940  Biso   1.000  O
  O15      1.0000 0.43340  0.62530  0.90692  Biso   1.000  O
  O16      1.0000 0.53540  0.49410  0.95668  Biso   1.000  O
  O17      1.0000 0.35870  0.87410  0.03950  Biso   1.000  O
  O18      1.0000 0.44780  0.08770  0.04530  Biso   1.000  O
  N7       1.0000 0.88450  0.67170  0.13590  Biso   1.000  N
  N8       1.0000 0.55110  0.22840  0.80180  Biso   1.000  N
  N9       1.0000 0.22190  0.25920  0.13970  Biso   1.000  N
  C37      1.0000 0.87950  0.83010  0.12560  Biso   1.000  C
  H25      1.0000 0.93130  0.89520  0.13480  Biso   1.000  H
  C38      1.0000 0.80320  0.90570  0.10240  Biso   1.000  C
  H26      1.0000 0.80370  0.01920  0.09520  Biso   1.000  H
  C39      1.0000 0.72660  0.81600  0.08970  Biso   1.000  C
  C40      1.0000 0.73050  0.65190  0.10170  Biso   1.000  C
  H27      1.0000 0.67890  0.58520  0.09430  Biso   1.000  H
  C41      1.0000 0.80990  0.58570  0.12460  Biso   1.000  C
  H28      1.0000 0.81120  0.47290  0.13270  Biso   1.000  H
  C42      1.0000 0.64230  0.89080  0.06380  Biso   1.000  C
  C43      1.0000 0.47250  0.30170  0.79930  Biso   1.000  C
  H29      1.0000 0.42860  0.28720  0.77190  Biso   1.000  H
  C44      1.0000 0.45220  0.39820  0.83540  Biso   1.000  C
  H30      1.0000 0.39580  0.45010  0.83220  Biso   1.000  H
  C45      1.0000 0.51500  0.41790  0.87570  Biso   1.000  C
  C46      1.0000 0.59540  0.34590  0.87770  Biso   1.000  C
  H31      1.0000 0.64050  0.35970  0.90470  Biso   1.000  H
  C47      1.0000 0.61220  0.25180  0.84030  Biso   1.000  C
  H32      1.0000 0.66920  0.20270  0.84240  Biso   1.000  H
  C48      1.0000 0.49270  0.51960  0.91540  Biso   1.000  C
  C49      1.0000 0.18760  0.14200  0.10920  Biso   1.000  C
  H33      1.0000 0.12640  0.11520  0.10650  Biso   1.000  H
  C50      1.0000 0.23720  0.05910  0.08170  Biso   1.000  C
  H34      1.0000 0.21070  0.97640  0.06070  Biso   1.000  H
  C51      1.0000 0.32580  0.09750  0.08520  Biso   1.000  C
  C52      1.0000 0.36320  0.21200  0.11790  Biso   1.000  C
  H35      1.0000 0.42490  0.23680  0.12240  Biso   1.000  H
  C53      1.0000 0.30850  0.28970  0.14410  Biso   1.000  C
  H36      1.0000 0.33420  0.36920  0.16650  Biso   1.000  H
  C54      1.0000 0.38130  0.01380  0.05430  Biso   1.000  C
  Pr4      1.0000 0.05017  0.24929  0.51181  Biso   1.000  Pr
  Cu13     1.0000 0.49843  0.93002  0.67016  Biso   1.000  Cu
  Cu14     1.0000 0.64509  0.79821  0.71415  Biso   1.000  Cu
  Cu15     1.0000 0.92503  0.57937  0.75049  Biso   1.000  Cu
  Cu16     1.0000 0.85247  0.60347  0.82433  Biso   1.000  Cu
  I13      1.0000 0.62366  0.82046  0.62244  Biso   1.000  I
  I14      1.0000 0.50516  0.78025  0.75432  Biso   1.000  I
  I15      1.0000 0.74726  0.53913  0.74098  Biso   1.000  I
  I16      1.0000 0.00912  0.75059  0.82853  Biso   1.000  I
  O19      1.0000 0.85890  0.54210  0.44246  Biso   1.000  O
  O20      1.0000 0.92110  0.29320  0.45060  Biso   1.000  O
  O21      1.0000 0.06660  0.12530  0.59308  Biso   1.000  O
  O22      1.0000 0.96460  0.99410  0.54332  Biso   1.000  O
  O23      1.0000 0.14130  0.37410  0.46050  Biso   1.000  O
  O24      1.0000 0.05220  0.58770  0.45470  Biso   1.000  O
  N10      1.0000 0.61550  0.17170  0.36410  Biso   1.000  N
  N11      1.0000 0.94890  0.72840  0.69820  Biso   1.000  N
  N12      1.0000 0.27810  0.75920  0.36030  Biso   1.000  N
  C55      1.0000 0.62050  0.33010  0.37440  Biso   1.000  C
  H37      1.0000 0.56870  0.39520  0.36520  Biso   1.000  H
  C56      1.0000 0.69680  0.40570  0.39760  Biso   1.000  C
  H38      1.0000 0.69630  0.51920  0.40480  Biso   1.000  H
  C57      1.0000 0.77340  0.31600  0.41030  Biso   1.000  C
  C58      1.0000 0.76950  0.15190  0.39830  Biso   1.000  C
  H39      1.0000 0.82110  0.08520  0.40570  Biso   1.000  H
  C59      1.0000 0.69010  0.08570  0.37540  Biso   1.000  C
  H40      1.0000 0.68880  0.97290  0.36730  Biso   1.000  H
  C60      1.0000 0.85770  0.39080  0.43620  Biso   1.000  C
  C61      1.0000 0.02750  0.80170  0.70070  Biso   1.000  C
  H41      1.0000 0.07140  0.78720  0.72810  Biso   1.000  H
  C62      1.0000 0.04780  0.89820  0.66460  Biso   1.000  C
  H42      1.0000 0.10420  0.95010  0.66780  Biso   1.000  H
  C63      1.0000 0.98500  0.91790  0.62430  Biso   1.000  C
  C64      1.0000 0.90460  0.84590  0.62230  Biso   1.000  C
  H43      1.0000 0.85950  0.85970  0.59530  Biso   1.000  H
  C65      1.0000 0.88780  0.75180  0.65970  Biso   1.000  C
  H44      1.0000 0.83080  0.70270  0.65760  Biso   1.000  H
  C66      1.0000 0.00730  0.01960  0.58460  Biso   1.000  C
  C67      1.0000 0.31240  0.64200  0.39080  Biso   1.000  C
  H45      1.0000 0.37360  0.61520  0.39350  Biso   1.000  H
  C68      1.0000 0.26280  0.55910  0.41830  Biso   1.000  C
  H46      1.0000 0.28930  0.47640  0.43930  Biso   1.000  H
  C69      1.0000 0.17420  0.59750  0.41480  Biso   1.000  C
  C70      1.0000 0.13680  0.71200  0.38210  Biso   1.000  C
  H47      1.0000 0.07510  0.73680  0.37760  Biso   1.000  H
  C71      1.0000 0.19150  0.78970  0.35590  Biso   1.000  C
  H48      1.0000 0.16580  0.86920  0.33350  Biso   1.000  H
  C72      1.0000 0.11870  0.51380  0.44570  Biso   1.000  C
