data_AWEBIO_charged
_audit_creation_date              2014-07-02
_audit_creation_method            'Materials Studio'
_symmetry_space_group_name_H-M    'P1'
_symmetry_Int_Tables_number       1
_symmetry_cell_setting            triclinic
loop_
_symmetry_equiv_pos_as_xyz
  x,y,z
_cell_length_a                    10.8346
_cell_length_b                    13.8427
_cell_length_c                    27.9882
_cell_angle_alpha                 97.5540
_cell_angle_beta                  90.0000
_cell_angle_gamma                 90.0000
loop_
_atom_site_label
_atom_site_type_symbol
_atom_site_fract_x
_atom_site_fract_y
_atom_site_fract_z
_atom_site_U_iso_or_equiv
_atom_site_adp_type
_atom_site_occupancy
U1     U     0.87917   0.59061   0.52405   0.01267  Uiso   1.00
U2     U     0.88671   0.55329   0.38871   0.01267  Uiso   1.00
U3     U     0.37917   0.90939   0.97595   0.01267  Uiso   1.00
U4     U     0.38671   0.94671   0.11129   0.01267  Uiso   1.00
U5     U     0.12083   0.40939   0.47595   0.01267  Uiso   1.00
U6     U     0.11329   0.44671   0.61129   0.01267  Uiso   1.00
U7     U     0.62083   0.09061   0.02405   0.01267  Uiso   1.00
U8     U     0.61329   0.05329   0.88871   0.01267  Uiso   1.00
H1     H     0.71480   0.60590   0.45250   0.01267  Uiso   1.00
H2     H     0.85870   0.22850   0.78770   0.01267  Uiso   1.00
H3     H     0.80710   0.14890   0.74740   0.01267  Uiso   1.00
H4     H     0.65010   0.29880   0.79250   0.01267  Uiso   1.00
H5     H     0.62010   0.22960   0.74500   0.01267  Uiso   1.00
H6     H     0.79890   0.38010   0.75160   0.01267  Uiso   1.00
H7     H     0.77380   0.30930   0.70420   0.01267  Uiso   1.00
H8     H     0.59350   0.44060   0.74760   0.01267  Uiso   1.00
H9     H     0.57630   0.37430   0.69830   0.01267  Uiso   1.00
H10    H     0.61710   0.52920   0.68170   0.01267  Uiso   1.00
H11    H     0.73030   0.46400   0.66400   0.01267  Uiso   1.00
H12    H     0.73000   0.59070   0.75160   0.01267  Uiso   1.00
H13    H     0.84430   0.52930   0.73090   0.01267  Uiso   1.00
H14    H     0.86260   0.69240   0.71500   0.01267  Uiso   1.00
H15    H     0.73840   0.68210   0.68590   0.01267  Uiso   1.00
H16    H     0.63100   0.82130   0.68440   0.01267  Uiso   1.00
H17    H     0.48240   0.71030   0.65800   0.01267  Uiso   1.00
H18    H     0.54820   0.59490   0.53990   0.01267  Uiso   1.00
H19    H     0.43940   0.59140   0.57670   0.01267  Uiso   1.00
H20    H     0.25280   0.71790   0.62790   0.01267  Uiso   1.00
H21    H     0.20150   0.82460   0.63480   0.01267  Uiso   1.00
H22    H     0.22630   0.63280   0.54230   0.01267  Uiso   1.00
H23    H     0.15560   0.67370   0.47110   0.01267  Uiso   1.00
H24    H     0.24700   0.67460   0.39180   0.01267  Uiso   1.00
H25    H     0.39050   0.68120   0.38690   0.01267  Uiso   1.00
H26    H     0.03210   0.90070   0.48740   0.01267  Uiso   1.00
H27    H     0.03370   0.80270   0.45240   0.01267  Uiso   1.00
H28    H     0.12690   0.81470   0.36840   0.01267  Uiso   1.00
H29    H     0.16530   0.94920   0.33010   0.01267  Uiso   1.00
H30    H     0.63140   0.99760   0.71190   0.01267  Uiso   1.00
H31    H     0.51200   0.05400   0.70060   0.01267  Uiso   1.00
H32    H     0.83740   0.86990   0.64790   0.01267  Uiso   1.00
H33    H     0.85600   0.83450   0.59290   0.01267  Uiso   1.00
H34    H     0.21480   0.89410   0.04750   0.01267  Uiso   1.00
H35    H     0.35870   0.27150   0.71230   0.01267  Uiso   1.00
H36    H     0.30710   0.35110   0.75260   0.01267  Uiso   1.00
H37    H     0.15010   0.20120   0.70750   0.01267  Uiso   1.00
H38    H     0.12010   0.27040   0.75500   0.01267  Uiso   1.00
H39    H     0.29890   0.11990   0.74840   0.01267  Uiso   1.00
H40    H     0.27380   0.19070   0.79580   0.01267  Uiso   1.00
H41    H     0.09350   0.05940   0.75240   0.01267  Uiso   1.00
H42    H     0.07630   0.12570   0.80170   0.01267  Uiso   1.00
H43    H     0.11710   0.97080   0.81830   0.01267  Uiso   1.00
H44    H     0.23030   0.03600   0.83600   0.01267  Uiso   1.00
H45    H     0.23000   0.90930   0.74840   0.01267  Uiso   1.00
H46    H     0.34430   0.97070   0.76910   0.01267  Uiso   1.00
H47    H     0.36260   0.80760   0.78500   0.01267  Uiso   1.00
H48    H     0.23840   0.81790   0.81410   0.01267  Uiso   1.00
H49    H     0.13100   0.67870   0.81560   0.01267  Uiso   1.00
H50    H     0.98240   0.78970   0.84200   0.01267  Uiso   1.00
H51    H     0.04820   0.90510   0.96010   0.01267  Uiso   1.00
H52    H     0.93940   0.90860   0.92330   0.01267  Uiso   1.00
H53    H     0.75280   0.78210   0.87210   0.01267  Uiso   1.00
H54    H     0.70150   0.67540   0.86520   0.01267  Uiso   1.00
H55    H     0.72630   0.86720   0.95770   0.01267  Uiso   1.00
H56    H     0.65560   0.82630   0.02890   0.01267  Uiso   1.00
H57    H     0.74700   0.82540   0.10820   0.01267  Uiso   1.00
H58    H     0.89050   0.81880   0.11310   0.01267  Uiso   1.00
H59    H     0.53210   0.59930   0.01260   0.01267  Uiso   1.00
H60    H     0.53370   0.69730   0.04760   0.01267  Uiso   1.00
H61    H     0.62690   0.68530   0.13160   0.01267  Uiso   1.00
H62    H     0.66530   0.55080   0.16990   0.01267  Uiso   1.00
H63    H     0.13140   0.50240   0.78810   0.01267  Uiso   1.00
H64    H     0.01200   0.44600   0.79940   0.01267  Uiso   1.00
H65    H     0.33740   0.63010   0.85210   0.01267  Uiso   1.00
H66    H     0.35600   0.66550   0.90710   0.01267  Uiso   1.00
H67    H     0.28520   0.39410   0.54750   0.01267  Uiso   1.00
H68    H     0.14130   0.77150   0.21230   0.01267  Uiso   1.00
H69    H     0.19290   0.85110   0.25260   0.01267  Uiso   1.00
H70    H     0.34990   0.70120   0.20750   0.01267  Uiso   1.00
H71    H     0.37990   0.77040   0.25500   0.01267  Uiso   1.00
H72    H     0.20110   0.61990   0.24840   0.01267  Uiso   1.00
H73    H     0.22620   0.69070   0.29580   0.01267  Uiso   1.00
H74    H     0.40650   0.55940   0.25240   0.01267  Uiso   1.00
H75    H     0.42370   0.62570   0.30170   0.01267  Uiso   1.00
H76    H     0.38290   0.47080   0.31830   0.01267  Uiso   1.00
H77    H     0.26970   0.53600   0.33600   0.01267  Uiso   1.00
H78    H     0.27000   0.40930   0.24840   0.01267  Uiso   1.00
H79    H     0.15570   0.47070   0.26910   0.01267  Uiso   1.00
H80    H     0.13740   0.30760   0.28500   0.01267  Uiso   1.00
H81    H     0.26160   0.31790   0.31410   0.01267  Uiso   1.00
H82    H     0.36900   0.17870   0.31560   0.01267  Uiso   1.00
H83    H     0.51760   0.28970   0.34200   0.01267  Uiso   1.00
H84    H     0.45180   0.40510   0.46010   0.01267  Uiso   1.00
H85    H     0.56060   0.40860   0.42330   0.01267  Uiso   1.00
H86    H     0.74720   0.28210   0.37210   0.01267  Uiso   1.00
H87    H     0.79850   0.17540   0.36520   0.01267  Uiso   1.00
H88    H     0.77370   0.36720   0.45770   0.01267  Uiso   1.00
H89    H     0.84440   0.32630   0.52890   0.01267  Uiso   1.00
H90    H     0.75300   0.32540   0.60820   0.01267  Uiso   1.00
H91    H     0.60950   0.31880   0.61310   0.01267  Uiso   1.00
H92    H     0.96790   0.09930   0.51260   0.01267  Uiso   1.00
H93    H     0.96630   0.19730   0.54760   0.01267  Uiso   1.00
H94    H     0.87310   0.18530   0.63160   0.01267  Uiso   1.00
H95    H     0.83470   0.05080   0.66990   0.01267  Uiso   1.00
H96    H     0.36860   0.00240   0.28810   0.01267  Uiso   1.00
H97    H     0.48800   0.94600   0.29940   0.01267  Uiso   1.00
H98    H     0.16260   0.13010   0.35210   0.01267  Uiso   1.00
H99    H     0.14400   0.16550   0.40710   0.01267  Uiso   1.00
H100   H     0.78520   0.10590   0.95250   0.01267  Uiso   1.00
H101   H     0.64130   0.72850   0.28770   0.01267  Uiso   1.00
H102   H     0.69290   0.64890   0.24740   0.01267  Uiso   1.00
H103   H     0.84990   0.79880   0.29250   0.01267  Uiso   1.00
H104   H     0.87990   0.72960   0.24500   0.01267  Uiso   1.00
H105   H     0.70110   0.88010   0.25160   0.01267  Uiso   1.00
H106   H     0.72620   0.80930   0.20420   0.01267  Uiso   1.00
H107   H     0.90650   0.94060   0.24760   0.01267  Uiso   1.00
H108   H     0.92370   0.87430   0.19830   0.01267  Uiso   1.00
H109   H     0.88290   0.02920   0.18170   0.01267  Uiso   1.00
H110   H     0.76970   0.96400   0.16400   0.01267  Uiso   1.00
H111   H     0.77000   0.09070   0.25160   0.01267  Uiso   1.00
H112   H     0.65570   0.02930   0.23090   0.01267  Uiso   1.00
H113   H     0.63740   0.19240   0.21500   0.01267  Uiso   1.00
H114   H     0.76160   0.18210   0.18590   0.01267  Uiso   1.00
H115   H     0.86900   0.32130   0.18440   0.01267  Uiso   1.00
H116   H     0.01760   0.21030   0.15800   0.01267  Uiso   1.00
H117   H     0.95180   0.09490   0.03990   0.01267  Uiso   1.00
H118   H     0.06060   0.09140   0.07670   0.01267  Uiso   1.00
H119   H     0.24720   0.21790   0.12790   0.01267  Uiso   1.00
H120   H     0.29850   0.32460   0.13480   0.01267  Uiso   1.00
H121   H     0.27370   0.13280   0.04230   0.01267  Uiso   1.00
H122   H     0.34440   0.17370   0.97110   0.01267  Uiso   1.00
H123   H     0.25300   0.17460   0.89180   0.01267  Uiso   1.00
H124   H     0.10950   0.18120   0.88690   0.01267  Uiso   1.00
H125   H     0.46790   0.40070   0.98740   0.01267  Uiso   1.00
H126   H     0.46630   0.30270   0.95240   0.01267  Uiso   1.00
H127   H     0.37310   0.31470   0.86840   0.01267  Uiso   1.00
H128   H     0.33470   0.44920   0.83010   0.01267  Uiso   1.00
H129   H     0.86860   0.49760   0.21190   0.01267  Uiso   1.00
H130   H     0.98800   0.55400   0.20060   0.01267  Uiso   1.00
H131   H     0.66260   0.36990   0.14790   0.01267  Uiso   1.00
H132   H     0.64400   0.33450   0.09290   0.01267  Uiso   1.00
C1     C     0.73530   0.13780   0.81350   0.01267  Uiso   1.00
C2     C     0.78510   0.19330   0.77590   0.01267  Uiso   1.00
C3     C     0.68560   0.26580   0.76300   0.01267  Uiso   1.00
C4     C     0.73560   0.34230   0.73320   0.01267  Uiso   1.00
C5     C     0.63620   0.41170   0.71880   0.01267  Uiso   1.00
C6     C     0.68620   0.49310   0.69240   0.01267  Uiso   1.00
C7     C     0.77160   0.56380   0.72210   0.01267  Uiso   1.00
C8     C     0.81110   0.64710   0.69440   0.01267  Uiso   1.00
C9     C     0.87850   0.61160   0.65090   0.01267  Uiso   1.00
C10    C     0.65030   0.75180   0.57870   0.01267  Uiso   1.00
C11    C     0.59510   0.83450   0.65380   0.01267  Uiso   1.00
C12    C     0.49340   0.75870   0.63580   0.01267  Uiso   1.00
C13    C     0.40790   0.91570   0.64980   0.01267  Uiso   1.00
C14    C     0.48390   0.63330   0.55750   0.01267  Uiso   1.00
C15    C     0.26390   0.78230   0.61840   0.01267  Uiso   1.00
C16    C     0.42990   0.67520   0.47620   0.01267  Uiso   1.00
C17    C     0.26910   0.69000   0.53320   0.01267  Uiso   1.00
C18    C     0.22060   0.71820   0.48490   0.01267  Uiso   1.00
C19    C     0.17700   0.84380   0.54660   0.01267  Uiso   1.00
C20    C     0.31900   0.71270   0.40300   0.01267  Uiso   1.00
C21    C     0.08510   0.85540   0.46750   0.01267  Uiso   1.00
C22    C     0.39620   0.84750   0.36250   0.01267  Uiso   1.00
C23    C     0.18810   0.85830   0.38570   0.01267  Uiso   1.00
C24    C     0.22060   0.94550   0.35750   0.01267  Uiso   1.00
C25    C     0.16230   0.00390   0.43650   0.01267  Uiso   1.00
C26    C     0.58010   0.01540   0.68610   0.01267  Uiso   1.00
C27    C     0.80110   0.87010   0.61630   0.01267  Uiso   1.00
C28    C     0.23530   0.36220   0.68650   0.01267  Uiso   1.00
C29    C     0.28510   0.30670   0.72410   0.01267  Uiso   1.00
C30    C     0.18560   0.23420   0.73700   0.01267  Uiso   1.00
C31    C     0.23560   0.15770   0.76680   0.01267  Uiso   1.00
C32    C     0.13620   0.08830   0.78120   0.01267  Uiso   1.00
C33    C     0.18620   0.00690   0.80760   0.01267  Uiso   1.00
C34    C     0.27160   0.93620   0.77790   0.01267  Uiso   1.00
C35    C     0.31110   0.85290   0.80560   0.01267  Uiso   1.00
C36    C     0.37850   0.88840   0.84910   0.01267  Uiso   1.00
C37    C     0.15030   0.74820   0.92130   0.01267  Uiso   1.00
C38    C     0.09510   0.66550   0.84620   0.01267  Uiso   1.00
C39    C     0.99340   0.74130   0.86420   0.01267  Uiso   1.00
C40    C     0.90790   0.58430   0.85020   0.01267  Uiso   1.00
C41    C     0.98390   0.86670   0.94250   0.01267  Uiso   1.00
C42    C     0.76390   0.71770   0.88160   0.01267  Uiso   1.00
C43    C     0.92990   0.82480   0.02380   0.01267  Uiso   1.00
C44    C     0.76910   0.81000   0.96680   0.01267  Uiso   1.00
C45    C     0.72060   0.78180   0.01510   0.01267  Uiso   1.00
C46    C     0.67700   0.65620   0.95340   0.01267  Uiso   1.00
C47    C     0.81900   0.78730   0.09700   0.01267  Uiso   1.00
C48    C     0.58510   0.64460   0.03250   0.01267  Uiso   1.00
C49    C     0.89620   0.65250   0.13750   0.01267  Uiso   1.00
C50    C     0.68810   0.64170   0.11430   0.01267  Uiso   1.00
C51    C     0.72060   0.55450   0.14250   0.01267  Uiso   1.00
C52    C     0.66230   0.49610   0.06350   0.01267  Uiso   1.00
C53    C     0.08010   0.48460   0.81390   0.01267  Uiso   1.00
C54    C     0.30110   0.62990   0.88370   0.01267  Uiso   1.00
C55    C     0.26470   0.86220   0.18650   0.01267  Uiso   1.00
C56    C     0.21490   0.80670   0.22410   0.01267  Uiso   1.00
C57    C     0.31440   0.73420   0.23700   0.01267  Uiso   1.00
C58    C     0.26440   0.65770   0.26680   0.01267  Uiso   1.00
C59    C     0.36380   0.58830   0.28120   0.01267  Uiso   1.00
C60    C     0.31380   0.50690   0.30760   0.01267  Uiso   1.00
C61    C     0.22840   0.43620   0.27790   0.01267  Uiso   1.00
C62    C     0.18890   0.35290   0.30560   0.01267  Uiso   1.00
C63    C     0.12150   0.38840   0.34910   0.01267  Uiso   1.00
C64    C     0.34970   0.24820   0.42130   0.01267  Uiso   1.00
C65    C     0.40490   0.16550   0.34620   0.01267  Uiso   1.00
C66    C     0.50660   0.24130   0.36420   0.01267  Uiso   1.00
C67    C     0.59210   0.08430   0.35020   0.01267  Uiso   1.00
C68    C     0.51610   0.36670   0.44250   0.01267  Uiso   1.00
C69    C     0.73610   0.21770   0.38160   0.01267  Uiso   1.00
C70    C     0.57010   0.32480   0.52380   0.01267  Uiso   1.00
C71    C     0.73090   0.31000   0.46680   0.01267  Uiso   1.00
C72    C     0.77940   0.28180   0.51510   0.01267  Uiso   1.00
C73    C     0.82300   0.15620   0.45340   0.01267  Uiso   1.00
C74    C     0.68100   0.28730   0.59700   0.01267  Uiso   1.00
C75    C     0.91490   0.14460   0.53250   0.01267  Uiso   1.00
C76    C     0.60380   0.15250   0.63750   0.01267  Uiso   1.00
C77    C     0.81190   0.14170   0.61430   0.01267  Uiso   1.00
C78    C     0.77940   0.05450   0.64250   0.01267  Uiso   1.00
C79    C     0.83770   0.99610   0.56350   0.01267  Uiso   1.00
C80    C     0.41990   0.98460   0.31390   0.01267  Uiso   1.00
C81    C     0.19890   0.12990   0.38370   0.01267  Uiso   1.00
C82    C     0.76470   0.63780   0.31350   0.01267  Uiso   1.00
C83    C     0.71490   0.69330   0.27590   0.01267  Uiso   1.00
C84    C     0.81440   0.76580   0.26300   0.01267  Uiso   1.00
C85    C     0.76440   0.84230   0.23320   0.01267  Uiso   1.00
C86    C     0.86380   0.91170   0.21880   0.01267  Uiso   1.00
C87    C     0.81380   0.99310   0.19240   0.01267  Uiso   1.00
C88    C     0.72840   0.06380   0.22210   0.01267  Uiso   1.00
C89    C     0.68890   0.14710   0.19440   0.01267  Uiso   1.00
C90    C     0.62150   0.11160   0.15090   0.01267  Uiso   1.00
C91    C     0.84970   0.25180   0.07870   0.01267  Uiso   1.00
C92    C     0.90490   0.33450   0.15380   0.01267  Uiso   1.00
C93    C     0.00660   0.25870   0.13580   0.01267  Uiso   1.00
C94    C     0.09210   0.41570   0.14980   0.01267  Uiso   1.00
C95    C     0.01610   0.13330   0.05750   0.01267  Uiso   1.00
C96    C     0.23610   0.28230   0.11840   0.01267  Uiso   1.00
C97    C     0.07010   0.17520   0.97620   0.01267  Uiso   1.00
C98    C     0.23090   0.19000   0.03320   0.01267  Uiso   1.00
C99    C     0.27940   0.21820   0.98490   0.01267  Uiso   1.00
C100   C     0.32300   0.34380   0.04660   0.01267  Uiso   1.00
C101   C     0.18100   0.21270   0.90300   0.01267  Uiso   1.00
C102   C     0.41490   0.35540   0.96750   0.01267  Uiso   1.00
C103   C     0.10380   0.34750   0.86250   0.01267  Uiso   1.00
C104   C     0.31190   0.35830   0.88570   0.01267  Uiso   1.00
C105   C     0.27940   0.44550   0.85750   0.01267  Uiso   1.00
C106   C     0.33770   0.50390   0.93650   0.01267  Uiso   1.00
C107   C     0.91990   0.51540   0.18610   0.01267  Uiso   1.00
C108   C     0.69890   0.37010   0.11630   0.01267  Uiso   1.00
N1     N     0.68510   0.82110   0.61490   0.01267  Uiso   1.00
N2     N     0.54020   0.71470   0.58940   0.01267  Uiso   1.00
N3     N     0.38530   0.81870   0.63400   0.01267  Uiso   1.00
N4     N     0.53070   0.92650   0.65890   0.01267  Uiso   1.00
N5     N     0.39870   0.67080   0.52330   0.01267  Uiso   1.00
N6     N     0.33200   0.71110   0.45450   0.01267  Uiso   1.00
N7     N     0.17430   0.81630   0.49790   0.01267  Uiso   1.00
N8     N     0.24550   0.77680   0.56720   0.01267  Uiso   1.00
N9     N     0.30650   0.81070   0.38830   0.01267  Uiso   1.00
N10    N     0.34730   0.92470   0.34250   0.01267  Uiso   1.00
N11    N     0.20830   0.02840   0.39400   0.01267  Uiso   1.00
N12    N     0.14090   0.90560   0.42990   0.01267  Uiso   1.00
N13    N     0.18510   0.67890   0.88510   0.01267  Uiso   1.00
N14    N     0.04020   0.78530   0.91060   0.01267  Uiso   1.00
N15    N     0.88530   0.68130   0.86600   0.01267  Uiso   1.00
N16    N     0.03070   0.57350   0.84110   0.01267  Uiso   1.00
N17    N     0.89870   0.82920   0.97670   0.01267  Uiso   1.00
N18    N     0.83200   0.78890   0.04550   0.01267  Uiso   1.00
N19    N     0.67430   0.68370   0.00210   0.01267  Uiso   1.00
N20    N     0.74550   0.72320   0.93280   0.01267  Uiso   1.00
N21    N     0.80650   0.68930   0.11170   0.01267  Uiso   1.00
N22    N     0.84730   0.57530   0.15750   0.01267  Uiso   1.00
N23    N     0.70830   0.47160   0.10600   0.01267  Uiso   1.00
N24    N     0.64090   0.59440   0.07010   0.01267  Uiso   1.00
N25    N     0.31490   0.17890   0.38510   0.01267  Uiso   1.00
N26    N     0.45980   0.28530   0.41060   0.01267  Uiso   1.00
N27    N     0.61470   0.18130   0.36600   0.01267  Uiso   1.00
N28    N     0.46930   0.07350   0.34110   0.01267  Uiso   1.00
N29    N     0.60130   0.32920   0.47670   0.01267  Uiso   1.00
N30    N     0.66800   0.28890   0.54550   0.01267  Uiso   1.00
N31    N     0.82570   0.18370   0.50210   0.01267  Uiso   1.00
N32    N     0.75450   0.22320   0.43280   0.01267  Uiso   1.00
N33    N     0.69350   0.18930   0.61170   0.01267  Uiso   1.00
N34    N     0.65270   0.07530   0.65750   0.01267  Uiso   1.00
N35    N     0.79170   0.97160   0.60600   0.01267  Uiso   1.00
N36    N     0.85910   0.09440   0.57010   0.01267  Uiso   1.00
N37    N     0.81490   0.32110   0.11490   0.01267  Uiso   1.00
N38    N     0.95980   0.21470   0.08940   0.01267  Uiso   1.00
N39    N     0.11470   0.31870   0.13400   0.01267  Uiso   1.00
N40    N     0.96930   0.42650   0.15890   0.01267  Uiso   1.00
N41    N     0.10130   0.17080   0.02330   0.01267  Uiso   1.00
N42    N     0.16800   0.21110   0.95450   0.01267  Uiso   1.00
N43    N     0.32570   0.31630   0.99790   0.01267  Uiso   1.00
N44    N     0.25450   0.27680   0.06720   0.01267  Uiso   1.00
N45    N     0.19350   0.31070   0.88830   0.01267  Uiso   1.00
N46    N     0.15270   0.42470   0.84250   0.01267  Uiso   1.00
N47    N     0.29170   0.52840   0.89400   0.01267  Uiso   1.00
N48    N     0.35910   0.40560   0.92990   0.01267  Uiso   1.00
O1     O     0.76260   0.50050   0.52560   0.01267  Uiso   1.00
O2     O     0.98550   0.68900   0.52610   0.01267  Uiso   1.00
O3     O     0.76960   0.46040   0.38530   0.01267  Uiso   1.00
O4     O     0.99750   0.64800   0.38800   0.01267  Uiso   1.00
O5     O     0.97130   0.50740   0.45360   0.01267  Uiso   1.00
O6     O     0.78450   0.63750   0.45410   0.01267  Uiso   1.00
O7     O     0.76610   0.15870   0.85640   0.01267  Uiso   1.00
O8     O     0.66000   0.06630   0.80160   0.01267  Uiso   1.00
O9     O     0.84790   0.62610   0.61010   0.01267  Uiso   1.00
O10    O     0.98090   0.56310   0.65590   0.01267  Uiso   1.00
O11    O     0.71560   0.72270   0.54320   0.01267  Uiso   1.00
O12    O     0.32930   0.97970   0.65640   0.01267  Uiso   1.00
O13    O     0.52790   0.65170   0.45630   0.01267  Uiso   1.00
O14    O     0.12920   0.91630   0.56760   0.01267  Uiso   1.00
O15    O     0.50280   0.81650   0.35670   0.01267  Uiso   1.00
O16    O     0.14380   0.05940   0.47310   0.01267  Uiso   1.00
O17    O     0.26260   0.99950   0.97440   0.01267  Uiso   1.00
O18    O     0.48550   0.81100   0.97390   0.01267  Uiso   1.00
O19    O     0.26960   0.03960   0.11470   0.01267  Uiso   1.00
O20    O     0.49750   0.85200   0.11200   0.01267  Uiso   1.00
O21    O     0.47130   0.99260   0.04640   0.01267  Uiso   1.00
O22    O     0.28450   0.86250   0.04590   0.01267  Uiso   1.00
O23    O     0.26610   0.34130   0.64360   0.01267  Uiso   1.00
O24    O     0.16000   0.43370   0.69840   0.01267  Uiso   1.00
O25    O     0.34790   0.87390   0.88990   0.01267  Uiso   1.00
O26    O     0.48090   0.93690   0.84410   0.01267  Uiso   1.00
O27    O     0.21560   0.77730   0.95680   0.01267  Uiso   1.00
O28    O     0.82930   0.52030   0.84360   0.01267  Uiso   1.00
O29    O     0.02790   0.84830   0.04370   0.01267  Uiso   1.00
O30    O     0.62920   0.58370   0.93240   0.01267  Uiso   1.00
O31    O     0.00280   0.68350   0.14330   0.01267  Uiso   1.00
O32    O     0.64380   0.44060   0.02690   0.01267  Uiso   1.00
O33    O     0.23740   0.49950   0.47440   0.01267  Uiso   1.00
O34    O     0.01450   0.31100   0.47390   0.01267  Uiso   1.00
O35    O     0.23040   0.53960   0.61470   0.01267  Uiso   1.00
O36    O     0.00250   0.35200   0.61200   0.01267  Uiso   1.00
O37    O     0.02870   0.49260   0.54640   0.01267  Uiso   1.00
O38    O     0.21550   0.36250   0.54590   0.01267  Uiso   1.00
O39    O     0.23390   0.84130   0.14360   0.01267  Uiso   1.00
O40    O     0.34000   0.93370   0.19840   0.01267  Uiso   1.00
O41    O     0.15210   0.37390   0.38990   0.01267  Uiso   1.00
O42    O     0.01910   0.43690   0.34410   0.01267  Uiso   1.00
O43    O     0.28440   0.27730   0.45680   0.01267  Uiso   1.00
O44    O     0.67070   0.02030   0.34360   0.01267  Uiso   1.00
O45    O     0.47210   0.34830   0.54370   0.01267  Uiso   1.00
O46    O     0.87080   0.08370   0.43240   0.01267  Uiso   1.00
O47    O     0.49720   0.18350   0.64330   0.01267  Uiso   1.00
O48    O     0.85620   0.94060   0.52690   0.01267  Uiso   1.00
O49    O     0.73740   0.00050   0.02560   0.01267  Uiso   1.00
O50    O     0.51450   0.18900   0.02610   0.01267  Uiso   1.00
O51    O     0.73040   0.96040   0.88530   0.01267  Uiso   1.00
O52    O     0.50250   0.14800   0.88800   0.01267  Uiso   1.00
O53    O     0.52870   0.00740   0.95360   0.01267  Uiso   1.00
O54    O     0.71550   0.13750   0.95410   0.01267  Uiso   1.00
O55    O     0.73390   0.65870   0.35640   0.01267  Uiso   1.00
O56    O     0.84000   0.56630   0.30160   0.01267  Uiso   1.00
O57    O     0.65210   0.12610   0.11010   0.01267  Uiso   1.00
O58    O     0.51910   0.06310   0.15590   0.01267  Uiso   1.00
O59    O     0.78440   0.22270   0.04320   0.01267  Uiso   1.00
O60    O     0.17070   0.47970   0.15640   0.01267  Uiso   1.00
O61    O     0.97210   0.15170   0.95630   0.01267  Uiso   1.00
O62    O     0.37080   0.41630   0.06760   0.01267  Uiso   1.00
O63    O     0.99720   0.31650   0.85670   0.01267  Uiso   1.00
O64    O     0.35620   0.55940   0.97310   0.01267  Uiso   1.00
H133   H     0.71390   0.77630   0.45330   0.01267  Uiso   1.00
H134   H     0.63880   0.78420   0.41100   0.01267  Uiso   1.00
H135   H     0.64660   0.92120   0.49030   0.01267  Uiso   1.00
H136   H     0.53360   0.85300   0.47550   0.01267  Uiso   1.00
H137   H     0.57010   0.93430   0.44410   0.01267  Uiso   1.00
H138   H     0.75320   0.91220   0.39400   0.01267  Uiso   1.00
H139   H     0.83110   0.81650   0.39270   0.01267  Uiso   1.00
H140   H     0.83740   0.89630   0.43780   0.01267  Uiso   1.00
C109   C     0.60130   0.88780   0.46360   0.01267  Uiso   1.00
C110   C     0.78480   0.86470   0.41290   0.01267  Uiso   1.00
N49    N     0.68340   0.81850   0.43450   0.01267  Uiso   1.00
H141   H     0.21390   0.72370   0.04670   0.01267  Uiso   1.00
H142   H     0.13880   0.71580   0.08900   0.01267  Uiso   1.00
H143   H     0.14660   0.57880   0.00970   0.01267  Uiso   1.00
H144   H     0.03360   0.64700   0.02450   0.01267  Uiso   1.00
H145   H     0.07010   0.56570   0.05590   0.01267  Uiso   1.00
H146   H     0.25320   0.58780   0.10600   0.01267  Uiso   1.00
H147   H     0.33110   0.68350   0.10730   0.01267  Uiso   1.00
H148   H     0.33740   0.60370   0.06220   0.01267  Uiso   1.00
C111   C     0.10130   0.61220   0.03640   0.01267  Uiso   1.00
C112   C     0.28480   0.63530   0.08710   0.01267  Uiso   1.00
N50    N     0.18340   0.68150   0.06550   0.01267  Uiso   1.00
H149   H     0.28610   0.22370   0.54670   0.01267  Uiso   1.00
H150   H     0.36120   0.21580   0.58900   0.01267  Uiso   1.00
H151   H     0.35340   0.07880   0.50970   0.01267  Uiso   1.00
H152   H     0.46640   0.14700   0.52450   0.01267  Uiso   1.00
H153   H     0.42990   0.06570   0.55590   0.01267  Uiso   1.00
H154   H     0.24680   0.08780   0.60600   0.01267  Uiso   1.00
H155   H     0.16890   0.18350   0.60730   0.01267  Uiso   1.00
H156   H     0.16260   0.10370   0.56220   0.01267  Uiso   1.00
C113   C     0.39870   0.11220   0.53640   0.01267  Uiso   1.00
C114   C     0.21520   0.13530   0.58710   0.01267  Uiso   1.00
N51    N     0.31660   0.18150   0.56550   0.01267  Uiso   1.00
H157   H     0.78610   0.27630   0.95330   0.01267  Uiso   1.00
H158   H     0.86120   0.28420   0.91100   0.01267  Uiso   1.00
H159   H     0.85340   0.42120   0.99030   0.01267  Uiso   1.00
H160   H     0.96640   0.35300   0.97550   0.01267  Uiso   1.00
H161   H     0.92990   0.43430   0.94410   0.01267  Uiso   1.00
H162   H     0.74680   0.41220   0.89400   0.01267  Uiso   1.00
H163   H     0.66890   0.31650   0.89270   0.01267  Uiso   1.00
H164   H     0.66260   0.39630   0.93780   0.01267  Uiso   1.00
C115   C     0.89870   0.38780   0.96360   0.01267  Uiso   1.00
C116   C     0.71520   0.36470   0.91290   0.01267  Uiso   1.00
N52    N     0.81660   0.31850   0.93450   0.01267  Uiso   1.00
