data_AWEGEP_clean
_audit_creation_date              2014-07-02
_audit_creation_method            'Materials Studio'
_symmetry_space_group_name_H-M    'P1'
_symmetry_Int_Tables_number       1
_symmetry_cell_setting            triclinic
loop_
_symmetry_equiv_pos_as_xyz
  x,y,z
_cell_length_a                    11.9563
_cell_length_b                    20.5225
_cell_length_c                    22.0556
_cell_angle_alpha                 90.0000
_cell_angle_beta                  90.0000
_cell_angle_gamma                 90.0000
loop_
_atom_site_label
_atom_site_type_symbol
_atom_site_fract_x
_atom_site_fract_y
_atom_site_fract_z
_atom_site_U_iso_or_equiv
_atom_site_adp_type
_atom_site_occupancy
Cs1    Cs    0.76235   0.91968   0.54010   0.01267  Uiso   1.00
Cs2    Cs    0.26235   0.08032   0.95990   0.01267  Uiso   1.00
Cs3    Cs    0.23765   0.41968   0.45990   0.01267  Uiso   1.00
Cs4    Cs    0.73765   0.58032   0.04010   0.01267  Uiso   1.00
Cs5    Cs    0.23765   0.08032   0.45990   0.01267  Uiso   1.00
Cs6    Cs    0.73765   0.91968   0.04010   0.01267  Uiso   1.00
Cs7    Cs    0.76235   0.58032   0.54010   0.01267  Uiso   1.00
Cs8    Cs    0.26235   0.41968   0.95990   0.01267  Uiso   1.00
Cs9    Cs    0.99753   0.75000   0.65513   0.01267  Uiso   1.00
Cs10   Cs    0.49753   0.25000   0.84487   0.01267  Uiso   1.00
Cs11   Cs    0.00247   0.25000   0.34487   0.01267  Uiso   1.00
Cs12   Cs    0.50247   0.75000   0.15513   0.01267  Uiso   1.00
U1     U     0.14023   0.91681   0.57242   0.01267  Uiso   1.00
U2     U     0.64023   0.08319   0.92758   0.01267  Uiso   1.00
U3     U     0.85977   0.41681   0.42758   0.01267  Uiso   1.00
U4     U     0.35977   0.58319   0.07242   0.01267  Uiso   1.00
U5     U     0.85977   0.08319   0.42758   0.01267  Uiso   1.00
U6     U     0.35977   0.91681   0.07242   0.01267  Uiso   1.00
U7     U     0.14023   0.58319   0.57242   0.01267  Uiso   1.00
U8     U     0.64023   0.41681   0.92758   0.01267  Uiso   1.00
U9     U     0.91039   0.75000   0.44008   0.01267  Uiso   1.00
U10    U     0.41039   0.25000   0.05992   0.01267  Uiso   1.00
U11    U     0.08961   0.25000   0.55992   0.01267  Uiso   1.00
U12    U     0.58961   0.75000   0.94008   0.01267  Uiso   1.00
P1     P     0.00030   0.92230   0.42710   0.01267  Uiso   1.00
P2     P     0.50030   0.07770   0.07290   0.01267  Uiso   1.00
P3     P     0.99970   0.42230   0.57290   0.01267  Uiso   1.00
P4     P     0.49970   0.57770   0.92710   0.01267  Uiso   1.00
P5     P     0.99970   0.07770   0.57290   0.01267  Uiso   1.00
P6     P     0.49970   0.92230   0.92710   0.01267  Uiso   1.00
P7     P     0.00030   0.57770   0.42710   0.01267  Uiso   1.00
P8     P     0.50030   0.42230   0.07290   0.01267  Uiso   1.00
P9     P     0.18020   0.75000   0.50499   0.01267  Uiso   1.00
P10    P     0.68020   0.25000   0.99501   0.01267  Uiso   1.00
P11    P     0.81980   0.25000   0.49501   0.01267  Uiso   1.00
P12    P     0.31980   0.75000   0.00499   0.01267  Uiso   1.00
H1     H     0.34180   0.84860   0.47090   0.01267  Uiso   1.00
H2     H     0.52990   0.84960   0.44570   0.01267  Uiso   1.00
H3     H     0.02720   0.00620   0.32470   0.01267  Uiso   1.00
H4     H     0.13530   0.00490   0.23630   0.01267  Uiso   1.00
H5     H     0.23450   0.82010   0.27790   0.01267  Uiso   1.00
H6     H     0.13370   0.82550   0.36780   0.01267  Uiso   1.00
H7     H     0.84180   0.15140   0.02910   0.01267  Uiso   1.00
H8     H     0.02990   0.15040   0.05430   0.01267  Uiso   1.00
H9     H     0.52720   0.99380   0.17530   0.01267  Uiso   1.00
H10    H     0.63530   0.99510   0.26370   0.01267  Uiso   1.00
H11    H     0.73450   0.17990   0.22210   0.01267  Uiso   1.00
H12    H     0.63370   0.17450   0.13220   0.01267  Uiso   1.00
H13    H     0.65820   0.34860   0.52910   0.01267  Uiso   1.00
H14    H     0.47010   0.34960   0.55430   0.01267  Uiso   1.00
H15    H     0.97280   0.50620   0.67530   0.01267  Uiso   1.00
H16    H     0.86470   0.50490   0.76370   0.01267  Uiso   1.00
H17    H     0.76550   0.32010   0.72210   0.01267  Uiso   1.00
H18    H     0.86630   0.32550   0.63220   0.01267  Uiso   1.00
H19    H     0.15820   0.65140   0.97090   0.01267  Uiso   1.00
H20    H     0.97010   0.65040   0.94570   0.01267  Uiso   1.00
H21    H     0.47280   0.49380   0.82470   0.01267  Uiso   1.00
H22    H     0.36470   0.49510   0.73630   0.01267  Uiso   1.00
H23    H     0.26550   0.67990   0.77790   0.01267  Uiso   1.00
H24    H     0.36630   0.67450   0.86780   0.01267  Uiso   1.00
H25    H     0.65820   0.15140   0.52910   0.01267  Uiso   1.00
H26    H     0.47010   0.15040   0.55430   0.01267  Uiso   1.00
H27    H     0.97280   0.99380   0.67530   0.01267  Uiso   1.00
H28    H     0.86470   0.99510   0.76370   0.01267  Uiso   1.00
H29    H     0.76550   0.17990   0.72210   0.01267  Uiso   1.00
H30    H     0.86630   0.17450   0.63220   0.01267  Uiso   1.00
H31    H     0.15820   0.84860   0.97090   0.01267  Uiso   1.00
H32    H     0.97010   0.84960   0.94570   0.01267  Uiso   1.00
H33    H     0.47280   0.00620   0.82470   0.01267  Uiso   1.00
H34    H     0.36470   0.00490   0.73630   0.01267  Uiso   1.00
H35    H     0.26550   0.82010   0.77790   0.01267  Uiso   1.00
H36    H     0.36630   0.82550   0.86780   0.01267  Uiso   1.00
H37    H     0.34180   0.65140   0.47090   0.01267  Uiso   1.00
H38    H     0.52990   0.65040   0.44570   0.01267  Uiso   1.00
H39    H     0.02720   0.49380   0.32470   0.01267  Uiso   1.00
H40    H     0.13530   0.49510   0.23630   0.01267  Uiso   1.00
H41    H     0.23450   0.67990   0.27790   0.01267  Uiso   1.00
H42    H     0.13370   0.67450   0.36780   0.01267  Uiso   1.00
H43    H     0.84180   0.34860   0.02910   0.01267  Uiso   1.00
H44    H     0.02990   0.34960   0.05430   0.01267  Uiso   1.00
H45    H     0.52720   0.50620   0.17530   0.01267  Uiso   1.00
H46    H     0.63530   0.50490   0.26370   0.01267  Uiso   1.00
H47    H     0.73450   0.32010   0.22210   0.01267  Uiso   1.00
H48    H     0.63370   0.32550   0.13220   0.01267  Uiso   1.00
C1     C     0.38030   0.80840   0.46670   0.01267  Uiso   1.00
C2     C     0.49170   0.80950   0.45160   0.01267  Uiso   1.00
C3     C     0.07140   0.91670   0.35540   0.01267  Uiso   1.00
C4     C     0.07130   0.96900   0.31560   0.01267  Uiso   1.00
C5     C     0.13420   0.96820   0.26260   0.01267  Uiso   1.00
C6     C     0.19630   0.91180   0.24870   0.01267  Uiso   1.00
C7     C     0.19410   0.85860   0.28780   0.01267  Uiso   1.00
C8     C     0.13330   0.86160   0.34080   0.01267  Uiso   1.00
C9     C     0.26650   0.91110   0.19160   0.01267  Uiso   1.00
C10    C     0.88030   0.19160   0.03330   0.01267  Uiso   1.00
C11    C     0.99170   0.19050   0.04840   0.01267  Uiso   1.00
C12    C     0.57140   0.08330   0.14460   0.01267  Uiso   1.00
C13    C     0.57130   0.03100   0.18440   0.01267  Uiso   1.00
C14    C     0.63420   0.03180   0.23740   0.01267  Uiso   1.00
C15    C     0.69630   0.08820   0.25130   0.01267  Uiso   1.00
C16    C     0.69410   0.14140   0.21220   0.01267  Uiso   1.00
C17    C     0.63330   0.13840   0.15920   0.01267  Uiso   1.00
C18    C     0.76650   0.08890   0.30840   0.01267  Uiso   1.00
C19    C     0.61970   0.30840   0.53330   0.01267  Uiso   1.00
C20    C     0.50830   0.30950   0.54840   0.01267  Uiso   1.00
C21    C     0.92860   0.41670   0.64460   0.01267  Uiso   1.00
C22    C     0.92870   0.46900   0.68440   0.01267  Uiso   1.00
C23    C     0.86580   0.46820   0.73740   0.01267  Uiso   1.00
C24    C     0.80370   0.41180   0.75130   0.01267  Uiso   1.00
C25    C     0.80590   0.35860   0.71220   0.01267  Uiso   1.00
C26    C     0.86670   0.36160   0.65920   0.01267  Uiso   1.00
C27    C     0.73350   0.41110   0.80840   0.01267  Uiso   1.00
C28    C     0.11970   0.69160   0.96670   0.01267  Uiso   1.00
C29    C     0.00830   0.69050   0.95160   0.01267  Uiso   1.00
C30    C     0.42860   0.58330   0.85540   0.01267  Uiso   1.00
C31    C     0.42870   0.53100   0.81560   0.01267  Uiso   1.00
C32    C     0.36580   0.53180   0.76260   0.01267  Uiso   1.00
C33    C     0.30370   0.58820   0.74870   0.01267  Uiso   1.00
C34    C     0.30590   0.64140   0.78780   0.01267  Uiso   1.00
C35    C     0.36670   0.63840   0.84080   0.01267  Uiso   1.00
C36    C     0.23350   0.58890   0.69160   0.01267  Uiso   1.00
C37    C     0.61970   0.19160   0.53330   0.01267  Uiso   1.00
C38    C     0.50830   0.19050   0.54840   0.01267  Uiso   1.00
C39    C     0.92860   0.08330   0.64460   0.01267  Uiso   1.00
C40    C     0.92870   0.03100   0.68440   0.01267  Uiso   1.00
C41    C     0.86580   0.03180   0.73740   0.01267  Uiso   1.00
C42    C     0.80370   0.08820   0.75130   0.01267  Uiso   1.00
C43    C     0.80590   0.14140   0.71220   0.01267  Uiso   1.00
C44    C     0.86670   0.13840   0.65920   0.01267  Uiso   1.00
C45    C     0.73350   0.08890   0.80840   0.01267  Uiso   1.00
C46    C     0.11970   0.80840   0.96670   0.01267  Uiso   1.00
C47    C     0.00830   0.80950   0.95160   0.01267  Uiso   1.00
C48    C     0.42860   0.91670   0.85540   0.01267  Uiso   1.00
C49    C     0.42870   0.96900   0.81560   0.01267  Uiso   1.00
C50    C     0.36580   0.96820   0.76260   0.01267  Uiso   1.00
C51    C     0.30370   0.91180   0.74870   0.01267  Uiso   1.00
C52    C     0.30590   0.85860   0.78780   0.01267  Uiso   1.00
C53    C     0.36670   0.86160   0.84080   0.01267  Uiso   1.00
C54    C     0.23350   0.91110   0.69160   0.01267  Uiso   1.00
C55    C     0.38030   0.69160   0.46670   0.01267  Uiso   1.00
C56    C     0.49170   0.69050   0.45160   0.01267  Uiso   1.00
C57    C     0.07140   0.58330   0.35540   0.01267  Uiso   1.00
C58    C     0.07130   0.53100   0.31560   0.01267  Uiso   1.00
C59    C     0.13420   0.53180   0.26260   0.01267  Uiso   1.00
C60    C     0.19630   0.58820   0.24870   0.01267  Uiso   1.00
C61    C     0.19410   0.64140   0.28780   0.01267  Uiso   1.00
C62    C     0.13330   0.63840   0.34080   0.01267  Uiso   1.00
C63    C     0.26650   0.58890   0.19160   0.01267  Uiso   1.00
C64    C     0.88030   0.30840   0.03330   0.01267  Uiso   1.00
C65    C     0.99170   0.30950   0.04840   0.01267  Uiso   1.00
C66    C     0.57140   0.41670   0.14460   0.01267  Uiso   1.00
C67    C     0.57130   0.46900   0.18440   0.01267  Uiso   1.00
C68    C     0.63420   0.46820   0.23740   0.01267  Uiso   1.00
C69    C     0.69630   0.41180   0.25130   0.01267  Uiso   1.00
C70    C     0.69410   0.35860   0.21220   0.01267  Uiso   1.00
C71    C     0.63330   0.36160   0.15920   0.01267  Uiso   1.00
C72    C     0.76650   0.41110   0.30840   0.01267  Uiso   1.00
C73    C     0.32070   0.75000   0.47610   0.01267  Uiso   1.00
C74    C     0.54730   0.75000   0.44510   0.01267  Uiso   1.00
C75    C     0.66980   0.75000   0.43530   0.01267  Uiso   1.00
C76    C     0.82070   0.25000   0.02390   0.01267  Uiso   1.00
C77    C     0.04730   0.25000   0.05490   0.01267  Uiso   1.00
C78    C     0.16980   0.25000   0.06470   0.01267  Uiso   1.00
C79    C     0.67930   0.25000   0.52390   0.01267  Uiso   1.00
C80    C     0.45270   0.25000   0.55490   0.01267  Uiso   1.00
C81    C     0.33020   0.25000   0.56470   0.01267  Uiso   1.00
C82    C     0.17930   0.75000   0.97610   0.01267  Uiso   1.00
C83    C     0.95270   0.75000   0.94510   0.01267  Uiso   1.00
C84    C     0.83020   0.75000   0.93530   0.01267  Uiso   1.00
O1     O     0.00140   0.89520   0.59570   0.01267  Uiso   1.00
O2     O     0.16520   0.81110   0.54260   0.01267  Uiso   1.00
O3     O     0.72410   0.80400   0.43370   0.01267  Uiso   1.00
O4     O     0.09150   0.93670   0.47340   0.01267  Uiso   1.00
O5     O     0.91250   0.97620   0.42420   0.01267  Uiso   1.00
O6     O     0.94240   0.85890   0.44100   0.01267  Uiso   1.00
O7     O     0.28480   0.85820   0.16320   0.01267  Uiso   1.00
O8     O     0.30260   0.96450   0.17000   0.01267  Uiso   1.00
O9     O     0.50140   0.10480   0.90430   0.01267  Uiso   1.00
O10    O     0.66520   0.18890   0.95740   0.01267  Uiso   1.00
O11    O     0.22410   0.19600   0.06630   0.01267  Uiso   1.00
O12    O     0.59150   0.06330   0.02660   0.01267  Uiso   1.00
O13    O     0.41250   0.02380   0.07580   0.01267  Uiso   1.00
O14    O     0.44240   0.14110   0.05900   0.01267  Uiso   1.00
O15    O     0.78480   0.14180   0.33680   0.01267  Uiso   1.00
O16    O     0.80260   0.03550   0.33000   0.01267  Uiso   1.00
O17    O     0.99860   0.39520   0.40430   0.01267  Uiso   1.00
O18    O     0.83480   0.31110   0.45740   0.01267  Uiso   1.00
O19    O     0.27590   0.30400   0.56630   0.01267  Uiso   1.00
O20    O     0.90850   0.43670   0.52660   0.01267  Uiso   1.00
O21    O     0.08750   0.47620   0.57580   0.01267  Uiso   1.00
O22    O     0.05760   0.35890   0.55900   0.01267  Uiso   1.00
O23    O     0.71520   0.35820   0.83680   0.01267  Uiso   1.00
O24    O     0.69740   0.46450   0.83000   0.01267  Uiso   1.00
O25    O     0.49860   0.60480   0.09570   0.01267  Uiso   1.00
O26    O     0.33480   0.68890   0.04260   0.01267  Uiso   1.00
O27    O     0.77590   0.69600   0.93370   0.01267  Uiso   1.00
O28    O     0.40850   0.56330   0.97340   0.01267  Uiso   1.00
O29    O     0.58750   0.52380   0.92420   0.01267  Uiso   1.00
O30    O     0.55760   0.64110   0.94100   0.01267  Uiso   1.00
O31    O     0.21520   0.64180   0.66320   0.01267  Uiso   1.00
O32    O     0.19740   0.53550   0.67000   0.01267  Uiso   1.00
O33    O     0.99860   0.10480   0.40430   0.01267  Uiso   1.00
O34    O     0.83480   0.18890   0.45740   0.01267  Uiso   1.00
O35    O     0.27590   0.19600   0.56630   0.01267  Uiso   1.00
O36    O     0.90850   0.06330   0.52660   0.01267  Uiso   1.00
O37    O     0.08750   0.02380   0.57580   0.01267  Uiso   1.00
O38    O     0.05760   0.14110   0.55900   0.01267  Uiso   1.00
O39    O     0.71520   0.14180   0.83680   0.01267  Uiso   1.00
O40    O     0.69740   0.03550   0.83000   0.01267  Uiso   1.00
O41    O     0.49860   0.89520   0.09570   0.01267  Uiso   1.00
O42    O     0.33480   0.81110   0.04260   0.01267  Uiso   1.00
O43    O     0.77590   0.80400   0.93370   0.01267  Uiso   1.00
O44    O     0.40850   0.93670   0.97340   0.01267  Uiso   1.00
O45    O     0.58750   0.97620   0.92420   0.01267  Uiso   1.00
O46    O     0.55760   0.85890   0.94100   0.01267  Uiso   1.00
O47    O     0.21520   0.85820   0.66320   0.01267  Uiso   1.00
O48    O     0.19740   0.96450   0.67000   0.01267  Uiso   1.00
O49    O     0.00140   0.60480   0.59570   0.01267  Uiso   1.00
O50    O     0.16520   0.68890   0.54260   0.01267  Uiso   1.00
O51    O     0.72410   0.69600   0.43370   0.01267  Uiso   1.00
O52    O     0.09150   0.56330   0.47340   0.01267  Uiso   1.00
O53    O     0.91250   0.52380   0.42420   0.01267  Uiso   1.00
O54    O     0.94240   0.64110   0.44100   0.01267  Uiso   1.00
O55    O     0.28480   0.64180   0.16320   0.01267  Uiso   1.00
O56    O     0.30260   0.53550   0.17000   0.01267  Uiso   1.00
O57    O     0.50140   0.39520   0.90430   0.01267  Uiso   1.00
O58    O     0.66520   0.31110   0.95740   0.01267  Uiso   1.00
O59    O     0.22410   0.30400   0.06630   0.01267  Uiso   1.00
O60    O     0.59150   0.43670   0.02660   0.01267  Uiso   1.00
O61    O     0.41250   0.47620   0.07580   0.01267  Uiso   1.00
O62    O     0.44240   0.35890   0.05900   0.01267  Uiso   1.00
O63    O     0.78480   0.35820   0.33680   0.01267  Uiso   1.00
O64    O     0.80260   0.46450   0.33000   0.01267  Uiso   1.00
O65    O     0.89250   0.75000   0.52080   0.01267  Uiso   1.00
O66    O     0.10210   0.75000   0.45020   0.01267  Uiso   1.00
O67    O     0.39250   0.25000   0.97920   0.01267  Uiso   1.00
O68    O     0.60210   0.25000   0.04980   0.01267  Uiso   1.00
O69    O     0.10750   0.25000   0.47920   0.01267  Uiso   1.00
O70    O     0.89790   0.25000   0.54980   0.01267  Uiso   1.00
O71    O     0.60750   0.75000   0.02080   0.01267  Uiso   1.00
O72    O     0.39790   0.75000   0.95020   0.01267  Uiso   1.00
