data_AWEJIW_clean
_audit_creation_date              2014-07-02
_audit_creation_method            'Materials Studio'
_symmetry_space_group_name_H-M    'P1'
_symmetry_Int_Tables_number       1
_symmetry_cell_setting            triclinic
loop_
_symmetry_equiv_pos_as_xyz
  x,y,z
_cell_length_a                    7.1422
_cell_length_b                    21.2110
_cell_length_c                    22.1810
_cell_angle_alpha                 62.4120
_cell_angle_beta                  81.3920
_cell_angle_gamma                 89.5380
loop_
_atom_site_label
_atom_site_type_symbol
_atom_site_fract_x
_atom_site_fract_y
_atom_site_fract_z
_atom_site_U_iso_or_equiv
_atom_site_adp_type
_atom_site_occupancy
Cd1    Cd    0.16505   0.69050   0.56925   0.01267  Uiso   1.00
Cd2    Cd    0.66359   0.74660   0.56965   0.01267  Uiso   1.00
Cd3    Cd    0.25874   0.90729   0.01583   0.01267  Uiso   1.00
Cd4    Cd    0.83495   0.30950   0.43075   0.01267  Uiso   1.00
Cd5    Cd    0.33641   0.25340   0.43035   0.01267  Uiso   1.00
Cd6    Cd    0.74126   0.09271   0.98417   0.01267  Uiso   1.00
H1     H     0.89360   0.90890   0.91110   0.01267  Uiso   1.00
H2     H     0.13310   0.91560   0.82540   0.01267  Uiso   1.00
H3     H     0.73840   0.87170   0.73400   0.01267  Uiso   1.00
H4     H     0.50230   0.87470   0.81980   0.01267  Uiso   1.00
H5     H     0.99900   0.80550   0.71570   0.01267  Uiso   1.00
H6     H     0.48600   0.88690   0.58460   0.01267  Uiso   1.00
H7     H     0.27840   0.97180   0.70510   0.01267  Uiso   1.00
H8     H     0.41990   0.07600   0.60540   0.01267  Uiso   1.00
H9     H     0.66770   0.16240   0.56070   0.01267  Uiso   1.00
H10    H     0.02730   0.01910   0.55220   0.01267  Uiso   1.00
H11    H     0.77840   0.93410   0.59410   0.01267  Uiso   1.00
H12    H     0.47030   0.56560   0.45250   0.01267  Uiso   1.00
H13    H     0.71590   0.52410   0.40380   0.01267  Uiso   1.00
H14    H     0.08560   0.65960   0.41340   0.01267  Uiso   1.00
H15    H     0.83780   0.70220   0.46030   0.01267  Uiso   1.00
H16    H     0.01250   0.46080   0.41210   0.01267  Uiso   1.00
H17    H     0.50660   0.51250   0.28320   0.01267  Uiso   1.00
H18    H     0.21280   0.66610   0.30500   0.01267  Uiso   1.00
H19    H     0.36600   0.73040   0.19020   0.01267  Uiso   1.00
H20    H     0.76010   0.58840   0.26430   0.01267  Uiso   1.00
H21    H     0.99850   0.67300   0.19500   0.01267  Uiso   1.00
H22    H     0.60880   0.81740   0.11580   0.01267  Uiso   1.00
H23    H     0.10640   0.09110   0.08890   0.01267  Uiso   1.00
H24    H     0.86690   0.08440   0.17460   0.01267  Uiso   1.00
H25    H     0.26160   0.12830   0.26600   0.01267  Uiso   1.00
H26    H     0.49770   0.12530   0.18020   0.01267  Uiso   1.00
H27    H     0.00100   0.19450   0.28430   0.01267  Uiso   1.00
H28    H     0.51400   0.11310   0.41540   0.01267  Uiso   1.00
H29    H     0.72160   0.02820   0.29490   0.01267  Uiso   1.00
H30    H     0.58010   0.92400   0.39460   0.01267  Uiso   1.00
H31    H     0.33230   0.83760   0.43930   0.01267  Uiso   1.00
H32    H     0.97270   0.98090   0.44780   0.01267  Uiso   1.00
H33    H     0.22160   0.06590   0.40590   0.01267  Uiso   1.00
H34    H     0.52970   0.43440   0.54750   0.01267  Uiso   1.00
H35    H     0.28410   0.47590   0.59620   0.01267  Uiso   1.00
H36    H     0.91440   0.34040   0.58660   0.01267  Uiso   1.00
H37    H     0.16220   0.29780   0.53970   0.01267  Uiso   1.00
H38    H     0.98750   0.53920   0.58790   0.01267  Uiso   1.00
H39    H     0.49340   0.48750   0.71680   0.01267  Uiso   1.00
H40    H     0.78720   0.33390   0.69500   0.01267  Uiso   1.00
H41    H     0.63400   0.26960   0.80980   0.01267  Uiso   1.00
H42    H     0.23990   0.41160   0.73570   0.01267  Uiso   1.00
H43    H     0.00150   0.32700   0.80500   0.01267  Uiso   1.00
H44    H     0.39120   0.18260   0.88420   0.01267  Uiso   1.00
C1     C     0.52640   0.89760   0.92360   0.01267  Uiso   1.00
C2     C     0.67910   0.89750   0.86820   0.01267  Uiso   1.00
C3     C     0.86390   0.90490   0.87350   0.01267  Uiso   1.00
C4     C     0.00730   0.90640   0.82380   0.01267  Uiso   1.00
C5     C     0.96100   0.89390   0.77060   0.01267  Uiso   1.00
C6     C     0.77140   0.88120   0.76810   0.01267  Uiso   1.00
C7     C     0.62980   0.88330   0.81990   0.01267  Uiso   1.00
C8     C     0.11460   0.88900   0.71890   0.01267  Uiso   1.00
C9     C     0.10340   0.83860   0.69700   0.01267  Uiso   1.00
C10    C     0.24330   0.83510   0.64760   0.01267  Uiso   1.00
C11    C     0.39340   0.88720   0.61870   0.01267  Uiso   1.00
C12    C     0.41030   0.93920   0.63860   0.01267  Uiso   1.00
C13    C     0.26830   0.93790   0.68990   0.01267  Uiso   1.00
C14    C     0.56760   0.99500   0.60540   0.01267  Uiso   1.00
C15    C     0.54130   0.06430   0.59410   0.01267  Uiso   1.00
C16    C     0.68940   0.11670   0.56680   0.01267  Uiso   1.00
C17    C     0.86890   0.10020   0.54860   0.01267  Uiso   1.00
C18    C     0.90430   0.03080   0.56140   0.01267  Uiso   1.00
C19    C     0.75530   0.97980   0.58770   0.01267  Uiso   1.00
C20    C     0.02500   0.15860   0.51750   0.01267  Uiso   1.00
C21    C     0.22270   0.78100   0.62500   0.01267  Uiso   1.00
C22    C     0.47140   0.66720   0.49020   0.01267  Uiso   1.00
C23    C     0.62800   0.63830   0.46030   0.01267  Uiso   1.00
C24    C     0.59360   0.58510   0.44380   0.01267  Uiso   1.00
C25    C     0.74030   0.56040   0.41450   0.01267  Uiso   1.00
C26    C     0.92780   0.59020   0.40060   0.01267  Uiso   1.00
C27    C     0.96190   0.64160   0.41980   0.01267  Uiso   1.00
C28    C     0.81390   0.66660   0.44860   0.01267  Uiso   1.00
C29    C     0.08770   0.56660   0.36600   0.01267  Uiso   1.00
C30    C     0.10640   0.49480   0.38010   0.01267  Uiso   1.00
C31    C     0.25680   0.47160   0.34900   0.01267  Uiso   1.00
C32    C     0.39950   0.52550   0.30310   0.01267  Uiso   1.00
C33    C     0.38620   0.59800   0.28650   0.01267  Uiso   1.00
C34    C     0.22620   0.61830   0.31720   0.01267  Uiso   1.00
C35    C     0.27710   0.39840   0.36790   0.01267  Uiso   1.00
C36    C     0.53810   0.65200   0.23640   0.01267  Uiso   1.00
C37    C     0.49230   0.71950   0.19090   0.01267  Uiso   1.00
C38    C     0.73100   0.63440   0.23550   0.01267  Uiso   1.00
C39    C     0.87280   0.68440   0.19290   0.01267  Uiso   1.00
C40    C     0.83120   0.75460   0.14490   0.01267  Uiso   1.00
C41    C     0.63880   0.77180   0.14540   0.01267  Uiso   1.00
C42    C     0.98610   0.80590   0.09690   0.01267  Uiso   1.00
C43    C     0.47360   0.10240   0.07640   0.01267  Uiso   1.00
C44    C     0.32090   0.10250   0.13180   0.01267  Uiso   1.00
C45    C     0.13610   0.09510   0.12650   0.01267  Uiso   1.00
C46    C     0.99270   0.09360   0.17620   0.01267  Uiso   1.00
C47    C     0.03900   0.10610   0.22940   0.01267  Uiso   1.00
C48    C     0.22860   0.11880   0.23190   0.01267  Uiso   1.00
C49    C     0.37020   0.11670   0.18010   0.01267  Uiso   1.00
C50    C     0.88540   0.11100   0.28110   0.01267  Uiso   1.00
C51    C     0.89660   0.16140   0.30300   0.01267  Uiso   1.00
C52    C     0.75670   0.16490   0.35240   0.01267  Uiso   1.00
C53    C     0.60660   0.11280   0.38130   0.01267  Uiso   1.00
C54    C     0.58970   0.06080   0.36140   0.01267  Uiso   1.00
C55    C     0.73170   0.06210   0.31010   0.01267  Uiso   1.00
C56    C     0.43240   0.00500   0.39460   0.01267  Uiso   1.00
C57    C     0.45870   0.93570   0.40590   0.01267  Uiso   1.00
C58    C     0.31060   0.88330   0.43320   0.01267  Uiso   1.00
C59    C     0.13110   0.89980   0.45140   0.01267  Uiso   1.00
C60    C     0.09570   0.96920   0.43860   0.01267  Uiso   1.00
C61    C     0.24470   0.02020   0.41230   0.01267  Uiso   1.00
C62    C     0.97500   0.84140   0.48250   0.01267  Uiso   1.00
C63    C     0.77730   0.21900   0.37500   0.01267  Uiso   1.00
C64    C     0.52860   0.33280   0.50980   0.01267  Uiso   1.00
C65    C     0.37200   0.36170   0.53970   0.01267  Uiso   1.00
C66    C     0.40640   0.41490   0.55620   0.01267  Uiso   1.00
C67    C     0.25970   0.43960   0.58550   0.01267  Uiso   1.00
C68    C     0.07220   0.40980   0.59940   0.01267  Uiso   1.00
C69    C     0.03810   0.35840   0.58020   0.01267  Uiso   1.00
C70    C     0.18610   0.33340   0.55140   0.01267  Uiso   1.00
C71    C     0.91230   0.43340   0.63400   0.01267  Uiso   1.00
C72    C     0.89360   0.50520   0.61990   0.01267  Uiso   1.00
C73    C     0.74320   0.52840   0.65100   0.01267  Uiso   1.00
C74    C     0.60050   0.47450   0.69690   0.01267  Uiso   1.00
C75    C     0.61380   0.40200   0.71350   0.01267  Uiso   1.00
C76    C     0.77380   0.38170   0.68280   0.01267  Uiso   1.00
C77    C     0.72290   0.60160   0.63210   0.01267  Uiso   1.00
C78    C     0.46190   0.34800   0.76360   0.01267  Uiso   1.00
C79    C     0.50770   0.28050   0.80910   0.01267  Uiso   1.00
C80    C     0.26900   0.36560   0.76450   0.01267  Uiso   1.00
C81    C     0.12720   0.31560   0.80710   0.01267  Uiso   1.00
C82    C     0.16880   0.24540   0.85510   0.01267  Uiso   1.00
C83    C     0.36120   0.22820   0.85460   0.01267  Uiso   1.00
C84    C     0.01390   0.19410   0.90310   0.01267  Uiso   1.00
O1     O     0.56720   0.91920   0.96620   0.01267  Uiso   1.00
O2     O     0.35790   0.88130   0.92420   0.01267  Uiso   1.00
O3     O     0.06720   0.74560   0.63990   0.01267  Uiso   1.00
O4     O     0.35520   0.77160   0.58850   0.01267  Uiso   1.00
O5     O     0.00390   0.21250   0.52270   0.01267  Uiso   1.00
O6     O     0.16910   0.15440   0.47980   0.01267  Uiso   1.00
O7     O     0.30640   0.63650   0.50670   0.01267  Uiso   1.00
O8     O     0.50770   0.71770   0.50180   0.01267  Uiso   1.00
O9     O     0.13640   0.35790   0.38530   0.01267  Uiso   1.00
O10    O     0.43870   0.37370   0.37060   0.01267  Uiso   1.00
O11    O     0.15370   0.79730   0.10470   0.01267  Uiso   1.00
O12    O     0.94700   0.86630   0.05120   0.01267  Uiso   1.00
O13    O     0.43280   0.08080   0.03380   0.01267  Uiso   1.00
O14    O     0.64210   0.11870   0.07580   0.01267  Uiso   1.00
O15    O     0.93280   0.25440   0.36010   0.01267  Uiso   1.00
O16    O     0.64480   0.22840   0.41150   0.01267  Uiso   1.00
O17    O     0.99610   0.78750   0.47730   0.01267  Uiso   1.00
O18    O     0.83090   0.84560   0.52020   0.01267  Uiso   1.00
O19    O     0.69360   0.36350   0.49330   0.01267  Uiso   1.00
O20    O     0.49230   0.28230   0.49820   0.01267  Uiso   1.00
O21    O     0.86360   0.64210   0.61470   0.01267  Uiso   1.00
O22    O     0.56130   0.62630   0.62940   0.01267  Uiso   1.00
O23    O     0.84630   0.20270   0.89530   0.01267  Uiso   1.00
O24    O     0.05300   0.13370   0.94880   0.01267  Uiso   1.00
