data_image0
_cell_length_a       23.4897
_cell_length_b       23.4895
_cell_length_c       31.9645
_cell_angle_alpha    90
_cell_angle_beta     90
_cell_angle_gamma    90

_symmetry_space_group_name_H-M    "P 1"
_symmetry_int_tables_number       1

loop_
  _symmetry_equiv_pos_as_xyz
  'x, y, z'

loop_
  _atom_site_label
  _atom_site_occupancy
  _atom_site_fract_x
  _atom_site_fract_y
  _atom_site_fract_z
  _atom_site_thermal_displace_type
  _atom_site_B_iso_or_equiv
  _atom_site_type_symbol
  O1       1.0000 0.46869  0.09080  0.75980  Biso   1.000  O
  O2       1.0000 0.48198  0.06052  0.69527  Biso   1.000  O
  O3       1.0000 0.09091  0.46929  0.75965  Biso   1.000  O
  O4       1.0000 0.06031  0.48235  0.69501  Biso   1.000  O
  C1       1.0000 0.46815  0.09860  0.72100  Biso   1.000  C
  C2       1.0000 0.42662  0.42644  0.57546  Biso   1.000  C
  C3       1.0000 0.44914  0.15638  0.70379  Biso   1.000  C
  C4       1.0000 0.41020  0.26070  0.67367  Biso   1.000  C
  C5       1.0000 0.41443  0.41480  0.53514  Biso   1.000  C
  C6       1.0000 0.42860  0.19620  0.73131  Biso   1.000  C
  H1       1.0000 0.42800  0.18870  0.75990  Biso   1.000  H
  C7       1.0000 0.26051  0.41020  0.67362  Biso   1.000  C
  C8       1.0000 0.38833  0.31548  0.65720  Biso   1.000  C
  C9       1.0000 0.39533  0.39491  0.60991  Biso   1.000  C
  C10      1.0000 0.31543  0.38780  0.65686  Biso   1.000  C
  C11      1.0000 0.33876  0.33880  0.67228  Biso   1.000  C
  H2       1.0000 0.32010  0.32030  0.69410  Biso   1.000  H
  C12      1.0000 0.34408  0.41692  0.62515  Biso   1.000  C
  H3       1.0000 0.32930  0.45050  0.61430  Biso   1.000  H
  C13      1.0000 0.19750  0.42900  0.73225  Biso   1.000  C
  H4       1.0000 0.19060  0.42960  0.76090  Biso   1.000  H
  C14      1.0000 0.46718  0.46760  0.58927  Biso   1.000  C
  C15      1.0000 0.40830  0.24930  0.71568  Biso   1.000  C
  H5       1.0000 0.39360  0.27630  0.73410  Biso   1.000  H
  C16      1.0000 0.24840  0.40790  0.71670  Biso   1.000  C
  H6       1.0000 0.27490  0.39220  0.73500  Biso   1.000  H
  C17      1.0000 0.45070  0.16740  0.66141  Biso   1.000  C
  H7       1.0000 0.46360  0.13970  0.64290  Biso   1.000  H
  C18      1.0000 0.43300  0.21980  0.64666  Biso   1.000  C
  H8       1.0000 0.43640  0.22810  0.61830  Biso   1.000  H
  C19      1.0000 0.41758  0.34379  0.62541  Biso   1.000  C
  H9       1.0000 0.45130  0.32900  0.61470  Biso   1.000  H
  C20      1.0000 0.21900  0.43400  0.64644  Biso   1.000  C
  H10      1.0000 0.22670  0.43710  0.61800  Biso   1.000  H
  C21      1.0000 0.37430  0.37440  0.52101  Biso   1.000  C
  H11      1.0000 0.35160  0.35150  0.53800  Biso   1.000  H
  C22      1.0000 0.16800  0.45240  0.66173  Biso   1.000  C
  H12      1.0000 0.14080  0.46700  0.64350  Biso   1.000  H
  C23      1.0000 0.47950  0.47980  0.63117  Biso   1.000  C
  H13      1.0000 0.46270  0.46320  0.65450  Biso   1.000  H
  C24      1.0000 0.09800  0.46830  0.72070  Biso   1.000  C
  C25      1.0000 0.15644  0.44930  0.70381  Biso   1.000  C
  O5       1.0000 0.53131  0.90920  0.75980  Biso   1.000  O
  O6       1.0000 0.51802  0.93948  0.69527  Biso   1.000  O
  O7       1.0000 0.90909  0.53071  0.75965  Biso   1.000  O
  O8       1.0000 0.93969  0.51765  0.69501  Biso   1.000  O
  C26      1.0000 0.53185  0.90140  0.72100  Biso   1.000  C
  C27      1.0000 0.57338  0.57356  0.57546  Biso   1.000  C
  C28      1.0000 0.55086  0.84362  0.70379  Biso   1.000  C
  C29      1.0000 0.58980  0.73930  0.67367  Biso   1.000  C
  C30      1.0000 0.58557  0.58520  0.53514  Biso   1.000  C
  C31      1.0000 0.57140  0.80380  0.73131  Biso   1.000  C
  H14      1.0000 0.57200  0.81130  0.75990  Biso   1.000  H
  C32      1.0000 0.73949  0.58980  0.67362  Biso   1.000  C
  C33      1.0000 0.61167  0.68452  0.65720  Biso   1.000  C
  C34      1.0000 0.60467  0.60509  0.60991  Biso   1.000  C
  C35      1.0000 0.68457  0.61220  0.65686  Biso   1.000  C
  C36      1.0000 0.66124  0.66120  0.67228  Biso   1.000  C
  H15      1.0000 0.67990  0.67970  0.69410  Biso   1.000  H
  C37      1.0000 0.65592  0.58308  0.62515  Biso   1.000  C
  H16      1.0000 0.67070  0.54950  0.61430  Biso   1.000  H
  C38      1.0000 0.80250  0.57100  0.73225  Biso   1.000  C
  H17      1.0000 0.80940  0.57040  0.76090  Biso   1.000  H
  C39      1.0000 0.53282  0.53240  0.58927  Biso   1.000  C
  C40      1.0000 0.59170  0.75070  0.71568  Biso   1.000  C
  H18      1.0000 0.60640  0.72370  0.73410  Biso   1.000  H
  C41      1.0000 0.75160  0.59210  0.71670  Biso   1.000  C
  H19      1.0000 0.72510  0.60780  0.73500  Biso   1.000  H
  C42      1.0000 0.54930  0.83260  0.66141  Biso   1.000  C
  H20      1.0000 0.53640  0.86030  0.64290  Biso   1.000  H
  C43      1.0000 0.56700  0.78020  0.64666  Biso   1.000  C
  H21      1.0000 0.56360  0.77190  0.61830  Biso   1.000  H
  C44      1.0000 0.58242  0.65621  0.62541  Biso   1.000  C
  H22      1.0000 0.54870  0.67100  0.61470  Biso   1.000  H
  C45      1.0000 0.78100  0.56600  0.64644  Biso   1.000  C
  H23      1.0000 0.77330  0.56290  0.61800  Biso   1.000  H
  C46      1.0000 0.62570  0.62560  0.52101  Biso   1.000  C
  H24      1.0000 0.64840  0.64850  0.53800  Biso   1.000  H
  C47      1.0000 0.83200  0.54760  0.66173  Biso   1.000  C
  H25      1.0000 0.85920  0.53300  0.64350  Biso   1.000  H
  C48      1.0000 0.52050  0.52020  0.63117  Biso   1.000  C
  H26      1.0000 0.53730  0.53680  0.65450  Biso   1.000  H
  C49      1.0000 0.90200  0.53170  0.72070  Biso   1.000  C
  C50      1.0000 0.84356  0.55070  0.70381  Biso   1.000  C
  O9       1.0000 0.03131  0.59080  0.74020  Biso   1.000  O
  O10      1.0000 0.01802  0.56052  0.80473  Biso   1.000  O
  O11      1.0000 0.40909  0.96929  0.74035  Biso   1.000  O
  O12      1.0000 0.43969  0.98235  0.80499  Biso   1.000  O
  C51      1.0000 0.03185  0.59860  0.77900  Biso   1.000  C
  C52      1.0000 0.07338  0.92644  0.92454  Biso   1.000  C
  C53      1.0000 0.05086  0.65638  0.79621  Biso   1.000  C
  C54      1.0000 0.08980  0.76070  0.82633  Biso   1.000  C
  C55      1.0000 0.08557  0.91480  0.96486  Biso   1.000  C
  C56      1.0000 0.07140  0.69620  0.76869  Biso   1.000  C
  H27      1.0000 0.07200  0.68870  0.74010  Biso   1.000  H
  C57      1.0000 0.23949  0.91020  0.82638  Biso   1.000  C
  C58      1.0000 0.11167  0.81548  0.84280  Biso   1.000  C
  C59      1.0000 0.10467  0.89491  0.89009  Biso   1.000  C
  C60      1.0000 0.18457  0.88780  0.84314  Biso   1.000  C
  C61      1.0000 0.16124  0.83880  0.82772  Biso   1.000  C
  H28      1.0000 0.17990  0.82030  0.80590  Biso   1.000  H
  C62      1.0000 0.15592  0.91692  0.87485  Biso   1.000  C
  H29      1.0000 0.17070  0.95050  0.88570  Biso   1.000  H
  C63      1.0000 0.30250  0.92900  0.76775  Biso   1.000  C
  H30      1.0000 0.30940  0.92960  0.73910  Biso   1.000  H
  C64      1.0000 0.03282  0.96760  0.91073  Biso   1.000  C
  C65      1.0000 0.09170  0.74930  0.78432  Biso   1.000  C
  H31      1.0000 0.10640  0.77630  0.76590  Biso   1.000  H
  C66      1.0000 0.25160  0.90790  0.78330  Biso   1.000  C
  H32      1.0000 0.22510  0.89220  0.76500  Biso   1.000  H
  C67      1.0000 0.04930  0.66740  0.83859  Biso   1.000  C
  H33      1.0000 0.03640  0.63970  0.85710  Biso   1.000  H
  C68      1.0000 0.06700  0.71980  0.85334  Biso   1.000  C
  H34      1.0000 0.06360  0.72810  0.88170  Biso   1.000  H
  C69      1.0000 0.08242  0.84379  0.87459  Biso   1.000  C
  H35      1.0000 0.04870  0.82900  0.88530  Biso   1.000  H
  C70      1.0000 0.28100  0.93400  0.85356  Biso   1.000  C
  H36      1.0000 0.27330  0.93710  0.88200  Biso   1.000  H
  C71      1.0000 0.12570  0.87440  0.97899  Biso   1.000  C
  H37      1.0000 0.14840  0.85150  0.96200  Biso   1.000  H
  C72      1.0000 0.33200  0.95240  0.83827  Biso   1.000  C
  H38      1.0000 0.35920  0.96700  0.85650  Biso   1.000  H
  C73      1.0000 0.02050  0.97980  0.86883  Biso   1.000  C
  H39      1.0000 0.03730  0.96320  0.84550  Biso   1.000  H
  C74      1.0000 0.40200  0.96830  0.77930  Biso   1.000  C
  C75      1.0000 0.34356  0.94930  0.79619  Biso   1.000  C
  O13      1.0000 0.96869  0.40920  0.74020  Biso   1.000  O
  O14      1.0000 0.98198  0.43948  0.80473  Biso   1.000  O
  O15      1.0000 0.59091  0.03071  0.74035  Biso   1.000  O
  O16      1.0000 0.56031  0.01765  0.80499  Biso   1.000  O
  C76      1.0000 0.96815  0.40140  0.77900  Biso   1.000  C
  C77      1.0000 0.92662  0.07356  0.92454  Biso   1.000  C
  C78      1.0000 0.94914  0.34362  0.79621  Biso   1.000  C
  C79      1.0000 0.91020  0.23930  0.82633  Biso   1.000  C
  C80      1.0000 0.91443  0.08520  0.96486  Biso   1.000  C
  C81      1.0000 0.92860  0.30380  0.76869  Biso   1.000  C
  H40      1.0000 0.92800  0.31130  0.74010  Biso   1.000  H
  C82      1.0000 0.76051  0.08980  0.82638  Biso   1.000  C
  C83      1.0000 0.88833  0.18452  0.84280  Biso   1.000  C
  C84      1.0000 0.89533  0.10509  0.89009  Biso   1.000  C
  C85      1.0000 0.81543  0.11220  0.84314  Biso   1.000  C
  C86      1.0000 0.83876  0.16120  0.82772  Biso   1.000  C
  H41      1.0000 0.82010  0.17970  0.80590  Biso   1.000  H
  C87      1.0000 0.84408  0.08308  0.87485  Biso   1.000  C
  H42      1.0000 0.82930  0.04950  0.88570  Biso   1.000  H
  C88      1.0000 0.69750  0.07100  0.76775  Biso   1.000  C
  H43      1.0000 0.69060  0.07040  0.73910  Biso   1.000  H
  C89      1.0000 0.96718  0.03240  0.91073  Biso   1.000  C
  C90      1.0000 0.90830  0.25070  0.78432  Biso   1.000  C
  H44      1.0000 0.89360  0.22370  0.76590  Biso   1.000  H
  C91      1.0000 0.74840  0.09210  0.78330  Biso   1.000  C
  H45      1.0000 0.77490  0.10780  0.76500  Biso   1.000  H
  C92      1.0000 0.95070  0.33260  0.83859  Biso   1.000  C
  H46      1.0000 0.96360  0.36030  0.85710  Biso   1.000  H
  C93      1.0000 0.93300  0.28020  0.85334  Biso   1.000  C
  H47      1.0000 0.93640  0.27190  0.88170  Biso   1.000  H
  C94      1.0000 0.91758  0.15621  0.87459  Biso   1.000  C
  H48      1.0000 0.95130  0.17100  0.88530  Biso   1.000  H
  C95      1.0000 0.71900  0.06600  0.85356  Biso   1.000  C
  H49      1.0000 0.72670  0.06290  0.88200  Biso   1.000  H
  C96      1.0000 0.87430  0.12560  0.97899  Biso   1.000  C
  H50      1.0000 0.85160  0.14850  0.96200  Biso   1.000  H
  C97      1.0000 0.66800  0.04760  0.83827  Biso   1.000  C
  H51      1.0000 0.64080  0.03300  0.85650  Biso   1.000  H
  C98      1.0000 0.97950  0.02020  0.86883  Biso   1.000  C
  H52      1.0000 0.96270  0.03680  0.84550  Biso   1.000  H
  C99      1.0000 0.59800  0.03170  0.77930  Biso   1.000  C
  C100     1.0000 0.65644  0.05070  0.79619  Biso   1.000  C
  O17      1.0000 0.53131  0.90920  0.24020  Biso   1.000  O
  O18      1.0000 0.51802  0.93948  0.30473  Biso   1.000  O
  O19      1.0000 0.90909  0.53071  0.24035  Biso   1.000  O
  O20      1.0000 0.93969  0.51765  0.30499  Biso   1.000  O
  C101     1.0000 0.53185  0.90140  0.27900  Biso   1.000  C
  C102     1.0000 0.57338  0.57356  0.42454  Biso   1.000  C
  C103     1.0000 0.55086  0.84362  0.29621  Biso   1.000  C
  C104     1.0000 0.58980  0.73930  0.32633  Biso   1.000  C
  C105     1.0000 0.58557  0.58520  0.46486  Biso   1.000  C
  C106     1.0000 0.57140  0.80380  0.26869  Biso   1.000  C
  H53      1.0000 0.57200  0.81130  0.24010  Biso   1.000  H
  C107     1.0000 0.73949  0.58980  0.32638  Biso   1.000  C
  C108     1.0000 0.61167  0.68452  0.34280  Biso   1.000  C
  C109     1.0000 0.60467  0.60509  0.39009  Biso   1.000  C
  C110     1.0000 0.68457  0.61220  0.34314  Biso   1.000  C
  C111     1.0000 0.66124  0.66120  0.32772  Biso   1.000  C
  H54      1.0000 0.67990  0.67970  0.30590  Biso   1.000  H
  C112     1.0000 0.65592  0.58308  0.37485  Biso   1.000  C
  H55      1.0000 0.67070  0.54950  0.38570  Biso   1.000  H
  C113     1.0000 0.80250  0.57100  0.26775  Biso   1.000  C
  H56      1.0000 0.80940  0.57040  0.23910  Biso   1.000  H
  C114     1.0000 0.53282  0.53240  0.41073  Biso   1.000  C
  C115     1.0000 0.59170  0.75070  0.28432  Biso   1.000  C
  H57      1.0000 0.60640  0.72370  0.26590  Biso   1.000  H
  C116     1.0000 0.75160  0.59210  0.28330  Biso   1.000  C
  H58      1.0000 0.72510  0.60780  0.26500  Biso   1.000  H
  C117     1.0000 0.54930  0.83260  0.33859  Biso   1.000  C
  H59      1.0000 0.53640  0.86030  0.35710  Biso   1.000  H
  C118     1.0000 0.56700  0.78020  0.35334  Biso   1.000  C
  H60      1.0000 0.56360  0.77190  0.38170  Biso   1.000  H
  C119     1.0000 0.58242  0.65621  0.37459  Biso   1.000  C
  H61      1.0000 0.54870  0.67100  0.38530  Biso   1.000  H
  C120     1.0000 0.78100  0.56600  0.35356  Biso   1.000  C
  H62      1.0000 0.77330  0.56290  0.38200  Biso   1.000  H
  C121     1.0000 0.62570  0.62560  0.47899  Biso   1.000  C
  H63      1.0000 0.64840  0.64850  0.46200  Biso   1.000  H
  C122     1.0000 0.83200  0.54760  0.33827  Biso   1.000  C
  H64      1.0000 0.85920  0.53300  0.35650  Biso   1.000  H
  C123     1.0000 0.52050  0.52020  0.36883  Biso   1.000  C
  H65      1.0000 0.53730  0.53680  0.34550  Biso   1.000  H
  C124     1.0000 0.90200  0.53170  0.27930  Biso   1.000  C
  C125     1.0000 0.84356  0.55070  0.29619  Biso   1.000  C
  O21      1.0000 0.46869  0.09080  0.24020  Biso   1.000  O
  O22      1.0000 0.48198  0.06052  0.30473  Biso   1.000  O
  O23      1.0000 0.09091  0.46929  0.24035  Biso   1.000  O
  O24      1.0000 0.06031  0.48235  0.30499  Biso   1.000  O
  C126     1.0000 0.46815  0.09860  0.27900  Biso   1.000  C
  C127     1.0000 0.42662  0.42644  0.42454  Biso   1.000  C
  C128     1.0000 0.44914  0.15638  0.29621  Biso   1.000  C
  C129     1.0000 0.41020  0.26070  0.32633  Biso   1.000  C
  C130     1.0000 0.41443  0.41480  0.46486  Biso   1.000  C
  C131     1.0000 0.42860  0.19620  0.26869  Biso   1.000  C
  H66      1.0000 0.42800  0.18870  0.24010  Biso   1.000  H
  C132     1.0000 0.26051  0.41020  0.32638  Biso   1.000  C
  C133     1.0000 0.38833  0.31548  0.34280  Biso   1.000  C
  C134     1.0000 0.39533  0.39491  0.39009  Biso   1.000  C
  C135     1.0000 0.31543  0.38780  0.34314  Biso   1.000  C
  C136     1.0000 0.33876  0.33880  0.32772  Biso   1.000  C
  H67      1.0000 0.32010  0.32030  0.30590  Biso   1.000  H
  C137     1.0000 0.34408  0.41692  0.37485  Biso   1.000  C
  H68      1.0000 0.32930  0.45050  0.38570  Biso   1.000  H
  C138     1.0000 0.19750  0.42900  0.26775  Biso   1.000  C
  H69      1.0000 0.19060  0.42960  0.23910  Biso   1.000  H
  C139     1.0000 0.46718  0.46760  0.41073  Biso   1.000  C
  C140     1.0000 0.40830  0.24930  0.28432  Biso   1.000  C
  H70      1.0000 0.39360  0.27630  0.26590  Biso   1.000  H
  C141     1.0000 0.24840  0.40790  0.28330  Biso   1.000  C
  H71      1.0000 0.27490  0.39220  0.26500  Biso   1.000  H
  C142     1.0000 0.45070  0.16740  0.33859  Biso   1.000  C
  H72      1.0000 0.46360  0.13970  0.35710  Biso   1.000  H
  C143     1.0000 0.43300  0.21980  0.35334  Biso   1.000  C
  H73      1.0000 0.43640  0.22810  0.38170  Biso   1.000  H
  C144     1.0000 0.41758  0.34379  0.37459  Biso   1.000  C
  H74      1.0000 0.45130  0.32900  0.38530  Biso   1.000  H
  C145     1.0000 0.21900  0.43400  0.35356  Biso   1.000  C
  H75      1.0000 0.22670  0.43710  0.38200  Biso   1.000  H
  C146     1.0000 0.37430  0.37440  0.47899  Biso   1.000  C
  H76      1.0000 0.35160  0.35150  0.46200  Biso   1.000  H
  C147     1.0000 0.16800  0.45240  0.33827  Biso   1.000  C
  H77      1.0000 0.14080  0.46700  0.35650  Biso   1.000  H
  C148     1.0000 0.47950  0.47980  0.36883  Biso   1.000  C
  H78      1.0000 0.46270  0.46320  0.34550  Biso   1.000  H
  C149     1.0000 0.09800  0.46830  0.27930  Biso   1.000  C
  C150     1.0000 0.15644  0.44930  0.29619  Biso   1.000  C
  O25      1.0000 0.96869  0.40920  0.25980  Biso   1.000  O
  O26      1.0000 0.98198  0.43948  0.19527  Biso   1.000  O
  O27      1.0000 0.59091  0.03071  0.25965  Biso   1.000  O
  O28      1.0000 0.56031  0.01765  0.19501  Biso   1.000  O
  C151     1.0000 0.96815  0.40140  0.22100  Biso   1.000  C
  C152     1.0000 0.92662  0.07356  0.07546  Biso   1.000  C
  C153     1.0000 0.94914  0.34362  0.20379  Biso   1.000  C
  C154     1.0000 0.91020  0.23930  0.17367  Biso   1.000  C
  C155     1.0000 0.91443  0.08520  0.03514  Biso   1.000  C
  C156     1.0000 0.92860  0.30380  0.23131  Biso   1.000  C
  H79      1.0000 0.92800  0.31130  0.25990  Biso   1.000  H
  C157     1.0000 0.76051  0.08980  0.17362  Biso   1.000  C
  C158     1.0000 0.88833  0.18452  0.15720  Biso   1.000  C
  C159     1.0000 0.89533  0.10509  0.10991  Biso   1.000  C
  C160     1.0000 0.81543  0.11220  0.15686  Biso   1.000  C
  C161     1.0000 0.83876  0.16120  0.17228  Biso   1.000  C
  H80      1.0000 0.82010  0.17970  0.19410  Biso   1.000  H
  C162     1.0000 0.84408  0.08308  0.12515  Biso   1.000  C
  H81      1.0000 0.82930  0.04950  0.11430  Biso   1.000  H
  C163     1.0000 0.69750  0.07100  0.23225  Biso   1.000  C
  H82      1.0000 0.69060  0.07040  0.26090  Biso   1.000  H
  C164     1.0000 0.96718  0.03240  0.08927  Biso   1.000  C
  C165     1.0000 0.90830  0.25070  0.21568  Biso   1.000  C
  H83      1.0000 0.89360  0.22370  0.23410  Biso   1.000  H
  C166     1.0000 0.74840  0.09210  0.21670  Biso   1.000  C
  H84      1.0000 0.77490  0.10780  0.23500  Biso   1.000  H
  C167     1.0000 0.95070  0.33260  0.16141  Biso   1.000  C
  H85      1.0000 0.96360  0.36030  0.14290  Biso   1.000  H
  C168     1.0000 0.93300  0.28020  0.14666  Biso   1.000  C
  H86      1.0000 0.93640  0.27190  0.11830  Biso   1.000  H
  C169     1.0000 0.91758  0.15621  0.12541  Biso   1.000  C
  H87      1.0000 0.95130  0.17100  0.11470  Biso   1.000  H
  C170     1.0000 0.71900  0.06600  0.14644  Biso   1.000  C
  H88      1.0000 0.72670  0.06290  0.11800  Biso   1.000  H
  C171     1.0000 0.87430  0.12560  0.02101  Biso   1.000  C
  H89      1.0000 0.85160  0.14850  0.03800  Biso   1.000  H
  C172     1.0000 0.66800  0.04760  0.16173  Biso   1.000  C
  H90      1.0000 0.64080  0.03300  0.14350  Biso   1.000  H
  C173     1.0000 0.97950  0.02020  0.13117  Biso   1.000  C
  H91      1.0000 0.96270  0.03680  0.15450  Biso   1.000  H
  C174     1.0000 0.59800  0.03170  0.22070  Biso   1.000  C
  C175     1.0000 0.65644  0.05070  0.20381  Biso   1.000  C
  O29      1.0000 0.03131  0.59080  0.25980  Biso   1.000  O
  O30      1.0000 0.01802  0.56052  0.19527  Biso   1.000  O
  O31      1.0000 0.40909  0.96929  0.25965  Biso   1.000  O
  O32      1.0000 0.43969  0.98235  0.19501  Biso   1.000  O
  C176     1.0000 0.03185  0.59860  0.22100  Biso   1.000  C
  C177     1.0000 0.07338  0.92644  0.07546  Biso   1.000  C
  C178     1.0000 0.05086  0.65638  0.20379  Biso   1.000  C
  C179     1.0000 0.08980  0.76070  0.17367  Biso   1.000  C
  C180     1.0000 0.08557  0.91480  0.03514  Biso   1.000  C
  C181     1.0000 0.07140  0.69620  0.23131  Biso   1.000  C
  H92      1.0000 0.07200  0.68870  0.25990  Biso   1.000  H
  C182     1.0000 0.23949  0.91020  0.17362  Biso   1.000  C
  C183     1.0000 0.11167  0.81548  0.15720  Biso   1.000  C
  C184     1.0000 0.10467  0.89491  0.10991  Biso   1.000  C
  C185     1.0000 0.18457  0.88780  0.15686  Biso   1.000  C
  C186     1.0000 0.16124  0.83880  0.17228  Biso   1.000  C
  H93      1.0000 0.17990  0.82030  0.19410  Biso   1.000  H
  C187     1.0000 0.15592  0.91692  0.12515  Biso   1.000  C
  H94      1.0000 0.17070  0.95050  0.11430  Biso   1.000  H
  C188     1.0000 0.30250  0.92900  0.23225  Biso   1.000  C
  H95      1.0000 0.30940  0.92960  0.26090  Biso   1.000  H
  C189     1.0000 0.03282  0.96760  0.08927  Biso   1.000  C
  C190     1.0000 0.09170  0.74930  0.21568  Biso   1.000  C
  H96      1.0000 0.10640  0.77630  0.23410  Biso   1.000  H
  C191     1.0000 0.25160  0.90790  0.21670  Biso   1.000  C
  H97      1.0000 0.22510  0.89220  0.23500  Biso   1.000  H
  C192     1.0000 0.04930  0.66740  0.16141  Biso   1.000  C
  H98      1.0000 0.03640  0.63970  0.14290  Biso   1.000  H
  C193     1.0000 0.06700  0.71980  0.14666  Biso   1.000  C
  H99      1.0000 0.06360  0.72810  0.11830  Biso   1.000  H
  C194     1.0000 0.08242  0.84379  0.12541  Biso   1.000  C
  H100     1.0000 0.04870  0.82900  0.11470  Biso   1.000  H
  C195     1.0000 0.28100  0.93400  0.14644  Biso   1.000  C
  H101     1.0000 0.27330  0.93710  0.11800  Biso   1.000  H
  C196     1.0000 0.12570  0.87440  0.02101  Biso   1.000  C
  H102     1.0000 0.14840  0.85150  0.03800  Biso   1.000  H
  C197     1.0000 0.33200  0.95240  0.16173  Biso   1.000  C
  H103     1.0000 0.35920  0.96700  0.14350  Biso   1.000  H
  C198     1.0000 0.02050  0.97980  0.13117  Biso   1.000  C
  H104     1.0000 0.03730  0.96320  0.15450  Biso   1.000  H
  C199     1.0000 0.40200  0.96830  0.22070  Biso   1.000  C
  C200     1.0000 0.34356  0.94930  0.20381  Biso   1.000  C
  In1      1.0000 0.50000  0.00000  0.75002  Biso   1.000  In
  In2      1.0000 0.00000  0.50000  0.74998  Biso   1.000  In
  In3      1.0000 0.50000  0.00000  0.24998  Biso   1.000  In
  In4      1.0000 0.00000  0.50000  0.25002  Biso   1.000  In
  Fe1      1.0000 0.50000  0.50000  0.50000  Biso   1.000  Fe
  Fe2      1.0000 0.00000  0.00000  0.00000  Biso   1.000  Fe
  N1       1.0000 0.43900  0.43932  0.50000  Biso   1.000  N
  N2       1.0000 0.56100  0.56068  0.50000  Biso   1.000  N
  N3       1.0000 0.06100  0.93932  0.00000  Biso   1.000  N
  N4       1.0000 0.93900  0.06068  0.00000  Biso   1.000  N
  N5       1.0000 0.50000  0.50000  0.56278  Biso   1.000  N
  N6       1.0000 0.00000  0.00000  0.93722  Biso   1.000  N
  N7       1.0000 0.50000  0.50000  0.43722  Biso   1.000  N
  N8       1.0000 0.00000  0.00000  0.06278  Biso   1.000  N
