data_image0
_cell_length_a       13.4487
_cell_length_b       17.921
_cell_length_c       19.9026
_cell_angle_alpha    90
_cell_angle_beta     90.9833
_cell_angle_gamma    90

_symmetry_space_group_name_H-M    "P 1"
_symmetry_int_tables_number       1

loop_
  _symmetry_equiv_pos_as_xyz
  'x, y, z'

loop_
  _atom_site_label
  _atom_site_occupancy
  _atom_site_fract_x
  _atom_site_fract_y
  _atom_site_fract_z
  _atom_site_thermal_displace_type
  _atom_site_B_iso_or_equiv
  _atom_site_type_symbol
  U1       1.0000 0.34904  0.97817  0.22905  Biso   1.000  U
  U2       1.0000 0.65281  0.00175  0.27448  Biso   1.000  U
  U3       1.0000 0.37856  0.73814  0.37729  Biso   1.000  U
  U4       1.0000 0.62354  0.24835  0.12274  Biso   1.000  U
  U5       1.0000 0.34780  0.00519  0.50941  Biso   1.000  U
  U6       1.0000 0.34884  0.00755  0.01181  Biso   1.000  U
  P1       1.0000 0.14300  0.03242  0.11849  Biso   1.000  P
  P2       1.0000 0.77470  0.07791  0.12828  Biso   1.000  P
  P3       1.0000 0.85870  0.95831  0.38796  Biso   1.000  P
  P4       1.0000 0.49380  0.06105  0.12838  Biso   1.000  P
  P5       1.0000 0.50920  0.92391  0.37924  Biso   1.000  P
  P6       1.0000 0.22700  0.90482  0.37479  Biso   1.000  P
  O1       1.0000 0.48100  0.97500  0.43810  Biso   1.000  O
  F1       1.0000 0.46010  0.28030  0.14080  Biso   1.000  F
  O2       1.0000 0.96170  0.99990  0.39560  Biso   1.000  O
  O3       1.0000 0.37810  0.05420  0.12720  Biso   1.000  O
  O4       1.0000 0.62600  0.93240  0.38010  Biso   1.000  O
  O5       1.0000 0.20120  0.98500  0.16850  Biso   1.000  O
  O6       1.0000 0.52080  0.01910  0.06340  Biso   1.000  O
  O7       1.0000 0.80030  0.00310  0.33540  Biso   1.000  O
  O8       1.0000 0.26140  0.97210  0.41540  Biso   1.000  O
  O9       1.0000 0.19510  0.03760  0.05160  Biso   1.000  O
  O10      1.0000 0.52440  0.01670  0.19190  Biso   1.000  O
  O11      1.0000 0.47940  0.95760  0.31080  Biso   1.000  O
  O12      1.0000 0.04170  0.98880  0.10580  Biso   1.000  O
  O13      1.0000 0.25430  0.91500  0.30190  Biso   1.000  O
  O14      1.0000 0.26440  0.83170  0.40270  Biso   1.000  O
  O15      1.0000 0.87860  0.87950  0.36540  Biso   1.000  O
  O16      1.0000 0.80800  0.96200  0.45500  Biso   1.000  O
  O17      1.0000 0.74890  0.06230  0.20110  Biso   1.000  O
  O18      1.0000 0.74340  0.01160  0.08500  Biso   1.000  O
  O19      1.0000 0.11910  0.10820  0.14690  Biso   1.000  O
  O20      1.0000 0.89170  0.08010  0.12390  Biso   1.000  O
  F2       1.0000 0.54300  0.70620  0.36650  Biso   1.000  F
  O21      1.0000 0.52870  0.13980  0.12890  Biso   1.000  O
  O22      1.0000 0.47690  0.84580  0.38980  Biso   1.000  O
  O23      1.0000 0.73510  0.15180  0.10360  Biso   1.000  O
  O24      1.0000 0.10980  0.90520  0.38000  Biso   1.000  O
  H1       1.0000 0.98860  0.01200  0.10590  Biso   1.000  H
  H2       1.0000 0.08590  0.84630  0.37500  Biso   1.000  H
  H3       1.0000 0.02820  0.97710  0.38690  Biso   1.000  H
  H4       1.0000 0.93260  0.12650  0.11920  Biso   1.000  H
  U7       1.0000 0.15096  0.47817  0.27095  Biso   1.000  U
  U8       1.0000 0.84719  0.50175  0.22552  Biso   1.000  U
  U9       1.0000 0.12144  0.23814  0.12271  Biso   1.000  U
  U10      1.0000 0.87646  0.74835  0.37726  Biso   1.000  U
  U11      1.0000 0.15220  0.50519  0.99059  Biso   1.000  U
  U12      1.0000 0.15116  0.50755  0.48819  Biso   1.000  U
  P7       1.0000 0.35700  0.53242  0.38151  Biso   1.000  P
  P8       1.0000 0.72530  0.57791  0.37172  Biso   1.000  P
  P9       1.0000 0.64130  0.45831  0.11204  Biso   1.000  P
  P10      1.0000 0.00620  0.56105  0.37162  Biso   1.000  P
  P11      1.0000 0.99080  0.42391  0.12076  Biso   1.000  P
  P12      1.0000 0.27300  0.40482  0.12521  Biso   1.000  P
  O25      1.0000 0.01900  0.47500  0.06190  Biso   1.000  O
  F3       1.0000 0.03990  0.78030  0.35920  Biso   1.000  F
  O26      1.0000 0.53830  0.49990  0.10440  Biso   1.000  O
  O27      1.0000 0.12190  0.55420  0.37280  Biso   1.000  O
  O28      1.0000 0.87400  0.43240  0.11990  Biso   1.000  O
  O29      1.0000 0.29880  0.48500  0.33150  Biso   1.000  O
  O30      1.0000 0.97920  0.51910  0.43660  Biso   1.000  O
  O31      1.0000 0.69970  0.50310  0.16460  Biso   1.000  O
  O32      1.0000 0.23860  0.47210  0.08460  Biso   1.000  O
  O33      1.0000 0.30490  0.53760  0.44840  Biso   1.000  O
  O34      1.0000 0.97560  0.51670  0.30810  Biso   1.000  O
  O35      1.0000 0.02060  0.45760  0.18920  Biso   1.000  O
  O36      1.0000 0.45830  0.48880  0.39420  Biso   1.000  O
  O37      1.0000 0.24570  0.41500  0.19810  Biso   1.000  O
  O38      1.0000 0.23560  0.33170  0.09730  Biso   1.000  O
  O39      1.0000 0.62140  0.37950  0.13460  Biso   1.000  O
  O40      1.0000 0.69200  0.46200  0.04500  Biso   1.000  O
  O41      1.0000 0.75110  0.56230  0.29890  Biso   1.000  O
  O42      1.0000 0.75660  0.51160  0.41500  Biso   1.000  O
  O43      1.0000 0.38090  0.60820  0.35310  Biso   1.000  O
  O44      1.0000 0.60830  0.58010  0.37610  Biso   1.000  O
  F4       1.0000 0.95700  0.20620  0.13350  Biso   1.000  F
  O45      1.0000 0.97130  0.63980  0.37110  Biso   1.000  O
  O46      1.0000 0.02310  0.34580  0.11020  Biso   1.000  O
  O47      1.0000 0.76490  0.65180  0.39640  Biso   1.000  O
  O48      1.0000 0.39020  0.40520  0.12000  Biso   1.000  O
  H5       1.0000 0.51140  0.51200  0.39410  Biso   1.000  H
  H6       1.0000 0.41410  0.34630  0.12500  Biso   1.000  H
  H7       1.0000 0.47180  0.47710  0.11310  Biso   1.000  H
  H8       1.0000 0.56740  0.62650  0.38080  Biso   1.000  H
  U13      1.0000 0.65096  0.02183  0.77095  Biso   1.000  U
  U14      1.0000 0.34719  0.99825  0.72552  Biso   1.000  U
  U15      1.0000 0.62144  0.26186  0.62271  Biso   1.000  U
  U16      1.0000 0.37646  0.75165  0.87726  Biso   1.000  U
  U17      1.0000 0.65220  0.99481  0.49059  Biso   1.000  U
  U18      1.0000 0.65116  0.99245  0.98819  Biso   1.000  U
  P13      1.0000 0.85700  0.96758  0.88151  Biso   1.000  P
  P14      1.0000 0.22530  0.92209  0.87172  Biso   1.000  P
  P15      1.0000 0.14130  0.04169  0.61204  Biso   1.000  P
  P16      1.0000 0.50620  0.93895  0.87162  Biso   1.000  P
  P17      1.0000 0.49080  0.07609  0.62076  Biso   1.000  P
  P18      1.0000 0.77300  0.09518  0.62521  Biso   1.000  P
  O49      1.0000 0.51900  0.02500  0.56190  Biso   1.000  O
  F5       1.0000 0.53990  0.71970  0.85920  Biso   1.000  F
  O50      1.0000 0.03830  0.00010  0.60440  Biso   1.000  O
  O51      1.0000 0.62190  0.94580  0.87280  Biso   1.000  O
  O52      1.0000 0.37400  0.06760  0.61990  Biso   1.000  O
  O53      1.0000 0.79880  0.01500  0.83150  Biso   1.000  O
  O54      1.0000 0.47920  0.98090  0.93660  Biso   1.000  O
  O55      1.0000 0.19970  0.99690  0.66460  Biso   1.000  O
  O56      1.0000 0.73860  0.02790  0.58460  Biso   1.000  O
  O57      1.0000 0.80490  0.96240  0.94840  Biso   1.000  O
  O58      1.0000 0.47560  0.98330  0.80810  Biso   1.000  O
  O59      1.0000 0.52060  0.04240  0.68920  Biso   1.000  O
  O60      1.0000 0.95830  0.01120  0.89420  Biso   1.000  O
  O61      1.0000 0.74570  0.08500  0.69810  Biso   1.000  O
  O62      1.0000 0.73560  0.16830  0.59730  Biso   1.000  O
  O63      1.0000 0.12140  0.12050  0.63460  Biso   1.000  O
  O64      1.0000 0.19200  0.03800  0.54500  Biso   1.000  O
  O65      1.0000 0.25110  0.93770  0.79890  Biso   1.000  O
  O66      1.0000 0.25660  0.98840  0.91500  Biso   1.000  O
  O67      1.0000 0.88090  0.89180  0.85310  Biso   1.000  O
  O68      1.0000 0.10830  0.91990  0.87610  Biso   1.000  O
  F6       1.0000 0.45700  0.29380  0.63350  Biso   1.000  F
  O69      1.0000 0.47130  0.86020  0.87110  Biso   1.000  O
  O70      1.0000 0.52310  0.15420  0.61020  Biso   1.000  O
  O71      1.0000 0.26490  0.84820  0.89640  Biso   1.000  O
  O72      1.0000 0.89020  0.09480  0.62000  Biso   1.000  O
  H9       1.0000 0.01140  0.98800  0.89410  Biso   1.000  H
  H10      1.0000 0.91410  0.15370  0.62500  Biso   1.000  H
  H11      1.0000 0.97180  0.02290  0.61310  Biso   1.000  H
  H12      1.0000 0.06740  0.87350  0.88080  Biso   1.000  H
  U19      1.0000 0.84904  0.52183  0.72905  Biso   1.000  U
  U20      1.0000 0.15281  0.49825  0.77448  Biso   1.000  U
  U21      1.0000 0.87856  0.76186  0.87729  Biso   1.000  U
  U22      1.0000 0.12354  0.25165  0.62274  Biso   1.000  U
  U23      1.0000 0.84780  0.49481  0.00941  Biso   1.000  U
  U24      1.0000 0.84884  0.49245  0.51181  Biso   1.000  U
  P19      1.0000 0.64300  0.46758  0.61849  Biso   1.000  P
  P20      1.0000 0.27470  0.42209  0.62828  Biso   1.000  P
  P21      1.0000 0.35870  0.54169  0.88796  Biso   1.000  P
  P22      1.0000 0.99380  0.43895  0.62838  Biso   1.000  P
  P23      1.0000 0.00920  0.57609  0.87924  Biso   1.000  P
  P24      1.0000 0.72700  0.59518  0.87479  Biso   1.000  P
  O73      1.0000 0.98100  0.52500  0.93810  Biso   1.000  O
  F7       1.0000 0.96010  0.21970  0.64080  Biso   1.000  F
  O74      1.0000 0.46170  0.50010  0.89560  Biso   1.000  O
  O75      1.0000 0.87810  0.44580  0.62720  Biso   1.000  O
  O76      1.0000 0.12600  0.56760  0.88010  Biso   1.000  O
  O77      1.0000 0.70120  0.51500  0.66850  Biso   1.000  O
  O78      1.0000 0.02080  0.48090  0.56340  Biso   1.000  O
  O79      1.0000 0.30030  0.49690  0.83540  Biso   1.000  O
  O80      1.0000 0.76140  0.52790  0.91540  Biso   1.000  O
  O81      1.0000 0.69510  0.46240  0.55160  Biso   1.000  O
  O82      1.0000 0.02440  0.48330  0.69190  Biso   1.000  O
  O83      1.0000 0.97940  0.54240  0.81080  Biso   1.000  O
  O84      1.0000 0.54170  0.51120  0.60580  Biso   1.000  O
  O85      1.0000 0.75430  0.58500  0.80190  Biso   1.000  O
  O86      1.0000 0.76440  0.66830  0.90270  Biso   1.000  O
  O87      1.0000 0.37860  0.62050  0.86540  Biso   1.000  O
  O88      1.0000 0.30800  0.53800  0.95500  Biso   1.000  O
  O89      1.0000 0.24890  0.43770  0.70110  Biso   1.000  O
  O90      1.0000 0.24340  0.48840  0.58500  Biso   1.000  O
  O91      1.0000 0.61910  0.39180  0.64690  Biso   1.000  O
  O92      1.0000 0.39170  0.41990  0.62390  Biso   1.000  O
  F8       1.0000 0.04300  0.79380  0.86650  Biso   1.000  F
  O93      1.0000 0.02870  0.36020  0.62890  Biso   1.000  O
  O94      1.0000 0.97690  0.65420  0.88980  Biso   1.000  O
  O95      1.0000 0.23510  0.34820  0.60360  Biso   1.000  O
  O96      1.0000 0.60980  0.59480  0.88000  Biso   1.000  O
  H13      1.0000 0.48860  0.48800  0.60590  Biso   1.000  H
  H14      1.0000 0.58590  0.65370  0.87500  Biso   1.000  H
  H15      1.0000 0.52820  0.52290  0.88690  Biso   1.000  H
  H16      1.0000 0.43260  0.37350  0.61920  Biso   1.000  H
