data_image0
_cell_length_a       6.734
_cell_length_b       12.536
_cell_length_c       9.12
_cell_angle_alpha    90
_cell_angle_beta     118.622
_cell_angle_gamma    90

_symmetry_space_group_name_H-M    "P 1"
_symmetry_int_tables_number       1

loop_
  _symmetry_equiv_pos_as_xyz
  'x, y, z'

loop_
  _atom_site_label
  _atom_site_occupancy
  _atom_site_fract_x
  _atom_site_fract_y
  _atom_site_fract_z
  _atom_site_thermal_displace_type
  _atom_site_B_iso_or_equiv
  _atom_site_type_symbol
  Ag1      1.0000 0.64630  0.23302  0.60150  Biso   1.000  Ag
  C1       1.0000 0.55000  0.16010  0.37630  Biso   1.000  C
  N1       1.0000 0.48830  0.10700  0.25860  Biso   1.000  N
  C2       1.0000 0.72500  0.32650  0.80910  Biso   1.000  C
  N2       1.0000 0.77320  0.38910  0.90980  Biso   1.000  N
  C3       1.0000 0.98140  0.09140  0.07710  Biso   1.000  C
  H1       1.0000 0.04910  0.15750  0.07510  Biso   1.000  H
  C4       1.0000 0.77390  0.09080  0.07840  Biso   1.000  C
  H2       1.0000 0.70090  0.15650  0.07380  Biso   1.000  H
  Ag2      1.0000 0.14630  0.73302  0.60150  Biso   1.000  Ag
  C5       1.0000 0.05000  0.66010  0.37630  Biso   1.000  C
  N3       1.0000 0.98830  0.60700  0.25860  Biso   1.000  N
  C6       1.0000 0.22500  0.82650  0.80910  Biso   1.000  C
  N4       1.0000 0.27320  0.88910  0.90980  Biso   1.000  N
  C7       1.0000 0.48140  0.59140  0.07710  Biso   1.000  C
  H3       1.0000 0.54910  0.65750  0.07510  Biso   1.000  H
  C8       1.0000 0.27390  0.59080  0.07840  Biso   1.000  C
  H4       1.0000 0.20090  0.65650  0.07380  Biso   1.000  H
  Ag3      1.0000 0.64630  0.76698  0.60150  Biso   1.000  Ag
  C9       1.0000 0.55000  0.83990  0.37630  Biso   1.000  C
  N5       1.0000 0.48830  0.89300  0.25860  Biso   1.000  N
  C10      1.0000 0.72500  0.67350  0.80910  Biso   1.000  C
  N6       1.0000 0.77320  0.61090  0.90980  Biso   1.000  N
  C11      1.0000 0.98140  0.90860  0.07710  Biso   1.000  C
  H5       1.0000 0.04910  0.84250  0.07510  Biso   1.000  H
  C12      1.0000 0.77390  0.90920  0.07840  Biso   1.000  C
  H6       1.0000 0.70090  0.84350  0.07380  Biso   1.000  H
  Ag4      1.0000 0.14630  0.26698  0.60150  Biso   1.000  Ag
  C13      1.0000 0.05000  0.33990  0.37630  Biso   1.000  C
  N7       1.0000 0.98830  0.39300  0.25860  Biso   1.000  N
  C14      1.0000 0.22500  0.17350  0.80910  Biso   1.000  C
  N8       1.0000 0.27320  0.11090  0.90980  Biso   1.000  N
  C15      1.0000 0.48140  0.40860  0.07710  Biso   1.000  C
  H7       1.0000 0.54910  0.34250  0.07510  Biso   1.000  H
  C16      1.0000 0.27390  0.40920  0.07840  Biso   1.000  C
  H8       1.0000 0.20090  0.34350  0.07380  Biso   1.000  H
  Fe1      1.0000 0.38070  0.00000  0.08200  Biso   1.000  Fe
  N9       1.0000 0.08500  0.00000  0.07870  Biso   1.000  N
  N10      1.0000 0.67800  0.00000  0.08590  Biso   1.000  N
  Fe2      1.0000 0.88070  0.50000  0.08200  Biso   1.000  Fe
  N11      1.0000 0.58500  0.50000  0.07870  Biso   1.000  N
  N12      1.0000 0.17800  0.50000  0.08590  Biso   1.000  N
