data_image0
_cell_length_a       10.8304
_cell_length_b       16.7133
_cell_length_c       28.085
_cell_angle_alpha    90
_cell_angle_beta     94.967
_cell_angle_gamma    90

_symmetry_space_group_name_H-M    "P 1"
_symmetry_int_tables_number       1

loop_
  _symmetry_equiv_pos_as_xyz
  'x, y, z'

loop_
  _atom_site_label
  _atom_site_occupancy
  _atom_site_fract_x
  _atom_site_fract_y
  _atom_site_fract_z
  _atom_site_thermal_displace_type
  _atom_site_B_iso_or_equiv
  _atom_site_type_symbol
  La1      1.0000 0.54031  0.87735  0.53169  Biso   1.000  La
  O1       1.0000 0.58716  0.79637  0.46776  Biso   1.000  O
  O2       1.0000 0.00820  0.60828  0.11331  Biso   1.000  O
  N1       1.0000 0.65300  0.76445  0.43471  Biso   1.000  N
  N2       1.0000 0.95690  0.61871  0.15385  Biso   1.000  N
  C1       1.0000 0.76340  0.79492  0.42650  Biso   1.000  C
  H1       1.0000 0.79630  0.83700  0.44520  Biso   1.000  H
  C2       1.0000 0.82840  0.76497  0.39102  Biso   1.000  C
  H2       1.0000 0.90580  0.78580  0.38590  Biso   1.000  H
  C3       1.0000 0.77830  0.70330  0.36261  Biso   1.000  C
  C4       1.0000 0.66910  0.67270  0.37294  Biso   1.000  C
  H3       1.0000 0.63640  0.62920  0.35550  Biso   1.000  H
  C5       1.0000 0.60440  0.70401  0.40861  Biso   1.000  C
  H4       1.0000 0.52750  0.68310  0.41440  Biso   1.000  H
  C6       1.0000 0.84980  0.67320  0.32166  Biso   1.000  C
  H5       1.0000 0.90720  0.71480  0.31400  Biso   1.000  H
  H6       1.0000 0.89870  0.62740  0.33310  Biso   1.000  H
  C7       1.0000 0.78670  0.65310  0.28325  Biso   1.000  C
  H7       1.0000 0.72540  0.69470  0.27610  Biso   1.000  H
  H8       1.0000 0.74150  0.60500  0.29020  Biso   1.000  H
  C8       1.0000 0.84870  0.63700  0.23690  Biso   1.000  C
  C9       1.0000 0.97090  0.62040  0.23688  Biso   1.000  C
  H9       1.0000 0.01860  0.61310  0.26570  Biso   1.000  H
  C10      1.0000 0.02510  0.61400  0.19429  Biso   1.000  C
  H10      1.0000 0.11020  0.60640  0.19450  Biso   1.000  H
  C11      1.0000 0.83770  0.62890  0.15370  Biso   1.000  C
  H11      1.0000 0.78900  0.62990  0.12480  Biso   1.000  H
  C12      1.0000 0.78420  0.63790  0.19474  Biso   1.000  C
  H12      1.0000 0.69880  0.64500  0.19350  Biso   1.000  H
  O3       1.0000 0.72311  0.80771  0.57051  Biso   1.000  O
  O4       1.0000 0.00609  0.52713  0.95580  Biso   1.000  O
  N3       1.0000 0.74800  0.77095  0.61233  Biso   1.000  N
  N4       1.0000 0.99226  0.56032  0.91200  Biso   1.000  N
  C13      1.0000 0.83700  0.79480  0.64140  Biso   1.000  C
  H13      1.0000 0.88140  0.84000  0.63380  Biso   1.000  H
  C14      1.0000 0.86930  0.75610  0.68338  Biso   1.000  C
  H14      1.0000 0.93500  0.77600  0.70350  Biso   1.000  H
  C15      1.0000 0.80930  0.68956  0.69698  Biso   1.000  C
  C16      1.0000 0.71710  0.66860  0.66607  Biso   1.000  C
  H15      1.0000 0.66970  0.62450  0.67330  Biso   1.000  H
  C17      1.0000 0.68640  0.70780  0.62371  Biso   1.000  C
  H16      1.0000 0.62110  0.68910  0.60300  Biso   1.000  H
  C18      1.0000 0.84060  0.64350  0.74367  Biso   1.000  C
  H17      1.0000 0.76960  0.64680  0.76240  Biso   1.000  H
  H18      1.0000 0.85120  0.58760  0.73570  Biso   1.000  H
  C19      1.0000 0.94870  0.66864  0.77354  Biso   1.000  C
  H19      1.0000 0.94390  0.72600  0.77830  Biso   1.000  H
  H20      1.0000 0.02160  0.65820  0.75670  Biso   1.000  H
  C20      1.0000 0.96540  0.62813  0.82225  Biso   1.000  C
  C21      1.0000 0.07520  0.59523  0.83969  Biso   1.000  C
  H21      1.0000 0.14170  0.59500  0.82080  Biso   1.000  H
  C22      1.0000 0.08950  0.56211  0.88511  Biso   1.000  C
  H22      1.0000 0.16560  0.54130  0.89690  Biso   1.000  H
  C23      1.0000 0.88210  0.58886  0.89501  Biso   1.000  C
  H23      1.0000 0.81450  0.58440  0.91310  Biso   1.000  H
  C24      1.0000 0.86840  0.62471  0.85093  Biso   1.000  C
  H24      1.0000 0.79240  0.64710  0.84020  Biso   1.000  H
  La2      1.0000 0.95969  0.37735  0.96831  Biso   1.000  La
  O5       1.0000 0.91284  0.29637  0.03224  Biso   1.000  O
  O6       1.0000 0.49180  0.10828  0.38669  Biso   1.000  O
  N5       1.0000 0.84700  0.26445  0.06529  Biso   1.000  N
  N6       1.0000 0.54310  0.11871  0.34615  Biso   1.000  N
  C25      1.0000 0.73660  0.29492  0.07350  Biso   1.000  C
  H25      1.0000 0.70370  0.33700  0.05480  Biso   1.000  H
  C26      1.0000 0.67160  0.26497  0.10898  Biso   1.000  C
  H26      1.0000 0.59420  0.28580  0.11410  Biso   1.000  H
  C27      1.0000 0.72170  0.20330  0.13739  Biso   1.000  C
  C28      1.0000 0.83090  0.17270  0.12706  Biso   1.000  C
  H27      1.0000 0.86360  0.12920  0.14450  Biso   1.000  H
  C29      1.0000 0.89560  0.20401  0.09139  Biso   1.000  C
  H28      1.0000 0.97250  0.18310  0.08560  Biso   1.000  H
  C30      1.0000 0.65020  0.17320  0.17834  Biso   1.000  C
  H29      1.0000 0.59280  0.21480  0.18600  Biso   1.000  H
  H30      1.0000 0.60130  0.12740  0.16690  Biso   1.000  H
  C31      1.0000 0.71330  0.15310  0.21675  Biso   1.000  C
  H31      1.0000 0.77460  0.19470  0.22390  Biso   1.000  H
  H32      1.0000 0.75850  0.10500  0.20980  Biso   1.000  H
  C32      1.0000 0.65130  0.13700  0.26310  Biso   1.000  C
  C33      1.0000 0.52910  0.12040  0.26312  Biso   1.000  C
  H33      1.0000 0.48140  0.11310  0.23430  Biso   1.000  H
  C34      1.0000 0.47490  0.11400  0.30571  Biso   1.000  C
  H34      1.0000 0.38980  0.10640  0.30550  Biso   1.000  H
  C35      1.0000 0.66230  0.12890  0.34630  Biso   1.000  C
  H35      1.0000 0.71100  0.12990  0.37520  Biso   1.000  H
  C36      1.0000 0.71580  0.13790  0.30526  Biso   1.000  C
  H36      1.0000 0.80120  0.14500  0.30650  Biso   1.000  H
  O7       1.0000 0.77689  0.30771  0.92949  Biso   1.000  O
  O8       1.0000 0.49391  0.02713  0.54420  Biso   1.000  O
  N7       1.0000 0.75200  0.27095  0.88767  Biso   1.000  N
  N8       1.0000 0.50774  0.06032  0.58800  Biso   1.000  N
  C37      1.0000 0.66300  0.29480  0.85860  Biso   1.000  C
  H37      1.0000 0.61860  0.34000  0.86620  Biso   1.000  H
  C38      1.0000 0.63070  0.25610  0.81662  Biso   1.000  C
  H38      1.0000 0.56500  0.27600  0.79650  Biso   1.000  H
  C39      1.0000 0.69070  0.18956  0.80302  Biso   1.000  C
  C40      1.0000 0.78290  0.16860  0.83393  Biso   1.000  C
  H39      1.0000 0.83030  0.12450  0.82670  Biso   1.000  H
  C41      1.0000 0.81360  0.20780  0.87629  Biso   1.000  C
  H40      1.0000 0.87890  0.18910  0.89700  Biso   1.000  H
  C42      1.0000 0.65940  0.14350  0.75633  Biso   1.000  C
  H41      1.0000 0.73040  0.14680  0.73760  Biso   1.000  H
  H42      1.0000 0.64880  0.08760  0.76430  Biso   1.000  H
  C43      1.0000 0.55130  0.16864  0.72646  Biso   1.000  C
  H43      1.0000 0.55610  0.22600  0.72170  Biso   1.000  H
  H44      1.0000 0.47840  0.15820  0.74330  Biso   1.000  H
  C44      1.0000 0.53460  0.12813  0.67775  Biso   1.000  C
  C45      1.0000 0.42480  0.09523  0.66031  Biso   1.000  C
  H45      1.0000 0.35830  0.09500  0.67920  Biso   1.000  H
  C46      1.0000 0.41050  0.06211  0.61489  Biso   1.000  C
  H46      1.0000 0.33440  0.04130  0.60310  Biso   1.000  H
  C47      1.0000 0.61790  0.08886  0.60499  Biso   1.000  C
  H47      1.0000 0.68550  0.08440  0.58690  Biso   1.000  H
  C48      1.0000 0.63160  0.12471  0.64907  Biso   1.000  C
  H48      1.0000 0.70760  0.14710  0.65980  Biso   1.000  H
  La3      1.0000 0.45969  0.12265  0.46831  Biso   1.000  La
  O9       1.0000 0.41284  0.20363  0.53224  Biso   1.000  O
  O10      1.0000 0.99180  0.39172  0.88669  Biso   1.000  O
  N9       1.0000 0.34700  0.23555  0.56529  Biso   1.000  N
  N10      1.0000 0.04310  0.38129  0.84615  Biso   1.000  N
  C49      1.0000 0.23660  0.20508  0.57350  Biso   1.000  C
  H49      1.0000 0.20370  0.16300  0.55480  Biso   1.000  H
  C50      1.0000 0.17160  0.23503  0.60898  Biso   1.000  C
  H50      1.0000 0.09420  0.21420  0.61410  Biso   1.000  H
  C51      1.0000 0.22170  0.29670  0.63739  Biso   1.000  C
  C52      1.0000 0.33090  0.32730  0.62706  Biso   1.000  C
  H51      1.0000 0.36360  0.37080  0.64450  Biso   1.000  H
  C53      1.0000 0.39560  0.29599  0.59139  Biso   1.000  C
  H52      1.0000 0.47250  0.31690  0.58560  Biso   1.000  H
  C54      1.0000 0.15020  0.32680  0.67834  Biso   1.000  C
  H53      1.0000 0.09280  0.28520  0.68600  Biso   1.000  H
  H54      1.0000 0.10130  0.37260  0.66690  Biso   1.000  H
  C55      1.0000 0.21330  0.34690  0.71675  Biso   1.000  C
  H55      1.0000 0.27460  0.30530  0.72390  Biso   1.000  H
  H56      1.0000 0.25850  0.39500  0.70980  Biso   1.000  H
  C56      1.0000 0.15130  0.36300  0.76310  Biso   1.000  C
  C57      1.0000 0.02910  0.37960  0.76312  Biso   1.000  C
  H57      1.0000 0.98140  0.38690  0.73430  Biso   1.000  H
  C58      1.0000 0.97490  0.38600  0.80571  Biso   1.000  C
  H58      1.0000 0.88980  0.39360  0.80550  Biso   1.000  H
  C59      1.0000 0.16230  0.37110  0.84630  Biso   1.000  C
  H59      1.0000 0.21100  0.37010  0.87520  Biso   1.000  H
  C60      1.0000 0.21580  0.36210  0.80526  Biso   1.000  C
  H60      1.0000 0.30120  0.35500  0.80650  Biso   1.000  H
  O11      1.0000 0.27689  0.19229  0.42949  Biso   1.000  O
  O12      1.0000 0.99391  0.47287  0.04420  Biso   1.000  O
  N11      1.0000 0.25200  0.22905  0.38767  Biso   1.000  N
  N12      1.0000 0.00774  0.43968  0.08800  Biso   1.000  N
  C61      1.0000 0.16300  0.20520  0.35860  Biso   1.000  C
  H61      1.0000 0.11860  0.16000  0.36620  Biso   1.000  H
  C62      1.0000 0.13070  0.24390  0.31662  Biso   1.000  C
  H62      1.0000 0.06500  0.22400  0.29650  Biso   1.000  H
  C63      1.0000 0.19070  0.31044  0.30302  Biso   1.000  C
  C64      1.0000 0.28290  0.33140  0.33393  Biso   1.000  C
  H63      1.0000 0.33030  0.37550  0.32670  Biso   1.000  H
  C65      1.0000 0.31360  0.29220  0.37629  Biso   1.000  C
  H64      1.0000 0.37890  0.31090  0.39700  Biso   1.000  H
  C66      1.0000 0.15940  0.35650  0.25633  Biso   1.000  C
  H65      1.0000 0.23040  0.35320  0.23760  Biso   1.000  H
  H66      1.0000 0.14880  0.41240  0.26430  Biso   1.000  H
  C67      1.0000 0.05130  0.33136  0.22646  Biso   1.000  C
  H67      1.0000 0.05610  0.27400  0.22170  Biso   1.000  H
  H68      1.0000 0.97840  0.34180  0.24330  Biso   1.000  H
  C68      1.0000 0.03460  0.37187  0.17775  Biso   1.000  C
  C69      1.0000 0.92480  0.40477  0.16031  Biso   1.000  C
  H69      1.0000 0.85830  0.40500  0.17920  Biso   1.000  H
  C70      1.0000 0.91050  0.43789  0.11489  Biso   1.000  C
  H70      1.0000 0.83440  0.45870  0.10310  Biso   1.000  H
  C71      1.0000 0.11790  0.41114  0.10499  Biso   1.000  C
  H71      1.0000 0.18550  0.41560  0.08690  Biso   1.000  H
  C72      1.0000 0.13160  0.37529  0.14907  Biso   1.000  C
  H72      1.0000 0.20760  0.35290  0.15980  Biso   1.000  H
  La4      1.0000 0.04031  0.62265  0.03169  Biso   1.000  La
  O13      1.0000 0.08716  0.70363  0.96776  Biso   1.000  O
  O14      1.0000 0.50820  0.89172  0.61331  Biso   1.000  O
  N13      1.0000 0.15300  0.73555  0.93471  Biso   1.000  N
  N14      1.0000 0.45690  0.88129  0.65385  Biso   1.000  N
  C73      1.0000 0.26340  0.70508  0.92650  Biso   1.000  C
  H73      1.0000 0.29630  0.66300  0.94520  Biso   1.000  H
  C74      1.0000 0.32840  0.73503  0.89102  Biso   1.000  C
  H74      1.0000 0.40580  0.71420  0.88590  Biso   1.000  H
  C75      1.0000 0.27830  0.79670  0.86261  Biso   1.000  C
  C76      1.0000 0.16910  0.82730  0.87294  Biso   1.000  C
  H75      1.0000 0.13640  0.87080  0.85550  Biso   1.000  H
  C77      1.0000 0.10440  0.79599  0.90861  Biso   1.000  C
  H76      1.0000 0.02750  0.81690  0.91440  Biso   1.000  H
  C78      1.0000 0.34980  0.82680  0.82166  Biso   1.000  C
  H77      1.0000 0.40720  0.78520  0.81400  Biso   1.000  H
  H78      1.0000 0.39870  0.87260  0.83310  Biso   1.000  H
  C79      1.0000 0.28670  0.84690  0.78325  Biso   1.000  C
  H79      1.0000 0.22540  0.80530  0.77610  Biso   1.000  H
  H80      1.0000 0.24150  0.89500  0.79020  Biso   1.000  H
  C80      1.0000 0.34870  0.86300  0.73690  Biso   1.000  C
  C81      1.0000 0.47090  0.87960  0.73688  Biso   1.000  C
  H81      1.0000 0.51860  0.88690  0.76570  Biso   1.000  H
  C82      1.0000 0.52510  0.88600  0.69429  Biso   1.000  C
  H82      1.0000 0.61020  0.89360  0.69450  Biso   1.000  H
  C83      1.0000 0.33770  0.87110  0.65370  Biso   1.000  C
  H83      1.0000 0.28900  0.87010  0.62480  Biso   1.000  H
  C84      1.0000 0.28420  0.86210  0.69474  Biso   1.000  C
  H84      1.0000 0.19880  0.85500  0.69350  Biso   1.000  H
  O15      1.0000 0.22311  0.69229  0.07051  Biso   1.000  O
  O16      1.0000 0.50609  0.97287  0.45580  Biso   1.000  O
  N15      1.0000 0.24800  0.72905  0.11233  Biso   1.000  N
  N16      1.0000 0.49226  0.93968  0.41200  Biso   1.000  N
  C85      1.0000 0.33700  0.70520  0.14140  Biso   1.000  C
  H85      1.0000 0.38140  0.66000  0.13380  Biso   1.000  H
  C86      1.0000 0.36930  0.74390  0.18338  Biso   1.000  C
  H86      1.0000 0.43500  0.72400  0.20350  Biso   1.000  H
  C87      1.0000 0.30930  0.81044  0.19698  Biso   1.000  C
  C88      1.0000 0.21710  0.83140  0.16607  Biso   1.000  C
  H87      1.0000 0.16970  0.87550  0.17330  Biso   1.000  H
  C89      1.0000 0.18640  0.79220  0.12371  Biso   1.000  C
  H88      1.0000 0.12110  0.81090  0.10300  Biso   1.000  H
  C90      1.0000 0.34060  0.85650  0.24367  Biso   1.000  C
  H89      1.0000 0.26960  0.85320  0.26240  Biso   1.000  H
  H90      1.0000 0.35120  0.91240  0.23570  Biso   1.000  H
  C91      1.0000 0.44870  0.83136  0.27354  Biso   1.000  C
  H91      1.0000 0.44390  0.77400  0.27830  Biso   1.000  H
  H92      1.0000 0.52160  0.84180  0.25670  Biso   1.000  H
  C92      1.0000 0.46540  0.87187  0.32225  Biso   1.000  C
  C93      1.0000 0.57520  0.90477  0.33969  Biso   1.000  C
  H93      1.0000 0.64170  0.90500  0.32080  Biso   1.000  H
  C94      1.0000 0.58950  0.93789  0.38511  Biso   1.000  C
  H94      1.0000 0.66560  0.95870  0.39690  Biso   1.000  H
  C95      1.0000 0.38210  0.91114  0.39501  Biso   1.000  C
  H95      1.0000 0.31450  0.91560  0.41310  Biso   1.000  H
  C96      1.0000 0.36840  0.87529  0.35093  Biso   1.000  C
  H96      1.0000 0.29240  0.85290  0.34020  Biso   1.000  H
