data_AXINAX01_clean
_audit_creation_date              2014-07-02
_audit_creation_method            'Materials Studio'
_symmetry_space_group_name_H-M    'P1'
_symmetry_Int_Tables_number       1
_symmetry_cell_setting            triclinic
loop_
_symmetry_equiv_pos_as_xyz
  x,y,z
_cell_length_a                    28.9352
_cell_length_b                    28.9352
_cell_length_c                    33.1840
_cell_angle_alpha                 86.1511
_cell_angle_beta                  86.1511
_cell_angle_gamma                 76.6937
loop_
_atom_site_label
_atom_site_type_symbol
_atom_site_fract_x
_atom_site_fract_y
_atom_site_fract_z
_atom_site_U_iso_or_equiv
_atom_site_adp_type
_atom_site_occupancy
Co1    Co    0.24041   0.17396   0.85564   0.01267  Uiso   1.00
Co2    Co    0.72810   0.79397   0.40745   0.01267  Uiso   1.00
Co3    Co    0.24496   0.05420   0.86908   0.01267  Uiso   1.00
Co4    Co    0.25832   0.71163   0.14661   0.01267  Uiso   1.00
Co5    Co    0.69674   0.68879   0.39317   0.01267  Uiso   1.00
Co6    Co    0.82604   0.75959   0.64436   0.01267  Uiso   1.00
Co7    Co    0.20603   0.27190   0.09255   0.01267  Uiso   1.00
Co8    Co    0.94580   0.75504   0.63092   0.01267  Uiso   1.00
Co9    Co    0.28837   0.74168   0.35339   0.01267  Uiso   1.00
Co10   Co    0.31121   0.30326   0.10683   0.01267  Uiso   1.00
Co11   Co    0.75959   0.82604   0.14436   0.01267  Uiso   1.00
Co12   Co    0.27190   0.20603   0.59255   0.01267  Uiso   1.00
Co13   Co    0.75504   0.94580   0.13092   0.01267  Uiso   1.00
Co14   Co    0.74168   0.28837   0.85339   0.01267  Uiso   1.00
Co15   Co    0.30326   0.31121   0.60683   0.01267  Uiso   1.00
Co16   Co    0.17396   0.24041   0.35564   0.01267  Uiso   1.00
Co17   Co    0.79397   0.72810   0.90745   0.01267  Uiso   1.00
Co18   Co    0.05420   0.24496   0.36908   0.01267  Uiso   1.00
Co19   Co    0.71163   0.25832   0.64661   0.01267  Uiso   1.00
Co20   Co    0.68879   0.69674   0.89317   0.01267  Uiso   1.00
Co21   Co    0.26941   0.73059   0.25000   0.01267  Uiso   1.00
Co22   Co    0.73059   0.26941   0.75000   0.01267  Uiso   1.00
H1     H     0.20210   0.85690   0.11650   0.01267  Uiso   1.00
H2     H     0.25330   0.88030   0.22210   0.01267  Uiso   1.00
H3     H     0.23590   0.96230   0.20420   0.01267  Uiso   1.00
H4     H     0.18490   0.93770   0.10010   0.01267  Uiso   1.00
H5     H     0.21130   0.00590   0.07940   0.01267  Uiso   1.00
H6     H     0.16730   0.13970   0.11490   0.01267  Uiso   1.00
H7     H     0.17690   0.03090   0.19730   0.01267  Uiso   1.00
H8     H     0.18750   0.17310   0.17180   0.01267  Uiso   1.00
H9     H     0.11000   0.08760   0.22570   0.01267  Uiso   1.00
H10    H     0.16950   0.22210   0.22500   0.01267  Uiso   1.00
H11    H     0.09230   0.13490   0.28010   0.01267  Uiso   1.00
H12    H     0.17880   0.04280   0.02220   0.01267  Uiso   1.00
H13    H     0.19030   0.06870   0.95480   0.01267  Uiso   1.00
H14    H     0.21820   0.15320   0.06190   0.01267  Uiso   1.00
H15    H     0.22920   0.18140   0.99490   0.01267  Uiso   1.00
H16    H     0.10470   0.69830   0.19350   0.01267  Uiso   1.00
H17    H     0.05150   0.66830   0.23880   0.01267  Uiso   1.00
H18    H     0.21070   0.64430   0.26620   0.01267  Uiso   1.00
H19    H     0.15890   0.60730   0.30810   0.01267  Uiso   1.00
H20    H     0.11350   0.54470   0.30590   0.01267  Uiso   1.00
H21    H     0.01300   0.66600   0.30790   0.01267  Uiso   1.00
H22    H     0.13350   0.47730   0.35200   0.01267  Uiso   1.00
H23    H     0.00070   0.47170   0.33310   0.01267  Uiso   1.00
H24    H     0.15450   0.39570   0.36050   0.01267  Uiso   1.00
H25    H     0.02150   0.38970   0.34110   0.01267  Uiso   1.00
H26    H     0.98650   0.54510   0.36220   0.01267  Uiso   1.00
H27    H     0.91110   0.57870   0.34830   0.01267  Uiso   1.00
H28    H     0.95450   0.70030   0.35430   0.01267  Uiso   1.00
H29    H     0.87910   0.73830   0.37270   0.01267  Uiso   1.00
H30    H     0.83530   0.61790   0.36830   0.01267  Uiso   1.00
H31    H     0.39500   0.75160   0.11610   0.01267  Uiso   1.00
H32    H     0.47250   0.76010   0.10940   0.01267  Uiso   1.00
H33    H     0.49380   0.71080   0.22470   0.01267  Uiso   1.00
H34    H     0.55580   0.72980   0.10350   0.01267  Uiso   1.00
H35    H     0.61120   0.68860   0.06430   0.01267  Uiso   1.00
H36    H     0.69250   0.77190   0.09670   0.01267  Uiso   1.00
H37    H     0.73770   0.75750   0.03630   0.01267  Uiso   1.00
H38    H     0.65260   0.67780   0.00140   0.01267  Uiso   1.00
H39    H     0.54120   0.76260   0.21940   0.01267  Uiso   1.00
H40    H     0.66690   0.75210   0.15740   0.01267  Uiso   1.00
H41    H     0.67070   0.81130   0.20780   0.01267  Uiso   1.00
H42    H     0.70250   0.82310   0.26630   0.01267  Uiso   1.00
H43    H     0.62780   0.74120   0.32840   0.01267  Uiso   1.00
H44    H     0.59400   0.72880   0.27140   0.01267  Uiso   1.00
H45    H     0.41550   0.70390   0.23220   0.01267  Uiso   1.00
H46    H     0.14310   0.79790   0.38350   0.01267  Uiso   1.00
H47    H     0.11970   0.74670   0.27790   0.01267  Uiso   1.00
H48    H     0.03770   0.76410   0.29580   0.01267  Uiso   1.00
H49    H     0.06230   0.81510   0.39990   0.01267  Uiso   1.00
H50    H     0.99410   0.78870   0.42060   0.01267  Uiso   1.00
H51    H     0.86030   0.83270   0.38510   0.01267  Uiso   1.00
H52    H     0.96910   0.82310   0.30270   0.01267  Uiso   1.00
H53    H     0.82690   0.81250   0.32820   0.01267  Uiso   1.00
H54    H     0.91240   0.89000   0.27430   0.01267  Uiso   1.00
H55    H     0.77790   0.83050   0.27500   0.01267  Uiso   1.00
H56    H     0.86510   0.90770   0.21990   0.01267  Uiso   1.00
H57    H     0.95720   0.82120   0.47780   0.01267  Uiso   1.00
H58    H     0.93130   0.80970   0.54520   0.01267  Uiso   1.00
H59    H     0.84680   0.78180   0.43810   0.01267  Uiso   1.00
H60    H     0.81860   0.77080   0.50510   0.01267  Uiso   1.00
H61    H     0.30170   0.89530   0.30650   0.01267  Uiso   1.00
H62    H     0.33170   0.94850   0.26120   0.01267  Uiso   1.00
H63    H     0.35570   0.78930   0.23380   0.01267  Uiso   1.00
H64    H     0.39270   0.84110   0.19190   0.01267  Uiso   1.00
H65    H     0.45530   0.88650   0.19410   0.01267  Uiso   1.00
H66    H     0.33400   0.98700   0.19210   0.01267  Uiso   1.00
H67    H     0.52270   0.86650   0.14800   0.01267  Uiso   1.00
H68    H     0.52830   0.99930   0.16690   0.01267  Uiso   1.00
H69    H     0.60430   0.84550   0.13950   0.01267  Uiso   1.00
H70    H     0.61030   0.97850   0.15890   0.01267  Uiso   1.00
H71    H     0.45490   0.01350   0.13780   0.01267  Uiso   1.00
H72    H     0.42130   0.08890   0.15170   0.01267  Uiso   1.00
H73    H     0.29970   0.04550   0.14570   0.01267  Uiso   1.00
H74    H     0.26170   0.12090   0.12730   0.01267  Uiso   1.00
H75    H     0.38210   0.16470   0.13170   0.01267  Uiso   1.00
H76    H     0.24840   0.60500   0.38390   0.01267  Uiso   1.00
H77    H     0.23990   0.52750   0.39060   0.01267  Uiso   1.00
H78    H     0.28920   0.50620   0.27530   0.01267  Uiso   1.00
H79    H     0.27020   0.44420   0.39650   0.01267  Uiso   1.00
H80    H     0.31140   0.38880   0.43570   0.01267  Uiso   1.00
H81    H     0.22810   0.30750   0.40330   0.01267  Uiso   1.00
H82    H     0.24250   0.26230   0.46370   0.01267  Uiso   1.00
H83    H     0.32220   0.34740   0.49860   0.01267  Uiso   1.00
H84    H     0.23740   0.45880   0.28060   0.01267  Uiso   1.00
H85    H     0.24790   0.33310   0.34260   0.01267  Uiso   1.00
H86    H     0.18870   0.32930   0.29220   0.01267  Uiso   1.00
H87    H     0.17690   0.29750   0.23370   0.01267  Uiso   1.00
H88    H     0.25880   0.37220   0.17160   0.01267  Uiso   1.00
H89    H     0.27120   0.40600   0.22860   0.01267  Uiso   1.00
H90    H     0.29610   0.58450   0.26780   0.01267  Uiso   1.00
H91    H     0.79790   0.14310   0.88350   0.01267  Uiso   1.00
H92    H     0.74670   0.11970   0.77790   0.01267  Uiso   1.00
H93    H     0.76410   0.03770   0.79580   0.01267  Uiso   1.00
H94    H     0.81510   0.06230   0.89990   0.01267  Uiso   1.00
H95    H     0.78870   0.99410   0.92060   0.01267  Uiso   1.00
H96    H     0.83270   0.86030   0.88510   0.01267  Uiso   1.00
H97    H     0.82310   0.96910   0.80270   0.01267  Uiso   1.00
H98    H     0.81250   0.82690   0.82820   0.01267  Uiso   1.00
H99    H     0.89000   0.91240   0.77430   0.01267  Uiso   1.00
H100   H     0.83050   0.77790   0.77500   0.01267  Uiso   1.00
H101   H     0.90770   0.86510   0.71990   0.01267  Uiso   1.00
H102   H     0.82120   0.95720   0.97780   0.01267  Uiso   1.00
H103   H     0.80970   0.93130   0.04520   0.01267  Uiso   1.00
H104   H     0.78180   0.84680   0.93810   0.01267  Uiso   1.00
H105   H     0.77080   0.81860   0.00510   0.01267  Uiso   1.00
H106   H     0.89530   0.30170   0.80650   0.01267  Uiso   1.00
H107   H     0.94850   0.33170   0.76120   0.01267  Uiso   1.00
H108   H     0.78930   0.35570   0.73380   0.01267  Uiso   1.00
H109   H     0.84110   0.39270   0.69190   0.01267  Uiso   1.00
H110   H     0.88650   0.45530   0.69410   0.01267  Uiso   1.00
H111   H     0.98700   0.33400   0.69210   0.01267  Uiso   1.00
H112   H     0.86650   0.52270   0.64800   0.01267  Uiso   1.00
H113   H     0.99930   0.52830   0.66690   0.01267  Uiso   1.00
H114   H     0.84550   0.60430   0.63950   0.01267  Uiso   1.00
H115   H     0.97850   0.61030   0.65890   0.01267  Uiso   1.00
H116   H     0.01350   0.45490   0.63780   0.01267  Uiso   1.00
H117   H     0.08890   0.42130   0.65170   0.01267  Uiso   1.00
H118   H     0.04550   0.29970   0.64570   0.01267  Uiso   1.00
H119   H     0.12090   0.26170   0.62730   0.01267  Uiso   1.00
H120   H     0.16470   0.38210   0.63170   0.01267  Uiso   1.00
H121   H     0.60500   0.24840   0.88390   0.01267  Uiso   1.00
H122   H     0.52750   0.23990   0.89060   0.01267  Uiso   1.00
H123   H     0.50620   0.28920   0.77530   0.01267  Uiso   1.00
H124   H     0.44420   0.27020   0.89650   0.01267  Uiso   1.00
H125   H     0.38880   0.31140   0.93570   0.01267  Uiso   1.00
H126   H     0.30750   0.22810   0.90330   0.01267  Uiso   1.00
H127   H     0.26230   0.24250   0.96370   0.01267  Uiso   1.00
H128   H     0.34740   0.32220   0.99860   0.01267  Uiso   1.00
H129   H     0.45880   0.23740   0.78060   0.01267  Uiso   1.00
H130   H     0.33310   0.24790   0.84260   0.01267  Uiso   1.00
H131   H     0.32930   0.18870   0.79220   0.01267  Uiso   1.00
H132   H     0.29750   0.17690   0.73370   0.01267  Uiso   1.00
H133   H     0.37220   0.25880   0.67160   0.01267  Uiso   1.00
H134   H     0.40600   0.27120   0.72860   0.01267  Uiso   1.00
H135   H     0.58450   0.29610   0.76780   0.01267  Uiso   1.00
H136   H     0.85690   0.20210   0.61650   0.01267  Uiso   1.00
H137   H     0.88030   0.25330   0.72210   0.01267  Uiso   1.00
H138   H     0.96230   0.23590   0.70420   0.01267  Uiso   1.00
H139   H     0.93770   0.18490   0.60010   0.01267  Uiso   1.00
H140   H     0.00590   0.21130   0.57940   0.01267  Uiso   1.00
H141   H     0.13970   0.16730   0.61490   0.01267  Uiso   1.00
H142   H     0.03090   0.17690   0.69730   0.01267  Uiso   1.00
H143   H     0.17310   0.18750   0.67180   0.01267  Uiso   1.00
H144   H     0.08760   0.11000   0.72570   0.01267  Uiso   1.00
H145   H     0.22210   0.16950   0.72500   0.01267  Uiso   1.00
H146   H     0.13490   0.09230   0.78010   0.01267  Uiso   1.00
H147   H     0.04280   0.17880   0.52220   0.01267  Uiso   1.00
H148   H     0.06870   0.19030   0.45480   0.01267  Uiso   1.00
H149   H     0.15320   0.21820   0.56190   0.01267  Uiso   1.00
H150   H     0.18140   0.22920   0.49490   0.01267  Uiso   1.00
H151   H     0.69830   0.10470   0.69350   0.01267  Uiso   1.00
H152   H     0.66830   0.05150   0.73880   0.01267  Uiso   1.00
H153   H     0.64430   0.21070   0.76620   0.01267  Uiso   1.00
H154   H     0.60730   0.15890   0.80810   0.01267  Uiso   1.00
H155   H     0.54470   0.11350   0.80590   0.01267  Uiso   1.00
H156   H     0.66600   0.01300   0.80790   0.01267  Uiso   1.00
H157   H     0.47730   0.13350   0.85200   0.01267  Uiso   1.00
H158   H     0.47170   0.00070   0.83310   0.01267  Uiso   1.00
H159   H     0.39570   0.15450   0.86050   0.01267  Uiso   1.00
H160   H     0.38970   0.02150   0.84110   0.01267  Uiso   1.00
H161   H     0.54510   0.98650   0.86220   0.01267  Uiso   1.00
H162   H     0.57870   0.91110   0.84830   0.01267  Uiso   1.00
H163   H     0.70030   0.95450   0.85430   0.01267  Uiso   1.00
H164   H     0.73830   0.87910   0.87270   0.01267  Uiso   1.00
H165   H     0.61790   0.83530   0.86830   0.01267  Uiso   1.00
H166   H     0.75160   0.39500   0.61610   0.01267  Uiso   1.00
H167   H     0.76010   0.47250   0.60940   0.01267  Uiso   1.00
H168   H     0.71080   0.49380   0.72470   0.01267  Uiso   1.00
H169   H     0.72980   0.55580   0.60350   0.01267  Uiso   1.00
H170   H     0.68860   0.61120   0.56430   0.01267  Uiso   1.00
H171   H     0.77190   0.69250   0.59670   0.01267  Uiso   1.00
H172   H     0.75750   0.73770   0.53630   0.01267  Uiso   1.00
H173   H     0.67780   0.65260   0.50140   0.01267  Uiso   1.00
H174   H     0.76260   0.54120   0.71940   0.01267  Uiso   1.00
H175   H     0.75210   0.66690   0.65740   0.01267  Uiso   1.00
H176   H     0.81130   0.67070   0.70780   0.01267  Uiso   1.00
H177   H     0.82310   0.70250   0.76630   0.01267  Uiso   1.00
H178   H     0.74120   0.62780   0.82840   0.01267  Uiso   1.00
H179   H     0.72880   0.59400   0.77140   0.01267  Uiso   1.00
H180   H     0.70390   0.41550   0.73220   0.01267  Uiso   1.00
C1     C     0.23889   0.80823   0.18217   0.01267  Uiso   1.00
C2     C     0.70104   0.71692   0.01449   0.01267  Uiso   1.00
C3     C     0.20847   0.87801   0.13427   0.01267  Uiso   1.00
C4     C     0.72671   0.70907   0.97175   0.01267  Uiso   1.00
C5     C     0.22835   0.86109   0.17153   0.01267  Uiso   1.00
C6     C     0.23942   0.89188   0.19786   0.01267  Uiso   1.00
C7     C     0.22900   0.94120   0.18682   0.01267  Uiso   1.00
C8     C     0.19854   0.92604   0.12444   0.01267  Uiso   1.00
C9     C     0.20911   0.95833   0.15139   0.01267  Uiso   1.00
C10    C     0.19625   0.01033   0.14067   0.01267  Uiso   1.00
C11    C     0.20116   0.02710   0.09969   0.01267  Uiso   1.00
C12    C     0.19023   0.07701   0.09031   0.01267  Uiso   1.00
C13    C     0.17458   0.10708   0.12100   0.01267  Uiso   1.00
C14    C     0.16927   0.09023   0.16166   0.01267  Uiso   1.00
C15    C     0.18021   0.04229   0.17062   0.01267  Uiso   1.00
C16    C     0.15363   0.12469   0.19408   0.01267  Uiso   1.00
C17    C     0.16886   0.16496   0.19387   0.01267  Uiso   1.00
C18    C     0.12283   0.11419   0.22622   0.01267  Uiso   1.00
C19    C     0.15772   0.19470   0.22557   0.01267  Uiso   1.00
C20    C     0.11160   0.14300   0.25849   0.01267  Uiso   1.00
C21    C     0.12837   0.18343   0.25907   0.01267  Uiso   1.00
C22    C     0.11993   0.21313   0.29453   0.01267  Uiso   1.00
C23    C     0.19770   0.09512   0.04883   0.01267  Uiso   1.00
C24    C     0.18942   0.07068   0.01661   0.01267  Uiso   1.00
C25    C     0.19624   0.08566   0.97593   0.01267  Uiso   1.00
C26    C     0.21258   0.13604   0.04078   0.01267  Uiso   1.00
C27    C     0.21279   0.12857   0.96887   0.01267  Uiso   1.00
C28    C     0.21964   0.15292   0.99999   0.01267  Uiso   1.00
C29    C     0.22279   0.14425   0.92561   0.01267  Uiso   1.00
C30    C     0.19790   0.69112   0.19730   0.01267  Uiso   1.00
C31    C     0.16256   0.67426   0.22646   0.01267  Uiso   1.00
C32    C     0.11532   0.68118   0.21711   0.01267  Uiso   1.00
C33    C     0.08372   0.66198   0.24362   0.01267  Uiso   1.00
C34    C     0.17914   0.64804   0.25998   0.01267  Uiso   1.00
C35    C     0.14764   0.62636   0.28557   0.01267  Uiso   1.00
C36    C     0.10107   0.63339   0.27714   0.01267  Uiso   1.00
C37    C     0.06734   0.60902   0.30268   0.01267  Uiso   1.00
C38    C     0.08263   0.56065   0.31317   0.01267  Uiso   1.00
C39    C     0.05110   0.53602   0.33486   0.01267  Uiso   1.00
C40    C     0.02248   0.63354   0.31447   0.01267  Uiso   1.00
C41    C     0.11061   0.45981   0.34990   0.01267  Uiso   1.00
C42    C     0.03173   0.45627   0.33858   0.01267  Uiso   1.00
C43    C     0.06612   0.48280   0.34205   0.01267  Uiso   1.00
C44    C     0.12338   0.41070   0.35492   0.01267  Uiso   1.00
C45    C     0.04417   0.40733   0.34339   0.01267  Uiso   1.00
C46    C     0.99067   0.60945   0.33671   0.01267  Uiso   1.00
C47    C     0.00679   0.56097   0.34678   0.01267  Uiso   1.00
C48    C     0.94269   0.63507   0.34939   0.01267  Uiso   1.00
C49    C     0.90509   0.61069   0.35363   0.01267  Uiso   1.00
C50    C     0.93082   0.68316   0.35702   0.01267  Uiso   1.00
C51    C     0.88562   0.70592   0.36840   0.01267  Uiso   1.00
C52    C     0.84914   0.68176   0.37378   0.01267  Uiso   1.00
C53    C     0.85946   0.63440   0.36568   0.01267  Uiso   1.00
C54    C     0.79929   0.70659   0.38632   0.01267  Uiso   1.00
C55    C     0.39791   0.72361   0.17404   0.01267  Uiso   1.00
C56    C     0.34748   0.71736   0.17910   0.01267  Uiso   1.00
C57    C     0.41464   0.74292   0.13769   0.01267  Uiso   1.00
C58    C     0.46109   0.74897   0.13415   0.01267  Uiso   1.00
C59    C     0.47378   0.71960   0.20332   0.01267  Uiso   1.00
C60    C     0.49059   0.73923   0.16566   0.01267  Uiso   1.00
C61    C     0.54058   0.74442   0.16284   0.01267  Uiso   1.00
C62    C     0.56880   0.73694   0.12652   0.01267  Uiso   1.00
C63    C     0.61570   0.74032   0.12509   0.01267  Uiso   1.00
C64    C     0.64634   0.73134   0.08646   0.01267  Uiso   1.00
C65    C     0.63632   0.70340   0.05826   0.01267  Uiso   1.00
C66    C     0.68474   0.75248   0.07825   0.01267  Uiso   1.00
C67    C     0.71158   0.74386   0.04167   0.01267  Uiso   1.00
C68    C     0.66130   0.69554   0.02072   0.01267  Uiso   1.00
C69    C     0.56021   0.75611   0.19582   0.01267  Uiso   1.00
C70    C     0.63508   0.75054   0.15885   0.01267  Uiso   1.00
C71    C     0.60849   0.75873   0.19558   0.01267  Uiso   1.00
C72    C     0.62818   0.76906   0.23231   0.01267  Uiso   1.00
C73    C     0.66154   0.79706   0.23207   0.01267  Uiso   1.00
C74    C     0.68087   0.80379   0.26702   0.01267  Uiso   1.00
C75    C     0.66897   0.78237   0.30342   0.01267  Uiso   1.00
C76    C     0.63644   0.75524   0.30387   0.01267  Uiso   1.00
C77    C     0.61594   0.74780   0.26992   0.01267  Uiso   1.00
C78    C     0.42743   0.71403   0.20726   0.01267  Uiso   1.00
C79    C     0.10400   0.33044   0.35541   0.01267  Uiso   1.00
C80    C     0.09084   0.38428   0.35169   0.01267  Uiso   1.00
C81    C     0.69256   0.78734   0.34013   0.01267  Uiso   1.00
C82    C     0.19177   0.76111   0.31783   0.01267  Uiso   1.00
C83    C     0.28308   0.29896   0.48551   0.01267  Uiso   1.00
C84    C     0.12199   0.79153   0.36573   0.01267  Uiso   1.00
C85    C     0.29093   0.27329   0.52825   0.01267  Uiso   1.00
C86    C     0.13891   0.77165   0.32847   0.01267  Uiso   1.00
C87    C     0.10812   0.76058   0.30214   0.01267  Uiso   1.00
C88    C     0.05880   0.77100   0.31318   0.01267  Uiso   1.00
C89    C     0.07396   0.80146   0.37556   0.01267  Uiso   1.00
C90    C     0.04167   0.79089   0.34861   0.01267  Uiso   1.00
C91    C     0.98967   0.80375   0.35933   0.01267  Uiso   1.00
C92    C     0.97290   0.79884   0.40031   0.01267  Uiso   1.00
C93    C     0.92299   0.80977   0.40969   0.01267  Uiso   1.00
C94    C     0.89292   0.82542   0.37900   0.01267  Uiso   1.00
C95    C     0.90977   0.83073   0.33834   0.01267  Uiso   1.00
C96    C     0.95771   0.81979   0.32938   0.01267  Uiso   1.00
C97    C     0.87531   0.84637   0.30592   0.01267  Uiso   1.00
C98    C     0.83504   0.83114   0.30613   0.01267  Uiso   1.00
C99    C     0.88581   0.87717   0.27378   0.01267  Uiso   1.00
C100   C     0.80530   0.84228   0.27443   0.01267  Uiso   1.00
C101   C     0.85700   0.88840   0.24151   0.01267  Uiso   1.00
C102   C     0.81657   0.87163   0.24093   0.01267  Uiso   1.00
C103   C     0.78687   0.88007   0.20547   0.01267  Uiso   1.00
C104   C     0.90488   0.80230   0.45117   0.01267  Uiso   1.00
C105   C     0.92932   0.81058   0.48339   0.01267  Uiso   1.00
C106   C     0.91434   0.80376   0.52407   0.01267  Uiso   1.00
C107   C     0.86396   0.78742   0.45922   0.01267  Uiso   1.00
C108   C     0.87143   0.78721   0.53113   0.01267  Uiso   1.00
C109   C     0.84708   0.78036   0.50001   0.01267  Uiso   1.00
C110   C     0.85575   0.77721   0.57439   0.01267  Uiso   1.00
C111   C     0.30888   0.80210   0.30270   0.01267  Uiso   1.00
C112   C     0.32574   0.83744   0.27354   0.01267  Uiso   1.00
C113   C     0.31882   0.88468   0.28289   0.01267  Uiso   1.00
C114   C     0.33802   0.91628   0.25638   0.01267  Uiso   1.00
C115   C     0.35196   0.82086   0.24002   0.01267  Uiso   1.00
C116   C     0.37364   0.85236   0.21443   0.01267  Uiso   1.00
C117   C     0.36661   0.89893   0.22286   0.01267  Uiso   1.00
C118   C     0.39098   0.93266   0.19732   0.01267  Uiso   1.00
C119   C     0.43935   0.91737   0.18683   0.01267  Uiso   1.00
C120   C     0.46398   0.94890   0.16514   0.01267  Uiso   1.00
C121   C     0.36646   0.97752   0.18553   0.01267  Uiso   1.00
C122   C     0.54019   0.88939   0.15010   0.01267  Uiso   1.00
C123   C     0.54373   0.96827   0.16142   0.01267  Uiso   1.00
C124   C     0.51720   0.93388   0.15795   0.01267  Uiso   1.00
C125   C     0.58930   0.87662   0.14508   0.01267  Uiso   1.00
C126   C     0.59267   0.95583   0.15661   0.01267  Uiso   1.00
C127   C     0.39055   0.00933   0.16329   0.01267  Uiso   1.00
C128   C     0.43903   0.99321   0.15322   0.01267  Uiso   1.00
C129   C     0.36493   0.05731   0.15061   0.01267  Uiso   1.00
C130   C     0.38931   0.09491   0.14637   0.01267  Uiso   1.00
C131   C     0.31684   0.06918   0.14298   0.01267  Uiso   1.00
C132   C     0.29408   0.11438   0.13160   0.01267  Uiso   1.00
C133   C     0.31824   0.15086   0.12622   0.01267  Uiso   1.00
C134   C     0.36560   0.14054   0.13432   0.01267  Uiso   1.00
C135   C     0.29341   0.20071   0.11368   0.01267  Uiso   1.00
C136   C     0.27639   0.60209   0.32596   0.01267  Uiso   1.00
C137   C     0.28264   0.65252   0.32090   0.01267  Uiso   1.00
C138   C     0.25708   0.58536   0.36231   0.01267  Uiso   1.00
C139   C     0.25103   0.53891   0.36585   0.01267  Uiso   1.00
C140   C     0.28040   0.52622   0.29668   0.01267  Uiso   1.00
C141   C     0.26077   0.50941   0.33434   0.01267  Uiso   1.00
C142   C     0.25558   0.45942   0.33716   0.01267  Uiso   1.00
C143   C     0.26306   0.43120   0.37348   0.01267  Uiso   1.00
C144   C     0.25968   0.38430   0.37491   0.01267  Uiso   1.00
C145   C     0.26866   0.35366   0.41354   0.01267  Uiso   1.00
C146   C     0.29660   0.36368   0.44174   0.01267  Uiso   1.00
C147   C     0.24752   0.31526   0.42175   0.01267  Uiso   1.00
C148   C     0.25614   0.28842   0.45833   0.01267  Uiso   1.00
C149   C     0.30446   0.33870   0.47928   0.01267  Uiso   1.00
C150   C     0.24389   0.43979   0.30418   0.01267  Uiso   1.00
C151   C     0.24946   0.36492   0.34115   0.01267  Uiso   1.00
C152   C     0.24127   0.39151   0.30442   0.01267  Uiso   1.00
C153   C     0.23094   0.37182   0.26769   0.01267  Uiso   1.00
C154   C     0.20294   0.33846   0.26793   0.01267  Uiso   1.00
C155   C     0.19621   0.31913   0.23298   0.01267  Uiso   1.00
C156   C     0.21763   0.33103   0.19658   0.01267  Uiso   1.00
C157   C     0.24476   0.36356   0.19613   0.01267  Uiso   1.00
C158   C     0.25220   0.38406   0.23008   0.01267  Uiso   1.00
C159   C     0.28597   0.57257   0.29274   0.01267  Uiso   1.00
C160   C     0.66956   0.89600   0.14459   0.01267  Uiso   1.00
C161   C     0.61572   0.90916   0.14831   0.01267  Uiso   1.00
C162   C     0.21266   0.30744   0.15987   0.01267  Uiso   1.00
C163   C     0.76111   0.19177   0.81783   0.01267  Uiso   1.00
C164   C     0.29896   0.28308   0.98551   0.01267  Uiso   1.00
C165   C     0.79153   0.12199   0.86573   0.01267  Uiso   1.00
C166   C     0.27329   0.29093   0.02825   0.01267  Uiso   1.00
C167   C     0.77165   0.13891   0.82847   0.01267  Uiso   1.00
C168   C     0.76058   0.10812   0.80214   0.01267  Uiso   1.00
C169   C     0.77100   0.05880   0.81318   0.01267  Uiso   1.00
C170   C     0.80146   0.07396   0.87556   0.01267  Uiso   1.00
C171   C     0.79089   0.04167   0.84861   0.01267  Uiso   1.00
C172   C     0.80375   0.98967   0.85933   0.01267  Uiso   1.00
C173   C     0.79884   0.97290   0.90031   0.01267  Uiso   1.00
C174   C     0.80977   0.92299   0.90969   0.01267  Uiso   1.00
C175   C     0.82542   0.89292   0.87900   0.01267  Uiso   1.00
C176   C     0.83073   0.90977   0.83834   0.01267  Uiso   1.00
C177   C     0.81979   0.95771   0.82938   0.01267  Uiso   1.00
C178   C     0.84637   0.87531   0.80592   0.01267  Uiso   1.00
C179   C     0.83114   0.83504   0.80613   0.01267  Uiso   1.00
C180   C     0.87717   0.88581   0.77378   0.01267  Uiso   1.00
C181   C     0.84228   0.80530   0.77443   0.01267  Uiso   1.00
C182   C     0.88840   0.85700   0.74151   0.01267  Uiso   1.00
C183   C     0.87163   0.81657   0.74093   0.01267  Uiso   1.00
C184   C     0.88007   0.78687   0.70547   0.01267  Uiso   1.00
C185   C     0.80230   0.90488   0.95117   0.01267  Uiso   1.00
C186   C     0.81058   0.92932   0.98339   0.01267  Uiso   1.00
C187   C     0.80376   0.91434   0.02407   0.01267  Uiso   1.00
C188   C     0.78742   0.86396   0.95922   0.01267  Uiso   1.00
C189   C     0.78721   0.87143   0.03113   0.01267  Uiso   1.00
C190   C     0.78036   0.84708   0.00001   0.01267  Uiso   1.00
C191   C     0.77721   0.85575   0.07439   0.01267  Uiso   1.00
C192   C     0.80210   0.30888   0.80270   0.01267  Uiso   1.00
C193   C     0.83744   0.32574   0.77354   0.01267  Uiso   1.00
C194   C     0.88468   0.31882   0.78289   0.01267  Uiso   1.00
C195   C     0.91628   0.33802   0.75638   0.01267  Uiso   1.00
C196   C     0.82086   0.35196   0.74002   0.01267  Uiso   1.00
C197   C     0.85236   0.37364   0.71443   0.01267  Uiso   1.00
C198   C     0.89893   0.36661   0.72286   0.01267  Uiso   1.00
C199   C     0.93266   0.39098   0.69732   0.01267  Uiso   1.00
C200   C     0.91737   0.43935   0.68683   0.01267  Uiso   1.00
C201   C     0.94890   0.46398   0.66514   0.01267  Uiso   1.00
C202   C     0.97752   0.36646   0.68553   0.01267  Uiso   1.00
C203   C     0.88939   0.54019   0.65010   0.01267  Uiso   1.00
C204   C     0.96827   0.54373   0.66142   0.01267  Uiso   1.00
C205   C     0.93388   0.51720   0.65795   0.01267  Uiso   1.00
C206   C     0.87662   0.58930   0.64508   0.01267  Uiso   1.00
C207   C     0.95583   0.59267   0.65661   0.01267  Uiso   1.00
C208   C     0.00933   0.39055   0.66329   0.01267  Uiso   1.00
C209   C     0.99321   0.43903   0.65322   0.01267  Uiso   1.00
C210   C     0.05731   0.36493   0.65061   0.01267  Uiso   1.00
C211   C     0.09491   0.38931   0.64637   0.01267  Uiso   1.00
C212   C     0.06918   0.31684   0.64298   0.01267  Uiso   1.00
C213   C     0.11438   0.29408   0.63160   0.01267  Uiso   1.00
C214   C     0.15086   0.31824   0.62622   0.01267  Uiso   1.00
C215   C     0.14054   0.36560   0.63432   0.01267  Uiso   1.00
C216   C     0.20071   0.29341   0.61368   0.01267  Uiso   1.00
C217   C     0.60209   0.27639   0.82596   0.01267  Uiso   1.00
C218   C     0.65252   0.28264   0.82090   0.01267  Uiso   1.00
C219   C     0.58536   0.25708   0.86231   0.01267  Uiso   1.00
C220   C     0.53891   0.25103   0.86585   0.01267  Uiso   1.00
C221   C     0.52622   0.28040   0.79668   0.01267  Uiso   1.00
C222   C     0.50941   0.26077   0.83434   0.01267  Uiso   1.00
C223   C     0.45942   0.25558   0.83716   0.01267  Uiso   1.00
C224   C     0.43120   0.26306   0.87348   0.01267  Uiso   1.00
C225   C     0.38430   0.25968   0.87491   0.01267  Uiso   1.00
C226   C     0.35366   0.26866   0.91354   0.01267  Uiso   1.00
C227   C     0.36368   0.29660   0.94174   0.01267  Uiso   1.00
C228   C     0.31526   0.24752   0.92175   0.01267  Uiso   1.00
C229   C     0.28842   0.25614   0.95833   0.01267  Uiso   1.00
C230   C     0.33870   0.30446   0.97928   0.01267  Uiso   1.00
C231   C     0.43979   0.24389   0.80418   0.01267  Uiso   1.00
C232   C     0.36492   0.24946   0.84115   0.01267  Uiso   1.00
C233   C     0.39151   0.24127   0.80442   0.01267  Uiso   1.00
C234   C     0.37182   0.23094   0.76769   0.01267  Uiso   1.00
C235   C     0.33846   0.20294   0.76793   0.01267  Uiso   1.00
C236   C     0.31913   0.19621   0.73298   0.01267  Uiso   1.00
C237   C     0.33103   0.21763   0.69658   0.01267  Uiso   1.00
C238   C     0.36356   0.24476   0.69613   0.01267  Uiso   1.00
C239   C     0.38406   0.25220   0.73008   0.01267  Uiso   1.00
C240   C     0.57257   0.28597   0.79274   0.01267  Uiso   1.00
C241   C     0.89600   0.66956   0.64459   0.01267  Uiso   1.00
C242   C     0.90916   0.61572   0.64831   0.01267  Uiso   1.00
C243   C     0.30744   0.21266   0.65987   0.01267  Uiso   1.00
C244   C     0.80823   0.23889   0.68217   0.01267  Uiso   1.00
C245   C     0.71692   0.70104   0.51449   0.01267  Uiso   1.00
C246   C     0.87801   0.20847   0.63427   0.01267  Uiso   1.00
C247   C     0.70907   0.72671   0.47175   0.01267  Uiso   1.00
C248   C     0.86109   0.22835   0.67153   0.01267  Uiso   1.00
C249   C     0.89188   0.23942   0.69786   0.01267  Uiso   1.00
C250   C     0.94120   0.22900   0.68682   0.01267  Uiso   1.00
C251   C     0.92604   0.19854   0.62444   0.01267  Uiso   1.00
C252   C     0.95833   0.20911   0.65139   0.01267  Uiso   1.00
C253   C     0.01033   0.19625   0.64067   0.01267  Uiso   1.00
C254   C     0.02710   0.20116   0.59969   0.01267  Uiso   1.00
C255   C     0.07701   0.19023   0.59031   0.01267  Uiso   1.00
C256   C     0.10708   0.17458   0.62100   0.01267  Uiso   1.00
C257   C     0.09023   0.16927   0.66166   0.01267  Uiso   1.00
C258   C     0.04229   0.18021   0.67062   0.01267  Uiso   1.00
C259   C     0.12469   0.15363   0.69408   0.01267  Uiso   1.00
C260   C     0.16496   0.16886   0.69387   0.01267  Uiso   1.00
C261   C     0.11419   0.12283   0.72622   0.01267  Uiso   1.00
C262   C     0.19470   0.15772   0.72557   0.01267  Uiso   1.00
C263   C     0.14300   0.11160   0.75849   0.01267  Uiso   1.00
C264   C     0.18343   0.12837   0.75907   0.01267  Uiso   1.00
C265   C     0.21313   0.11993   0.79453   0.01267  Uiso   1.00
C266   C     0.09512   0.19770   0.54883   0.01267  Uiso   1.00
C267   C     0.07068   0.18942   0.51661   0.01267  Uiso   1.00
C268   C     0.08566   0.19624   0.47593   0.01267  Uiso   1.00
C269   C     0.13604   0.21258   0.54078   0.01267  Uiso   1.00
C270   C     0.12857   0.21279   0.46887   0.01267  Uiso   1.00
C271   C     0.15292   0.21964   0.49999   0.01267  Uiso   1.00
C272   C     0.14425   0.22279   0.42561   0.01267  Uiso   1.00
C273   C     0.69112   0.19790   0.69730   0.01267  Uiso   1.00
C274   C     0.67426   0.16256   0.72646   0.01267  Uiso   1.00
C275   C     0.68118   0.11532   0.71711   0.01267  Uiso   1.00
C276   C     0.66198   0.08372   0.74362   0.01267  Uiso   1.00
C277   C     0.64804   0.17914   0.75998   0.01267  Uiso   1.00
C278   C     0.62636   0.14764   0.78557   0.01267  Uiso   1.00
C279   C     0.63339   0.10107   0.77714   0.01267  Uiso   1.00
C280   C     0.60902   0.06734   0.80268   0.01267  Uiso   1.00
C281   C     0.56065   0.08263   0.81317   0.01267  Uiso   1.00
C282   C     0.53602   0.05110   0.83486   0.01267  Uiso   1.00
C283   C     0.63354   0.02248   0.81447   0.01267  Uiso   1.00
C284   C     0.45981   0.11061   0.84990   0.01267  Uiso   1.00
C285   C     0.45627   0.03173   0.83858   0.01267  Uiso   1.00
C286   C     0.48280   0.06612   0.84205   0.01267  Uiso   1.00
C287   C     0.41070   0.12338   0.85492   0.01267  Uiso   1.00
C288   C     0.40733   0.04417   0.84339   0.01267  Uiso   1.00
C289   C     0.60945   0.99067   0.83671   0.01267  Uiso   1.00
C290   C     0.56097   0.00679   0.84678   0.01267  Uiso   1.00
C291   C     0.63507   0.94269   0.84939   0.01267  Uiso   1.00
C292   C     0.61069   0.90509   0.85363   0.01267  Uiso   1.00
C293   C     0.68316   0.93082   0.85702   0.01267  Uiso   1.00
C294   C     0.70592   0.88562   0.86840   0.01267  Uiso   1.00
C295   C     0.68176   0.84914   0.87378   0.01267  Uiso   1.00
C296   C     0.63440   0.85946   0.86568   0.01267  Uiso   1.00
C297   C     0.70659   0.79929   0.88632   0.01267  Uiso   1.00
C298   C     0.72361   0.39791   0.67404   0.01267  Uiso   1.00
C299   C     0.71736   0.34748   0.67910   0.01267  Uiso   1.00
C300   C     0.74292   0.41464   0.63769   0.01267  Uiso   1.00
C301   C     0.74897   0.46109   0.63415   0.01267  Uiso   1.00
C302   C     0.71960   0.47378   0.70332   0.01267  Uiso   1.00
C303   C     0.73923   0.49059   0.66566   0.01267  Uiso   1.00
C304   C     0.74442   0.54058   0.66284   0.01267  Uiso   1.00
C305   C     0.73694   0.56880   0.62652   0.01267  Uiso   1.00
C306   C     0.74032   0.61570   0.62509   0.01267  Uiso   1.00
C307   C     0.73134   0.64634   0.58646   0.01267  Uiso   1.00
C308   C     0.70340   0.63632   0.55826   0.01267  Uiso   1.00
C309   C     0.75248   0.68474   0.57825   0.01267  Uiso   1.00
C310   C     0.74386   0.71158   0.54167   0.01267  Uiso   1.00
C311   C     0.69554   0.66130   0.52072   0.01267  Uiso   1.00
C312   C     0.75611   0.56021   0.69582   0.01267  Uiso   1.00
C313   C     0.75054   0.63508   0.65885   0.01267  Uiso   1.00
C314   C     0.75873   0.60849   0.69558   0.01267  Uiso   1.00
C315   C     0.76906   0.62818   0.73231   0.01267  Uiso   1.00
C316   C     0.79706   0.66154   0.73207   0.01267  Uiso   1.00
C317   C     0.80379   0.68087   0.76702   0.01267  Uiso   1.00
C318   C     0.78237   0.66897   0.80342   0.01267  Uiso   1.00
C319   C     0.75524   0.63644   0.80387   0.01267  Uiso   1.00
C320   C     0.74780   0.61594   0.76992   0.01267  Uiso   1.00
C321   C     0.71403   0.42743   0.70726   0.01267  Uiso   1.00
C322   C     0.33044   0.10400   0.85541   0.01267  Uiso   1.00
C323   C     0.38428   0.09084   0.85169   0.01267  Uiso   1.00
C324   C     0.78734   0.69256   0.84013   0.01267  Uiso   1.00
O1     O     0.23371   0.78299   0.15449   0.01267  Uiso   1.00
O2     O     0.25259   0.79413   0.21705   0.01267  Uiso   1.00
O3     O     0.32616   0.71884   0.14817   0.01267  Uiso   1.00
O4     O     0.33270   0.71050   0.21569   0.01267  Uiso   1.00
O5     O     0.23815   0.69431   0.20863   0.01267  Uiso   1.00
O6     O     0.18772   0.70020   0.16070   0.01267  Uiso   1.00
O7     O     0.76986   0.68198   0.39409   0.01267  Uiso   1.00
O8     O     0.79085   0.75103   0.38881   0.01267  Uiso   1.00
O9     O     0.23169   0.18509   0.91924   0.01267  Uiso   1.00
O10    O     0.22047   0.12017   0.89677   0.01267  Uiso   1.00
O11    O     0.08440   0.20918   0.31925   0.01267  Uiso   1.00
O12    O     0.14775   0.23945   0.30006   0.01267  Uiso   1.00
O13    O     0.14694   0.31090   0.36006   0.01267  Uiso   1.00
O14    O     0.07065   0.31009   0.35405   0.01267  Uiso   1.00
O15    O     0.71599   0.81869   0.34276   0.01267  Uiso   1.00
O16    O     0.71429   0.68253   0.94885   0.01267  Uiso   1.00
O17    O     0.76009   0.73117   0.96435   0.01267  Uiso   1.00
O18    O     0.68768   0.75940   0.37227   0.01267  Uiso   1.00
O19    O     0.21701   0.76629   0.34551   0.01267  Uiso   1.00
O20    O     0.20587   0.74741   0.28295   0.01267  Uiso   1.00
O21    O     0.28116   0.67384   0.35183   0.01267  Uiso   1.00
O22    O     0.28950   0.66730   0.28431   0.01267  Uiso   1.00
O23    O     0.30569   0.76185   0.29137   0.01267  Uiso   1.00
O24    O     0.29980   0.81228   0.33930   0.01267  Uiso   1.00
O25    O     0.31802   0.23014   0.10591   0.01267  Uiso   1.00
O26    O     0.24897   0.20915   0.11119   0.01267  Uiso   1.00
O27    O     0.81491   0.76831   0.58076   0.01267  Uiso   1.00
O28    O     0.87983   0.77953   0.60323   0.01267  Uiso   1.00
O29    O     0.79082   0.91560   0.18075   0.01267  Uiso   1.00
O30    O     0.76055   0.85225   0.19994   0.01267  Uiso   1.00
O31    O     0.68910   0.85306   0.13994   0.01267  Uiso   1.00
O32    O     0.68991   0.92935   0.14595   0.01267  Uiso   1.00
O33    O     0.18131   0.28401   0.15724   0.01267  Uiso   1.00
O34    O     0.31747   0.28571   0.55115   0.01267  Uiso   1.00
O35    O     0.26883   0.23991   0.53565   0.01267  Uiso   1.00
O36    O     0.24060   0.31232   0.12773   0.01267  Uiso   1.00
O37    O     0.76629   0.21701   0.84551   0.01267  Uiso   1.00
O38    O     0.74741   0.20587   0.78295   0.01267  Uiso   1.00
O39    O     0.67384   0.28116   0.85183   0.01267  Uiso   1.00
O40    O     0.66730   0.28950   0.78431   0.01267  Uiso   1.00
O41    O     0.76185   0.30569   0.79137   0.01267  Uiso   1.00
O42    O     0.81228   0.29980   0.83930   0.01267  Uiso   1.00
O43    O     0.23014   0.31802   0.60591   0.01267  Uiso   1.00
O44    O     0.20915   0.24897   0.61119   0.01267  Uiso   1.00
O45    O     0.76831   0.81491   0.08076   0.01267  Uiso   1.00
O46    O     0.77953   0.87983   0.10323   0.01267  Uiso   1.00
O47    O     0.91560   0.79082   0.68075   0.01267  Uiso   1.00
O48    O     0.85225   0.76055   0.69994   0.01267  Uiso   1.00
O49    O     0.85306   0.68910   0.63994   0.01267  Uiso   1.00
O50    O     0.92935   0.68991   0.64595   0.01267  Uiso   1.00
O51    O     0.28401   0.18131   0.65724   0.01267  Uiso   1.00
O52    O     0.28571   0.31747   0.05115   0.01267  Uiso   1.00
O53    O     0.23991   0.26883   0.03565   0.01267  Uiso   1.00
O54    O     0.31232   0.24060   0.62773   0.01267  Uiso   1.00
O55    O     0.78299   0.23371   0.65449   0.01267  Uiso   1.00
O56    O     0.79413   0.25259   0.71705   0.01267  Uiso   1.00
O57    O     0.71884   0.32616   0.64817   0.01267  Uiso   1.00
O58    O     0.71050   0.33270   0.71569   0.01267  Uiso   1.00
O59    O     0.69431   0.23815   0.70863   0.01267  Uiso   1.00
O60    O     0.70020   0.18772   0.66070   0.01267  Uiso   1.00
O61    O     0.68198   0.76986   0.89409   0.01267  Uiso   1.00
O62    O     0.75103   0.79085   0.88881   0.01267  Uiso   1.00
O63    O     0.18509   0.23169   0.41924   0.01267  Uiso   1.00
O64    O     0.12017   0.22047   0.39677   0.01267  Uiso   1.00
O65    O     0.20918   0.08440   0.81925   0.01267  Uiso   1.00
O66    O     0.23945   0.14775   0.80006   0.01267  Uiso   1.00
O67    O     0.31090   0.14694   0.86006   0.01267  Uiso   1.00
O68    O     0.31009   0.07065   0.85405   0.01267  Uiso   1.00
O69    O     0.81869   0.71599   0.84276   0.01267  Uiso   1.00
O70    O     0.68253   0.71429   0.44885   0.01267  Uiso   1.00
O71    O     0.73117   0.76009   0.46435   0.01267  Uiso   1.00
O72    O     0.75940   0.68768   0.87227   0.01267  Uiso   1.00
