data_image0
_cell_length_a       8.1015
_cell_length_b       12.9463
_cell_length_c       12.4223
_cell_angle_alpha    90
_cell_angle_beta     97.778
_cell_angle_gamma    90

_symmetry_space_group_name_H-M    "P 1"
_symmetry_int_tables_number       1

loop_
  _symmetry_equiv_pos_as_xyz
  'x, y, z'

loop_
  _atom_site_label
  _atom_site_occupancy
  _atom_site_fract_x
  _atom_site_fract_y
  _atom_site_fract_z
  _atom_site_thermal_displace_type
  _atom_site_B_iso_or_equiv
  _atom_site_type_symbol
  Cs1      1.0000 0.96903  0.21217  0.72862  Biso   1.000  Cs
  Cs2      1.0000 0.49202  0.13402  0.89315  Biso   1.000  Cs
  S1       1.0000 0.66300  0.42034  0.64421  Biso   1.000  S
  S2       1.0000 0.30769  0.40929  0.69877  Biso   1.000  S
  S3       1.0000 0.44825  0.23456  0.57756  Biso   1.000  S
  C1       1.0000 0.45250  0.37296  0.60513  Biso   1.000  C
  H1       1.0000 0.41100  0.40730  0.53450  Biso   1.000  H
  O1       1.0000 0.76090  0.37009  0.57026  Biso   1.000  O
  O2       1.0000 0.71250  0.38885  0.75686  Biso   1.000  O
  O3       1.0000 0.65330  0.53153  0.63094  Biso   1.000  O
  O4       1.0000 0.35630  0.51103  0.73921  Biso   1.000  O
  O5       1.0000 0.32570  0.33082  0.78400  Biso   1.000  O
  O6       1.0000 0.14570  0.40737  0.63319  Biso   1.000  O
  O7       1.0000 0.55710  0.18475  0.66391  Biso   1.000  O
  O8       1.0000 0.27250  0.20635  0.57289  Biso   1.000  O
  O9       1.0000 0.50510  0.22340  0.47198  Biso   1.000  O
  Cs3      1.0000 0.53097  0.71217  0.77138  Biso   1.000  Cs
  Cs4      1.0000 0.00798  0.63402  0.60685  Biso   1.000  Cs
  S4       1.0000 0.83700  0.92034  0.85579  Biso   1.000  S
  S5       1.0000 0.19231  0.90929  0.80123  Biso   1.000  S
  S6       1.0000 0.05175  0.73456  0.92244  Biso   1.000  S
  C2       1.0000 0.04750  0.87296  0.89487  Biso   1.000  C
  H2       1.0000 0.08900  0.90730  0.96550  Biso   1.000  H
  O10      1.0000 0.73910  0.87009  0.92974  Biso   1.000  O
  O11      1.0000 0.78750  0.88885  0.74314  Biso   1.000  O
  O12      1.0000 0.84670  0.03153  0.86906  Biso   1.000  O
  O13      1.0000 0.14370  0.01103  0.76079  Biso   1.000  O
  O14      1.0000 0.17430  0.83082  0.71600  Biso   1.000  O
  O15      1.0000 0.35430  0.90737  0.86681  Biso   1.000  O
  O16      1.0000 0.94290  0.68475  0.83609  Biso   1.000  O
  O17      1.0000 0.22750  0.70635  0.92711  Biso   1.000  O
  O18      1.0000 0.99490  0.72340  0.02802  Biso   1.000  O
  Cs5      1.0000 0.03097  0.78783  0.27138  Biso   1.000  Cs
  Cs6      1.0000 0.50798  0.86598  0.10685  Biso   1.000  Cs
  S7       1.0000 0.33700  0.57966  0.35579  Biso   1.000  S
  S8       1.0000 0.69231  0.59071  0.30123  Biso   1.000  S
  S9       1.0000 0.55175  0.76544  0.42244  Biso   1.000  S
  C3       1.0000 0.54750  0.62704  0.39487  Biso   1.000  C
  H3       1.0000 0.58900  0.59270  0.46550  Biso   1.000  H
  O19      1.0000 0.23910  0.62991  0.42974  Biso   1.000  O
  O20      1.0000 0.28750  0.61115  0.24314  Biso   1.000  O
  O21      1.0000 0.34670  0.46847  0.36906  Biso   1.000  O
  O22      1.0000 0.64370  0.48897  0.26079  Biso   1.000  O
  O23      1.0000 0.67430  0.66918  0.21600  Biso   1.000  O
  O24      1.0000 0.85430  0.59263  0.36681  Biso   1.000  O
  O25      1.0000 0.44290  0.81525  0.33609  Biso   1.000  O
  O26      1.0000 0.72750  0.79365  0.42711  Biso   1.000  O
  O27      1.0000 0.49490  0.77660  0.52802  Biso   1.000  O
  Cs7      1.0000 0.46903  0.28783  0.22862  Biso   1.000  Cs
  Cs8      1.0000 0.99202  0.36598  0.39315  Biso   1.000  Cs
  S10      1.0000 0.16300  0.07966  0.14421  Biso   1.000  S
  S11      1.0000 0.80769  0.09071  0.19877  Biso   1.000  S
  S12      1.0000 0.94825  0.26544  0.07756  Biso   1.000  S
  C4       1.0000 0.95250  0.12704  0.10513  Biso   1.000  C
  H4       1.0000 0.91100  0.09270  0.03450  Biso   1.000  H
  O28      1.0000 0.26090  0.12991  0.07026  Biso   1.000  O
  O29      1.0000 0.21250  0.11115  0.25686  Biso   1.000  O
  O30      1.0000 0.15330  0.96847  0.13094  Biso   1.000  O
  O31      1.0000 0.85630  0.98897  0.23921  Biso   1.000  O
  O32      1.0000 0.82570  0.16918  0.28400  Biso   1.000  O
  O33      1.0000 0.64570  0.09263  0.13319  Biso   1.000  O
  O34      1.0000 0.05710  0.31525  0.16391  Biso   1.000  O
  O35      1.0000 0.77250  0.29365  0.07289  Biso   1.000  O
  O36      1.0000 0.00510  0.27660  0.97198  Biso   1.000  O
