data_image0
_cell_length_a       9.5121
_cell_length_b       9.8819
_cell_length_c       12.1172
_cell_angle_alpha    70.533
_cell_angle_beta     73.473
_cell_angle_gamma    82.328

_symmetry_space_group_name_H-M    "P 1"
_symmetry_int_tables_number       1

loop_
  _symmetry_equiv_pos_as_xyz
  'x, y, z'

loop_
  _atom_site_label
  _atom_site_occupancy
  _atom_site_fract_x
  _atom_site_fract_y
  _atom_site_fract_z
  _atom_site_thermal_displace_type
  _atom_site_B_iso_or_equiv
  _atom_site_type_symbol
  Mn1      1.0000 0.14671  0.30605  0.64121  Biso   1.000  Mn
  Al1      1.0000 0.23050  0.97474  0.43051  Biso   1.000  Al
  Al2      1.0000 0.48360  0.52428  0.68064  Biso   1.000  Al
  Al3      1.0000 0.93339  0.67164  0.85039  Biso   1.000  Al
  P1       1.0000 0.18823  0.42239  0.86757  Biso   1.000  P
  P2       1.0000 0.03241  0.97995  0.68437  Biso   1.000  P
  P3       1.0000 0.24560  0.30683  0.34084  Biso   1.000  P
  P4       1.0000 0.53375  0.28318  0.56789  Biso   1.000  P
  O1       1.0000 0.08550  0.55640  0.85260  Biso   1.000  O
  O2       1.0000 0.29450  0.14820  0.36530  Biso   1.000  O
  O3       1.0000 0.62290  0.14190  0.59980  Biso   1.000  O
  O4       1.0000 0.34580  0.47630  0.81340  Biso   1.000  O
  O5       1.0000 0.99680  0.84490  0.79500  Biso   1.000  O
  O6       1.0000 0.15800  0.32050  0.81100  Biso   1.000  O
  O7       1.0000 0.88850  0.04430  0.65040  Biso   1.000  O
  O8       1.0000 0.13150  0.92930  0.58070  Biso   1.000  O
  O9       1.0000 0.17610  0.35030  0.00310  Biso   1.000  O
  O10      1.0000 0.37440  0.26270  0.59330  Biso   1.000  O
  O11      1.0000 0.17170  0.35060  0.23670  Biso   1.000  O
  O12      1.0000 0.56520  0.37360  0.63950  Biso   1.000  O
  O13      1.0000 0.59930  0.36190  0.43130  Biso   1.000  O
  O14      1.0000 0.14260  0.33580  0.45070  Biso   1.000  O
  O15      1.0000 0.38660  0.39130  0.29310  Biso   1.000  O
  O16      1.0000 0.10140  0.08510  0.71480  Biso   1.000  O
  Mn2      1.0000 0.85329  0.69395  0.35879  Biso   1.000  Mn
  Al4      1.0000 0.76950  0.02526  0.56949  Biso   1.000  Al
  Al5      1.0000 0.51640  0.47572  0.31936  Biso   1.000  Al
  Al6      1.0000 0.06661  0.32836  0.14961  Biso   1.000  Al
  P5       1.0000 0.81177  0.57761  0.13243  Biso   1.000  P
  P6       1.0000 0.96759  0.02005  0.31563  Biso   1.000  P
  P7       1.0000 0.75440  0.69317  0.65916  Biso   1.000  P
  P8       1.0000 0.46625  0.71682  0.43211  Biso   1.000  P
  O17      1.0000 0.91450  0.44360  0.14740  Biso   1.000  O
  O18      1.0000 0.70550  0.85180  0.63470  Biso   1.000  O
  O19      1.0000 0.37710  0.85810  0.40020  Biso   1.000  O
  O20      1.0000 0.65420  0.52370  0.18660  Biso   1.000  O
  O21      1.0000 0.00320  0.15510  0.20500  Biso   1.000  O
  O22      1.0000 0.84200  0.67950  0.18900  Biso   1.000  O
  O23      1.0000 0.11150  0.95570  0.34960  Biso   1.000  O
  O24      1.0000 0.86850  0.07070  0.41930  Biso   1.000  O
  O25      1.0000 0.82390  0.64970  0.99690  Biso   1.000  O
  O26      1.0000 0.62560  0.73730  0.40670  Biso   1.000  O
  O27      1.0000 0.82830  0.64940  0.76330  Biso   1.000  O
  O28      1.0000 0.43480  0.62640  0.36050  Biso   1.000  O
  O29      1.0000 0.40070  0.63810  0.56870  Biso   1.000  O
  O30      1.0000 0.85740  0.66420  0.54930  Biso   1.000  O
  O31      1.0000 0.61340  0.60870  0.70690  Biso   1.000  O
  O32      1.0000 0.89860  0.91490  0.28520  Biso   1.000  O
