data_image0
_cell_length_a       8.8547
_cell_length_b       9.9689
_cell_length_c       12.9721
_cell_angle_alpha    97.005
_cell_angle_beta     97.885
_cell_angle_gamma    90.929

_symmetry_space_group_name_H-M    "P 1"
_symmetry_int_tables_number       1

loop_
  _symmetry_equiv_pos_as_xyz
  'x, y, z'

loop_
  _atom_site_label
  _atom_site_occupancy
  _atom_site_fract_x
  _atom_site_fract_y
  _atom_site_fract_z
  _atom_site_thermal_displace_type
  _atom_site_B_iso_or_equiv
  _atom_site_type_symbol
  S1       1.0000 0.93229  0.10138  0.74667  Biso   1.000  S
  O1       1.0000 0.01176  0.04605  0.83903  Biso   1.000  O
  O2       1.0000 0.03052  0.08503  0.66267  Biso   1.000  O
  O3       1.0000 0.78826  0.02169  0.70940  Biso   1.000  O
  O4       1.0000 0.90187  0.24321  0.77319  Biso   1.000  O
  N1       1.0000 0.09987  0.20592  0.07083  Biso   1.000  N
  N2       1.0000 0.21868  0.38017  0.17216  Biso   1.000  N
  N3       1.0000 0.23886  0.91907  0.00046  Biso   1.000  N
  N4       1.0000 0.46679  0.85378  0.06180  Biso   1.000  N
  N5       1.0000 0.92160  0.19578  0.45410  Biso   1.000  N
  N6       1.0000 0.87936  0.36493  0.36095  Biso   1.000  N
  C1       1.0000 0.45170  0.52098  0.24236  Biso   1.000  C
  C2       1.0000 0.45430  0.64230  0.19962  Biso   1.000  C
  H1       1.0000 0.36390  0.68670  0.18420  Biso   1.000  H
  C3       1.0000 0.59090  0.69770  0.17973  Biso   1.000  C
  C4       1.0000 0.72520  0.63167  0.20523  Biso   1.000  C
  H2       1.0000 0.81720  0.66880  0.19310  Biso   1.000  H
  C5       1.0000 0.72440  0.51111  0.24858  Biso   1.000  C
  C6       1.0000 0.58740  0.45535  0.26609  Biso   1.000  C
  H3       1.0000 0.58590  0.37370  0.29380  Biso   1.000  H
  C7       1.0000 0.30270  0.46230  0.26397  Biso   1.000  C
  H4       1.0000 0.32310  0.40690  0.32050  Biso   1.000  H
  H5       1.0000 0.23960  0.53550  0.28710  Biso   1.000  H
  C8       1.0000 0.59900  0.83270  0.13780  Biso   1.000  C
  H6       1.0000 0.60670  0.90470  0.19590  Biso   1.000  H
  H7       1.0000 0.69050  0.83770  0.10480  Biso   1.000  H
  C9       1.0000 0.87570  0.44560  0.27395  Biso   1.000  C
  H8       1.0000 0.95570  0.51560  0.29130  Biso   1.000  H
  H9       1.0000 0.89700  0.38800  0.21210  Biso   1.000  H
  C10      1.0000 0.15530  0.42630  0.08107  Biso   1.000  C
  H10      1.0000 0.16060  0.51450  0.06490  Biso   1.000  H
  C11      1.0000 0.08350  0.31830  0.01938  Biso   1.000  C
  H11      1.0000 0.03110  0.31990  0.95230  Biso   1.000  H
  C12      1.0000 0.18190  0.24667  0.16208  Biso   1.000  C
  H12      1.0000 0.21090  0.19070  0.21320  Biso   1.000  H
  C13      1.0000 0.43960  0.80170  0.95880  Biso   1.000  C
  H13      1.0000 0.50400  0.74840  0.92140  Biso   1.000  H
  C14      1.0000 0.30030  0.84300  0.92168  Biso   1.000  C
  H14      1.0000 0.25280  0.82290  0.85280  Biso   1.000  H
  C15      1.0000 0.34350  0.92310  0.08285  Biso   1.000  C
  H15      1.0000 0.33350  0.96870  0.14840  Biso   1.000  H
  C16      1.0000 0.84640  0.40800  0.45979  Biso   1.000  C
  H16      1.0000 0.81240  0.49250  0.48340  Biso   1.000  H
  C17      1.0000 0.87320  0.30320  0.51604  Biso   1.000  C
  H17      1.0000 0.86080  0.30390  0.58610  Biso   1.000  H
  C18      1.0000 0.92300  0.23710  0.36124  Biso   1.000  C
  H18      1.0000 0.95080  0.18390  0.30330  Biso   1.000  H
  S2       1.0000 0.06771  0.89862  0.25333  Biso   1.000  S
  O5       1.0000 0.98824  0.95395  0.16097  Biso   1.000  O
  O6       1.0000 0.96948  0.91497  0.33733  Biso   1.000  O
  O7       1.0000 0.21174  0.97831  0.29060  Biso   1.000  O
  O8       1.0000 0.09813  0.75679  0.22681  Biso   1.000  O
  N7       1.0000 0.90013  0.79408  0.92917  Biso   1.000  N
  N8       1.0000 0.78132  0.61983  0.82784  Biso   1.000  N
  N9       1.0000 0.76114  0.08093  0.99954  Biso   1.000  N
  N10      1.0000 0.53321  0.14622  0.93820  Biso   1.000  N
  N11      1.0000 0.07840  0.80422  0.54590  Biso   1.000  N
  N12      1.0000 0.12064  0.63507  0.63905  Biso   1.000  N
  C19      1.0000 0.54830  0.47902  0.75764  Biso   1.000  C
  C20      1.0000 0.54570  0.35770  0.80038  Biso   1.000  C
  H19      1.0000 0.63610  0.31330  0.81580  Biso   1.000  H
  C21      1.0000 0.40910  0.30230  0.82027  Biso   1.000  C
  C22      1.0000 0.27480  0.36833  0.79477  Biso   1.000  C
  H20      1.0000 0.18280  0.33120  0.80690  Biso   1.000  H
  C23      1.0000 0.27560  0.48889  0.75142  Biso   1.000  C
  C24      1.0000 0.41260  0.54465  0.73391  Biso   1.000  C
  H21      1.0000 0.41410  0.62630  0.70620  Biso   1.000  H
  C25      1.0000 0.69730  0.53770  0.73603  Biso   1.000  C
  H22      1.0000 0.67690  0.59310  0.67950  Biso   1.000  H
  H23      1.0000 0.76040  0.46450  0.71290  Biso   1.000  H
  C26      1.0000 0.40100  0.16730  0.86220  Biso   1.000  C
  H24      1.0000 0.39330  0.09530  0.80410  Biso   1.000  H
  H25      1.0000 0.30950  0.16230  0.89520  Biso   1.000  H
  C27      1.0000 0.12430  0.55440  0.72605  Biso   1.000  C
  H26      1.0000 0.04430  0.48440  0.70870  Biso   1.000  H
  H27      1.0000 0.10300  0.61200  0.78790  Biso   1.000  H
  C28      1.0000 0.84470  0.57370  0.91893  Biso   1.000  C
  H28      1.0000 0.83940  0.48550  0.93510  Biso   1.000  H
  C29      1.0000 0.91650  0.68170  0.98062  Biso   1.000  C
  H29      1.0000 0.96890  0.68010  0.04770  Biso   1.000  H
  C30      1.0000 0.81810  0.75333  0.83792  Biso   1.000  C
  H30      1.0000 0.78910  0.80930  0.78680  Biso   1.000  H
  C31      1.0000 0.56040  0.19830  0.04120  Biso   1.000  C
  H31      1.0000 0.49600  0.25160  0.07860  Biso   1.000  H
  C32      1.0000 0.69970  0.15700  0.07832  Biso   1.000  C
  H32      1.0000 0.74720  0.17710  0.14720  Biso   1.000  H
  C33      1.0000 0.65650  0.07690  0.91715  Biso   1.000  C
  H33      1.0000 0.66650  0.03130  0.85160  Biso   1.000  H
  C34      1.0000 0.15360  0.59200  0.54021  Biso   1.000  C
  H34      1.0000 0.18760  0.50750  0.51660  Biso   1.000  H
  C35      1.0000 0.12680  0.69680  0.48396  Biso   1.000  C
  H35      1.0000 0.13920  0.69610  0.41390  Biso   1.000  H
  C36      1.0000 0.07700  0.76290  0.63876  Biso   1.000  C
  H36      1.0000 0.04920  0.81610  0.69670  Biso   1.000  H
  Mn1      1.0000 0.00000  0.00000  0.00000  Biso   1.000  Mn
  Mn2      1.0000 0.00000  0.00000  0.50000  Biso   1.000  Mn
