data_image0
_cell_length_a       35.522
_cell_length_b       13.846
_cell_length_c       9.548
_cell_angle_alpha    90
_cell_angle_beta     103.2
_cell_angle_gamma    90

_symmetry_space_group_name_H-M    "P 1"
_symmetry_int_tables_number       1

loop_
  _symmetry_equiv_pos_as_xyz
  'x, y, z'

loop_
  _atom_site_label
  _atom_site_occupancy
  _atom_site_fract_x
  _atom_site_fract_y
  _atom_site_fract_z
  _atom_site_thermal_displace_type
  _atom_site_B_iso_or_equiv
  _atom_site_type_symbol
  Co1      1.0000 0.36450  0.20681  0.17226  Biso   1.000  Co
  O1       1.0000 0.14611  0.55841  0.06670  Biso   1.000  O
  N1       1.0000 0.33228  0.21600  0.95510  Biso   1.000  N
  O2       1.0000 0.33546  0.32691  0.21920  Biso   1.000  O
  O3       1.0000 0.17877  0.62203  0.27400  Biso   1.000  O
  O4       1.0000 0.36667  0.36320  0.44240  Biso   1.000  O
  N2       1.0000 0.40821  0.29600  0.11580  Biso   1.000  N
  C1       1.0000 0.27383  0.25570  0.78800  Biso   1.000  C
  H1       1.0000 0.24820  0.27540  0.77230  Biso   1.000  H
  C2       1.0000 0.27655  0.45230  0.24410  Biso   1.000  C
  H2       1.0000 0.27550  0.41910  0.15860  Biso   1.000  H
  C3       1.0000 0.21047  0.51100  0.15450  Biso   1.000  C
  H3       1.0000 0.20910  0.47450  0.07170  Biso   1.000  H
  C4       1.0000 0.24287  0.50910  0.25330  Biso   1.000  C
  H4       1.0000 0.24440  0.54680  0.33510  Biso   1.000  H
  C5       1.0000 0.29576  0.24420  0.92550  Biso   1.000  C
  H5       1.0000 0.28430  0.25690  0.00190  Biso   1.000  H
  C6       1.0000 0.29070  0.23730  0.67270  Biso   1.000  C
  C7       1.0000 0.17605  0.56720  0.16620  Biso   1.000  C
  C8       1.0000 0.33943  0.37340  0.33480  Biso   1.000  C
  C9       1.0000 0.32857  0.20770  0.70370  Biso   1.000  C
  H6       1.0000 0.34080  0.19390  0.62960  Biso   1.000  H
  C10      1.0000 0.34834  0.19860  0.84400  Biso   1.000  C
  H7       1.0000 0.37410  0.17940  0.86290  Biso   1.000  H
  C11      1.0000 0.30841  0.44340  0.34530  Biso   1.000  C
  H8       1.0000 0.31170  0.48240  0.42660  Biso   1.000  H
  C12      1.0000 0.26873  0.24580  0.51960  Biso   1.000  C
  H9       1.0000 0.27940  0.30130  0.47990  Biso   1.000  H
  H10      1.0000 0.27550  0.18960  0.47000  Biso   1.000  H
  C13      1.0000 0.44330  0.26440  0.11600  Biso   1.000  C
  H11      1.0000 0.45010  0.20210  0.14880  Biso   1.000  H
  C14      1.0000 0.39998  0.38600  0.07200  Biso   1.000  C
  H12      1.0000 0.37590  0.41100  0.07450  Biso   1.000  H
  C15      1.0000 0.42585  0.44390  0.02280  Biso   1.000  C
  H13      1.0000 0.41930  0.50740  0.99610  Biso   1.000  H
  C16      1.0000 0.47032  0.31970  0.06980  Biso   1.000  C
  H14      1.0000 0.49520  0.29600  0.07760  Biso   1.000  H
  C17      1.0000 0.46092  0.40860  0.01320  Biso   1.000  C
  C18      1.0000 0.48980  0.46760  0.94260  Biso   1.000  C
  H15      1.0000 0.50790  0.42480  0.91140  Biso   1.000  H
  H16      1.0000 0.47590  0.50440  0.86050  Biso   1.000  H
  Co2      1.0000 0.86450  0.70681  0.17226  Biso   1.000  Co
  O5       1.0000 0.64611  0.05841  0.06670  Biso   1.000  O
  N3       1.0000 0.83228  0.71600  0.95510  Biso   1.000  N
  O6       1.0000 0.83546  0.82691  0.21920  Biso   1.000  O
  O7       1.0000 0.67877  0.12203  0.27400  Biso   1.000  O
  O8       1.0000 0.86667  0.86320  0.44240  Biso   1.000  O
  N4       1.0000 0.90821  0.79600  0.11580  Biso   1.000  N
  C19      1.0000 0.77383  0.75570  0.78800  Biso   1.000  C
  H17      1.0000 0.74820  0.77540  0.77230  Biso   1.000  H
  C20      1.0000 0.77655  0.95230  0.24410  Biso   1.000  C
  H18      1.0000 0.77550  0.91910  0.15860  Biso   1.000  H
  C21      1.0000 0.71047  0.01100  0.15450  Biso   1.000  C
  H19      1.0000 0.70910  0.97450  0.07170  Biso   1.000  H
  C22      1.0000 0.74287  0.00910  0.25330  Biso   1.000  C
  H20      1.0000 0.74440  0.04680  0.33510  Biso   1.000  H
  C23      1.0000 0.79576  0.74420  0.92550  Biso   1.000  C
  H21      1.0000 0.78430  0.75690  0.00190  Biso   1.000  H
  C24      1.0000 0.79070  0.73730  0.67270  Biso   1.000  C
  C25      1.0000 0.67605  0.06720  0.16620  Biso   1.000  C
  C26      1.0000 0.83943  0.87340  0.33480  Biso   1.000  C
  C27      1.0000 0.82857  0.70770  0.70370  Biso   1.000  C
  H22      1.0000 0.84080  0.69390  0.62960  Biso   1.000  H
  C28      1.0000 0.84834  0.69860  0.84400  Biso   1.000  C
  H23      1.0000 0.87410  0.67940  0.86290  Biso   1.000  H
  C29      1.0000 0.80841  0.94340  0.34530  Biso   1.000  C
  H24      1.0000 0.81170  0.98240  0.42660  Biso   1.000  H
  C30      1.0000 0.76873  0.74580  0.51960  Biso   1.000  C
  H25      1.0000 0.77940  0.80130  0.47990  Biso   1.000  H
  H26      1.0000 0.77550  0.68960  0.47000  Biso   1.000  H
  C31      1.0000 0.94330  0.76440  0.11600  Biso   1.000  C
  H27      1.0000 0.95010  0.70210  0.14880  Biso   1.000  H
  C32      1.0000 0.89998  0.88600  0.07200  Biso   1.000  C
  H28      1.0000 0.87590  0.91100  0.07450  Biso   1.000  H
  C33      1.0000 0.92585  0.94390  0.02280  Biso   1.000  C
  H29      1.0000 0.91930  0.00740  0.99610  Biso   1.000  H
  C34      1.0000 0.97032  0.81970  0.06980  Biso   1.000  C
  H30      1.0000 0.99520  0.79600  0.07760  Biso   1.000  H
  C35      1.0000 0.96092  0.90860  0.01320  Biso   1.000  C
  C36      1.0000 0.98980  0.96760  0.94260  Biso   1.000  C
  H31      1.0000 0.00790  0.92480  0.91140  Biso   1.000  H
  H32      1.0000 0.97590  0.00440  0.86050  Biso   1.000  H
  Co3      1.0000 0.63550  0.20681  0.32774  Biso   1.000  Co
  O9       1.0000 0.85389  0.55841  0.43330  Biso   1.000  O
  N5       1.0000 0.66772  0.21600  0.54490  Biso   1.000  N
  O10      1.0000 0.66454  0.32691  0.28080  Biso   1.000  O
  O11      1.0000 0.82123  0.62203  0.22600  Biso   1.000  O
  O12      1.0000 0.63333  0.36320  0.05760  Biso   1.000  O
  N6       1.0000 0.59179  0.29600  0.38420  Biso   1.000  N
  C37      1.0000 0.72617  0.25570  0.71200  Biso   1.000  C
  H33      1.0000 0.75180  0.27540  0.72770  Biso   1.000  H
  C38      1.0000 0.72345  0.45230  0.25590  Biso   1.000  C
  H34      1.0000 0.72450  0.41910  0.34140  Biso   1.000  H
  C39      1.0000 0.78953  0.51100  0.34550  Biso   1.000  C
  H35      1.0000 0.79090  0.47450  0.42830  Biso   1.000  H
  C40      1.0000 0.75713  0.50910  0.24670  Biso   1.000  C
  H36      1.0000 0.75560  0.54680  0.16490  Biso   1.000  H
  C41      1.0000 0.70424  0.24420  0.57450  Biso   1.000  C
  H37      1.0000 0.71570  0.25690  0.49810  Biso   1.000  H
  C42      1.0000 0.70930  0.23730  0.82730  Biso   1.000  C
  C43      1.0000 0.82395  0.56720  0.33380  Biso   1.000  C
  C44      1.0000 0.66057  0.37340  0.16520  Biso   1.000  C
  C45      1.0000 0.67143  0.20770  0.79630  Biso   1.000  C
  H38      1.0000 0.65920  0.19390  0.87040  Biso   1.000  H
  C46      1.0000 0.65166  0.19860  0.65600  Biso   1.000  C
  H39      1.0000 0.62590  0.17940  0.63710  Biso   1.000  H
  C47      1.0000 0.69159  0.44340  0.15470  Biso   1.000  C
  H40      1.0000 0.68830  0.48240  0.07340  Biso   1.000  H
  C48      1.0000 0.73127  0.24580  0.98040  Biso   1.000  C
  H41      1.0000 0.72060  0.30130  0.02010  Biso   1.000  H
  H42      1.0000 0.72450  0.18960  0.03000  Biso   1.000  H
  C49      1.0000 0.55670  0.26440  0.38400  Biso   1.000  C
  H43      1.0000 0.54990  0.20210  0.35120  Biso   1.000  H
  C50      1.0000 0.60002  0.38600  0.42800  Biso   1.000  C
  H44      1.0000 0.62410  0.41100  0.42550  Biso   1.000  H
  C51      1.0000 0.57415  0.44390  0.47720  Biso   1.000  C
  H45      1.0000 0.58070  0.50740  0.50390  Biso   1.000  H
  C52      1.0000 0.52968  0.31970  0.43020  Biso   1.000  C
  H46      1.0000 0.50480  0.29600  0.42240  Biso   1.000  H
  C53      1.0000 0.53908  0.40860  0.48680  Biso   1.000  C
  C54      1.0000 0.51020  0.46760  0.55740  Biso   1.000  C
  H47      1.0000 0.49210  0.42480  0.58860  Biso   1.000  H
  H48      1.0000 0.52410  0.50440  0.63950  Biso   1.000  H
  Co4      1.0000 0.13550  0.70681  0.32774  Biso   1.000  Co
  O13      1.0000 0.35389  0.05841  0.43330  Biso   1.000  O
  N7       1.0000 0.16772  0.71600  0.54490  Biso   1.000  N
  O14      1.0000 0.16454  0.82691  0.28080  Biso   1.000  O
  O15      1.0000 0.32123  0.12203  0.22600  Biso   1.000  O
  O16      1.0000 0.13333  0.86320  0.05760  Biso   1.000  O
  N8       1.0000 0.09179  0.79600  0.38420  Biso   1.000  N
  C55      1.0000 0.22617  0.75570  0.71200  Biso   1.000  C
  H49      1.0000 0.25180  0.77540  0.72770  Biso   1.000  H
  C56      1.0000 0.22345  0.95230  0.25590  Biso   1.000  C
  H50      1.0000 0.22450  0.91910  0.34140  Biso   1.000  H
  C57      1.0000 0.28953  0.01100  0.34550  Biso   1.000  C
  H51      1.0000 0.29090  0.97450  0.42830  Biso   1.000  H
  C58      1.0000 0.25713  0.00910  0.24670  Biso   1.000  C
  H52      1.0000 0.25560  0.04680  0.16490  Biso   1.000  H
  C59      1.0000 0.20424  0.74420  0.57450  Biso   1.000  C
  H53      1.0000 0.21570  0.75690  0.49810  Biso   1.000  H
  C60      1.0000 0.20930  0.73730  0.82730  Biso   1.000  C
  C61      1.0000 0.32395  0.06720  0.33380  Biso   1.000  C
  C62      1.0000 0.16057  0.87340  0.16520  Biso   1.000  C
  C63      1.0000 0.17143  0.70770  0.79630  Biso   1.000  C
  H54      1.0000 0.15920  0.69390  0.87040  Biso   1.000  H
  C64      1.0000 0.15166  0.69860  0.65600  Biso   1.000  C
  H55      1.0000 0.12590  0.67940  0.63710  Biso   1.000  H
  C65      1.0000 0.19159  0.94340  0.15470  Biso   1.000  C
  H56      1.0000 0.18830  0.98240  0.07340  Biso   1.000  H
  C66      1.0000 0.23127  0.74580  0.98040  Biso   1.000  C
  H57      1.0000 0.22060  0.80130  0.02010  Biso   1.000  H
  H58      1.0000 0.22450  0.68960  0.03000  Biso   1.000  H
  C67      1.0000 0.05670  0.76440  0.38400  Biso   1.000  C
  H59      1.0000 0.04990  0.70210  0.35120  Biso   1.000  H
  C68      1.0000 0.10002  0.88600  0.42800  Biso   1.000  C
  H60      1.0000 0.12410  0.91100  0.42550  Biso   1.000  H
  C69      1.0000 0.07415  0.94390  0.47720  Biso   1.000  C
  H61      1.0000 0.08070  0.00740  0.50390  Biso   1.000  H
  C70      1.0000 0.02968  0.81970  0.43020  Biso   1.000  C
  H62      1.0000 0.00480  0.79600  0.42240  Biso   1.000  H
  C71      1.0000 0.03908  0.90860  0.48680  Biso   1.000  C
  C72      1.0000 0.01020  0.96760  0.55740  Biso   1.000  C
  H63      1.0000 0.99210  0.92480  0.58860  Biso   1.000  H
  H64      1.0000 0.02410  0.00440  0.63950  Biso   1.000  H
  Co5      1.0000 0.63550  0.79319  0.82774  Biso   1.000  Co
  O17      1.0000 0.85389  0.44159  0.93330  Biso   1.000  O
  N9       1.0000 0.66772  0.78400  0.04490  Biso   1.000  N
  O18      1.0000 0.66454  0.67309  0.78080  Biso   1.000  O
  O19      1.0000 0.82123  0.37797  0.72600  Biso   1.000  O
  O20      1.0000 0.63333  0.63680  0.55760  Biso   1.000  O
  N10      1.0000 0.59179  0.70400  0.88420  Biso   1.000  N
  C73      1.0000 0.72617  0.74430  0.21200  Biso   1.000  C
  H65      1.0000 0.75180  0.72460  0.22770  Biso   1.000  H
  C74      1.0000 0.72345  0.54770  0.75590  Biso   1.000  C
  H66      1.0000 0.72450  0.58090  0.84140  Biso   1.000  H
  C75      1.0000 0.78953  0.48900  0.84550  Biso   1.000  C
  H67      1.0000 0.79090  0.52550  0.92830  Biso   1.000  H
  C76      1.0000 0.75713  0.49090  0.74670  Biso   1.000  C
  H68      1.0000 0.75560  0.45320  0.66490  Biso   1.000  H
  C77      1.0000 0.70424  0.75580  0.07450  Biso   1.000  C
  H69      1.0000 0.71570  0.74310  0.99810  Biso   1.000  H
  C78      1.0000 0.70930  0.76270  0.32730  Biso   1.000  C
  C79      1.0000 0.82395  0.43280  0.83380  Biso   1.000  C
  C80      1.0000 0.66057  0.62660  0.66520  Biso   1.000  C
  C81      1.0000 0.67143  0.79230  0.29630  Biso   1.000  C
  H70      1.0000 0.65920  0.80610  0.37040  Biso   1.000  H
  C82      1.0000 0.65166  0.80140  0.15600  Biso   1.000  C
  H71      1.0000 0.62590  0.82060  0.13710  Biso   1.000  H
  C83      1.0000 0.69159  0.55660  0.65470  Biso   1.000  C
  H72      1.0000 0.68830  0.51760  0.57340  Biso   1.000  H
  C84      1.0000 0.73127  0.75420  0.48040  Biso   1.000  C
  H73      1.0000 0.72060  0.69870  0.52010  Biso   1.000  H
  H74      1.0000 0.72450  0.81040  0.53000  Biso   1.000  H
  C85      1.0000 0.55670  0.73560  0.88400  Biso   1.000  C
  H75      1.0000 0.54990  0.79790  0.85120  Biso   1.000  H
  C86      1.0000 0.60002  0.61400  0.92800  Biso   1.000  C
  H76      1.0000 0.62410  0.58900  0.92550  Biso   1.000  H
  C87      1.0000 0.57415  0.55610  0.97720  Biso   1.000  C
  H77      1.0000 0.58070  0.49260  0.00390  Biso   1.000  H
  C88      1.0000 0.52968  0.68030  0.93020  Biso   1.000  C
  H78      1.0000 0.50480  0.70400  0.92240  Biso   1.000  H
  C89      1.0000 0.53908  0.59140  0.98680  Biso   1.000  C
  C90      1.0000 0.51020  0.53240  0.05740  Biso   1.000  C
  H79      1.0000 0.49210  0.57520  0.08860  Biso   1.000  H
  H80      1.0000 0.52410  0.49560  0.13950  Biso   1.000  H
  Co6      1.0000 0.13550  0.29319  0.82774  Biso   1.000  Co
  O21      1.0000 0.35389  0.94159  0.93330  Biso   1.000  O
  N11      1.0000 0.16772  0.28400  0.04490  Biso   1.000  N
  O22      1.0000 0.16454  0.17309  0.78080  Biso   1.000  O
  O23      1.0000 0.32123  0.87797  0.72600  Biso   1.000  O
  O24      1.0000 0.13333  0.13680  0.55760  Biso   1.000  O
  N12      1.0000 0.09179  0.20400  0.88420  Biso   1.000  N
  C91      1.0000 0.22617  0.24430  0.21200  Biso   1.000  C
  H81      1.0000 0.25180  0.22460  0.22770  Biso   1.000  H
  C92      1.0000 0.22345  0.04770  0.75590  Biso   1.000  C
  H82      1.0000 0.22450  0.08090  0.84140  Biso   1.000  H
  C93      1.0000 0.28953  0.98900  0.84550  Biso   1.000  C
  H83      1.0000 0.29090  0.02550  0.92830  Biso   1.000  H
  C94      1.0000 0.25713  0.99090  0.74670  Biso   1.000  C
  H84      1.0000 0.25560  0.95320  0.66490  Biso   1.000  H
  C95      1.0000 0.20424  0.25580  0.07450  Biso   1.000  C
  H85      1.0000 0.21570  0.24310  0.99810  Biso   1.000  H
  C96      1.0000 0.20930  0.26270  0.32730  Biso   1.000  C
  C97      1.0000 0.32395  0.93280  0.83380  Biso   1.000  C
  C98      1.0000 0.16057  0.12660  0.66520  Biso   1.000  C
  C99      1.0000 0.17143  0.29230  0.29630  Biso   1.000  C
  H86      1.0000 0.15920  0.30610  0.37040  Biso   1.000  H
  C100     1.0000 0.15166  0.30140  0.15600  Biso   1.000  C
  H87      1.0000 0.12590  0.32060  0.13710  Biso   1.000  H
  C101     1.0000 0.19159  0.05660  0.65470  Biso   1.000  C
  H88      1.0000 0.18830  0.01760  0.57340  Biso   1.000  H
  C102     1.0000 0.23127  0.25420  0.48040  Biso   1.000  C
  H89      1.0000 0.22060  0.19870  0.52010  Biso   1.000  H
  H90      1.0000 0.22450  0.31040  0.53000  Biso   1.000  H
  C103     1.0000 0.05670  0.23560  0.88400  Biso   1.000  C
  H91      1.0000 0.04990  0.29790  0.85120  Biso   1.000  H
  C104     1.0000 0.10002  0.11400  0.92800  Biso   1.000  C
  H92      1.0000 0.12410  0.08900  0.92550  Biso   1.000  H
  C105     1.0000 0.07415  0.05610  0.97720  Biso   1.000  C
  H93      1.0000 0.08070  0.99260  0.00390  Biso   1.000  H
  C106     1.0000 0.02968  0.18030  0.93020  Biso   1.000  C
  H94      1.0000 0.00480  0.20400  0.92240  Biso   1.000  H
  C107     1.0000 0.03908  0.09140  0.98680  Biso   1.000  C
  C108     1.0000 0.01020  0.03240  0.05740  Biso   1.000  C
  H95      1.0000 0.99210  0.07520  0.08860  Biso   1.000  H
  H96      1.0000 0.02410  0.99560  0.13950  Biso   1.000  H
  Co7      1.0000 0.36450  0.79319  0.67226  Biso   1.000  Co
  O25      1.0000 0.14611  0.44159  0.56670  Biso   1.000  O
  N13      1.0000 0.33228  0.78400  0.45510  Biso   1.000  N
  O26      1.0000 0.33546  0.67309  0.71920  Biso   1.000  O
  O27      1.0000 0.17877  0.37797  0.77400  Biso   1.000  O
  O28      1.0000 0.36667  0.63680  0.94240  Biso   1.000  O
  N14      1.0000 0.40821  0.70400  0.61580  Biso   1.000  N
  C109     1.0000 0.27383  0.74430  0.28800  Biso   1.000  C
  H97      1.0000 0.24820  0.72460  0.27230  Biso   1.000  H
  C110     1.0000 0.27655  0.54770  0.74410  Biso   1.000  C
  H98      1.0000 0.27550  0.58090  0.65860  Biso   1.000  H
  C111     1.0000 0.21047  0.48900  0.65450  Biso   1.000  C
  H99      1.0000 0.20910  0.52550  0.57170  Biso   1.000  H
  C112     1.0000 0.24287  0.49090  0.75330  Biso   1.000  C
  H100     1.0000 0.24440  0.45320  0.83510  Biso   1.000  H
  C113     1.0000 0.29576  0.75580  0.42550  Biso   1.000  C
  H101     1.0000 0.28430  0.74310  0.50190  Biso   1.000  H
  C114     1.0000 0.29070  0.76270  0.17270  Biso   1.000  C
  C115     1.0000 0.17605  0.43280  0.66620  Biso   1.000  C
  C116     1.0000 0.33943  0.62660  0.83480  Biso   1.000  C
  C117     1.0000 0.32857  0.79230  0.20370  Biso   1.000  C
  H102     1.0000 0.34080  0.80610  0.12960  Biso   1.000  H
  C118     1.0000 0.34834  0.80140  0.34400  Biso   1.000  C
  H103     1.0000 0.37410  0.82060  0.36290  Biso   1.000  H
  C119     1.0000 0.30841  0.55660  0.84530  Biso   1.000  C
  H104     1.0000 0.31170  0.51760  0.92660  Biso   1.000  H
  C120     1.0000 0.26873  0.75420  0.01960  Biso   1.000  C
  H105     1.0000 0.27940  0.69870  0.97990  Biso   1.000  H
  H106     1.0000 0.27550  0.81040  0.97000  Biso   1.000  H
  C121     1.0000 0.44330  0.73560  0.61600  Biso   1.000  C
  H107     1.0000 0.45010  0.79790  0.64880  Biso   1.000  H
  C122     1.0000 0.39998  0.61400  0.57200  Biso   1.000  C
  H108     1.0000 0.37590  0.58900  0.57450  Biso   1.000  H
  C123     1.0000 0.42585  0.55610  0.52280  Biso   1.000  C
  H109     1.0000 0.41930  0.49260  0.49610  Biso   1.000  H
  C124     1.0000 0.47032  0.68030  0.56980  Biso   1.000  C
  H110     1.0000 0.49520  0.70400  0.57760  Biso   1.000  H
  C125     1.0000 0.46092  0.59140  0.51320  Biso   1.000  C
  C126     1.0000 0.48980  0.53240  0.44260  Biso   1.000  C
  H111     1.0000 0.50790  0.57520  0.41140  Biso   1.000  H
  H112     1.0000 0.47590  0.49560  0.36050  Biso   1.000  H
  Co8      1.0000 0.86450  0.29319  0.67226  Biso   1.000  Co
  O29      1.0000 0.64611  0.94159  0.56670  Biso   1.000  O
  N15      1.0000 0.83228  0.28400  0.45510  Biso   1.000  N
  O30      1.0000 0.83546  0.17309  0.71920  Biso   1.000  O
  O31      1.0000 0.67877  0.87797  0.77400  Biso   1.000  O
  O32      1.0000 0.86667  0.13680  0.94240  Biso   1.000  O
  N16      1.0000 0.90821  0.20400  0.61580  Biso   1.000  N
  C127     1.0000 0.77383  0.24430  0.28800  Biso   1.000  C
  H113     1.0000 0.74820  0.22460  0.27230  Biso   1.000  H
  C128     1.0000 0.77655  0.04770  0.74410  Biso   1.000  C
  H114     1.0000 0.77550  0.08090  0.65860  Biso   1.000  H
  C129     1.0000 0.71047  0.98900  0.65450  Biso   1.000  C
  H115     1.0000 0.70910  0.02550  0.57170  Biso   1.000  H
  C130     1.0000 0.74287  0.99090  0.75330  Biso   1.000  C
  H116     1.0000 0.74440  0.95320  0.83510  Biso   1.000  H
  C131     1.0000 0.79576  0.25580  0.42550  Biso   1.000  C
  H117     1.0000 0.78430  0.24310  0.50190  Biso   1.000  H
  C132     1.0000 0.79070  0.26270  0.17270  Biso   1.000  C
  C133     1.0000 0.67605  0.93280  0.66620  Biso   1.000  C
  C134     1.0000 0.83943  0.12660  0.83480  Biso   1.000  C
  C135     1.0000 0.82857  0.29230  0.20370  Biso   1.000  C
  H118     1.0000 0.84080  0.30610  0.12960  Biso   1.000  H
  C136     1.0000 0.84834  0.30140  0.34400  Biso   1.000  C
  H119     1.0000 0.87410  0.32060  0.36290  Biso   1.000  H
  C137     1.0000 0.80841  0.05660  0.84530  Biso   1.000  C
  H120     1.0000 0.81170  0.01760  0.92660  Biso   1.000  H
  C138     1.0000 0.76873  0.25420  0.01960  Biso   1.000  C
  H121     1.0000 0.77940  0.19870  0.97990  Biso   1.000  H
  H122     1.0000 0.77550  0.31040  0.97000  Biso   1.000  H
  C139     1.0000 0.94330  0.23560  0.61600  Biso   1.000  C
  H123     1.0000 0.95010  0.29790  0.64880  Biso   1.000  H
  C140     1.0000 0.89998  0.11400  0.57200  Biso   1.000  C
  H124     1.0000 0.87590  0.08900  0.57450  Biso   1.000  H
  C141     1.0000 0.92585  0.05610  0.52280  Biso   1.000  C
  H125     1.0000 0.91930  0.99260  0.49610  Biso   1.000  H
  C142     1.0000 0.97032  0.18030  0.56980  Biso   1.000  C
  H126     1.0000 0.99520  0.20400  0.57760  Biso   1.000  H
  C143     1.0000 0.96092  0.09140  0.51320  Biso   1.000  C
  C144     1.0000 0.98980  0.03240  0.44260  Biso   1.000  C
  H127     1.0000 0.00790  0.07520  0.41140  Biso   1.000  H
  H128     1.0000 0.97590  0.99560  0.36050  Biso   1.000  H
