data_image0
_cell_length_a       10.0524
_cell_length_b       12.5076
_cell_length_c       19.2083
_cell_angle_alpha    90.337
_cell_angle_beta     103.343
_cell_angle_gamma    99.926

_symmetry_space_group_name_H-M    "P 1"
_symmetry_int_tables_number       1

loop_
  _symmetry_equiv_pos_as_xyz
  'x, y, z'

loop_
  _atom_site_label
  _atom_site_occupancy
  _atom_site_fract_x
  _atom_site_fract_y
  _atom_site_fract_z
  _atom_site_thermal_displace_type
  _atom_site_B_iso_or_equiv
  _atom_site_type_symbol
  Ni1      1.0000 0.26404  0.22151  0.32137  Biso   1.000  Ni
  Ni2      1.0000 0.34251  0.30888  0.14792  Biso   1.000  Ni
  N1       1.0000 0.26700  0.77550  0.31410  Biso   1.000  N
  O1       1.0000 0.10220  0.10079  0.26317  Biso   1.000  O
  O2       1.0000 0.22780  0.21211  0.20715  Biso   1.000  O
  O3       1.0000 0.76420  0.76929  0.94883  Biso   1.000  O
  O4       1.0000 0.46030  0.39004  0.24404  Biso   1.000  O
  O5       1.0000 0.42200  0.34922  0.35214  Biso   1.000  O
  O6       1.0000 0.78310  0.84070  0.58724  Biso   1.000  O
  O7       1.0000 0.83580  0.86597  0.48204  Biso   1.000  O
  N2       1.0000 0.11960  0.32790  0.31703  Biso   1.000  N
  N3       1.0000 0.23910  0.66110  0.31230  Biso   1.000  N
  C1       1.0000 0.13110  0.12940  0.20564  Biso   1.000  C
  N4       1.0000 0.48030  0.19890  0.15378  Biso   1.000  N
  N5       1.0000 0.19640  0.41380  0.13514  Biso   1.000  N
  C2       1.0000 0.67310  0.65940  0.43147  Biso   1.000  C
  H1       1.0000 0.72190  0.69800  0.40120  Biso   1.000  H
  C3       1.0000 0.58640  0.55530  0.40465  Biso   1.000  C
  H2       1.0000 0.54000  0.51570  0.43550  Biso   1.000  H
  C4       1.0000 0.98840  0.28910  0.31790  Biso   1.000  C
  H3       1.0000 0.96100  0.21450  0.31990  Biso   1.000  H
  C5       1.0000 0.89190  0.35510  0.31590  Biso   1.000  C
  H4       1.0000 0.80090  0.32520  0.31650  Biso   1.000  H
  C6       1.0000 0.93010  0.46560  0.31300  Biso   1.000  C
  H5       1.0000 0.86570  0.51120  0.31170  Biso   1.000  H
  C7       1.0000 0.06490  0.50730  0.31210  Biso   1.000  C
  C8       1.0000 0.15570  0.43520  0.31400  Biso   1.000  C
  H6       1.0000 0.24710  0.46320  0.31310  Biso   1.000  H
  C9       1.0000 0.11570  0.62510  0.31230  Biso   1.000  C
  H7       1.0000 0.05470  0.67310  0.31240  Biso   1.000  H
  C10      1.0000 0.75380  0.74120  0.00865  Biso   1.000  C
  C11      1.0000 0.47710  0.40900  0.30939  Biso   1.000  C
  C12      1.0000 0.56940  0.51330  0.33923  Biso   1.000  C
  H8       1.0000 0.61910  0.55200  0.30940  Biso   1.000  H
  C13      1.0000 0.23560  0.52120  0.13940  Biso   1.000  C
  H9       1.0000 0.32990  0.55030  0.15280  Biso   1.000  H
  C14      1.0000 0.14050  0.59180  0.12450  Biso   1.000  C
  C15      1.0000 0.00200  0.54880  0.10670  Biso   1.000  C
  H10      1.0000 0.93630  0.59410  0.09790  Biso   1.000  H
  C16      1.0000 0.96060  0.43740  0.10180  Biso   1.000  C
  H11      1.0000 0.86690  0.40630  0.08930  Biso   1.000  H
  C17      1.0000 0.06110  0.37340  0.11580  Biso   1.000  C
  H12      1.0000 0.03320  0.29830  0.11150  Biso   1.000  H
  C18      1.0000 0.18950  0.71080  0.12810  Biso   1.000  C
  H13      1.0000 0.12750  0.75750  0.12980  Biso   1.000  H
  N6       1.0000 0.31220  0.74890  0.12880  Biso   1.000  N
  N7       1.0000 0.33850  0.86330  0.13250  Biso   1.000  N
  C19      1.0000 0.46440  0.89950  0.13530  Biso   1.000  C
  H14      1.0000 0.52410  0.85110  0.13290  Biso   1.000  H
  C20      1.0000 0.51940  0.01720  0.14240  Biso   1.000  C
  C21      1.0000 0.66000  0.05510  0.15070  Biso   1.000  C
  H15      1.0000 0.72060  0.00690  0.15000  Biso   1.000  H
  C22      1.0000 0.70840  0.16420  0.16000  Biso   1.000  C
  H16      1.0000 0.80250  0.19120  0.16530  Biso   1.000  H
  C23      1.0000 0.61720  0.23450  0.16160  Biso   1.000  C
  H17      1.0000 0.65150  0.30870  0.16820  Biso   1.000  H
  C24      1.0000 0.43420  0.09280  0.14370  Biso   1.000  C
  H18      1.0000 0.33930  0.06780  0.13720  Biso   1.000  H
  C25      1.0000 0.05940  0.06990  0.13698  Biso   1.000  C
  H19      1.0000 0.07070  0.09990  0.09410  Biso   1.000  H
  C26      1.0000 0.97970  0.97460  0.13617  Biso   1.000  C
  H20      1.0000 0.96920  0.94770  0.18000  Biso   1.000  H
  C27      1.0000 0.90610  0.90790  0.07143  Biso   1.000  C
  H21      1.0000 0.91370  0.93470  0.02720  Biso   1.000  H
  C28      1.0000 0.83030  0.81250  0.07287  Biso   1.000  C
  H22      1.0000 0.82350  0.78690  0.11750  Biso   1.000  H
  O8       1.0000 0.68930  0.65160  0.02103  Biso   1.000  O
  N8       1.0000 0.40410  0.11220  0.32520  Biso   1.000  N
  C29      1.0000 0.53950  0.14690  0.32889  Biso   1.000  C
  H23      1.0000 0.57220  0.22130  0.33050  Biso   1.000  H
  C30      1.0000 0.63190  0.07770  0.33040  Biso   1.000  C
  H24      1.0000 0.72510  0.10530  0.33320  Biso   1.000  H
  C31      1.0000 0.58590  0.96760  0.32780  Biso   1.000  C
  H25      1.0000 0.64760  0.91960  0.32940  Biso   1.000  H
  C32      1.0000 0.44680  0.92930  0.32260  Biso   1.000  C
  C33      1.0000 0.35880  0.00440  0.32235  Biso   1.000  C
  H26      1.0000 0.26530  0.97890  0.32010  Biso   1.000  H
  C34      1.0000 0.39270  0.81210  0.31760  Biso   1.000  C
  H27      1.0000 0.45320  0.76380  0.31700  Biso   1.000  H
  C35      1.0000 0.77510  0.80990  0.52317  Biso   1.000  C
  C36      1.0000 0.68690  0.70270  0.49676  Biso   1.000  C
  H28      1.0000 0.63900  0.66400  0.52740  Biso   1.000  H
  N9       1.0000 0.14040  0.89060  0.49409  Biso   1.000  N
  C37      1.0000 0.10090  0.78340  0.49590  Biso   1.000  C
  H29      1.0000 0.00910  0.75690  0.49700  Biso   1.000  H
  C38      1.0000 0.18870  0.70940  0.49620  Biso   1.000  C
  C39      1.0000 0.32400  0.74780  0.49410  Biso   1.000  C
  H30      1.0000 0.38580  0.70030  0.49450  Biso   1.000  H
  C40      1.0000 0.36650  0.85820  0.49130  Biso   1.000  C
  H31      1.0000 0.45740  0.88650  0.48940  Biso   1.000  H
  C41      1.0000 0.27250  0.92570  0.49120  Biso   1.000  C
  H32      1.0000 0.30220  0.99990  0.48900  Biso   1.000  H
  C42      1.0000 0.13760  0.59290  0.49680  Biso   1.000  C
  H33      1.0000 0.19710  0.54420  0.49490  Biso   1.000  H
  N10      1.0000 0.01400  0.55750  0.49970  Biso   1.000  N
  Ni3      1.0000 0.73596  0.77849  0.67863  Biso   1.000  Ni
  Ni4      1.0000 0.65749  0.69112  0.85208  Biso   1.000  Ni
  N11      1.0000 0.73300  0.22450  0.68590  Biso   1.000  N
  O9       1.0000 0.89780  0.89921  0.73683  Biso   1.000  O
  O10      1.0000 0.77220  0.78789  0.79285  Biso   1.000  O
  O11      1.0000 0.23580  0.23071  0.05117  Biso   1.000  O
  O12      1.0000 0.53970  0.60996  0.75596  Biso   1.000  O
  O13      1.0000 0.57800  0.65078  0.64786  Biso   1.000  O
  O14      1.0000 0.21690  0.15930  0.41276  Biso   1.000  O
  O15      1.0000 0.16420  0.13403  0.51796  Biso   1.000  O
  N12      1.0000 0.88040  0.67210  0.68297  Biso   1.000  N
  N13      1.0000 0.76090  0.33890  0.68770  Biso   1.000  N
  C43      1.0000 0.86890  0.87060  0.79436  Biso   1.000  C
  N14      1.0000 0.51970  0.80110  0.84622  Biso   1.000  N
  N15      1.0000 0.80360  0.58620  0.86486  Biso   1.000  N
  C44      1.0000 0.32690  0.34060  0.56853  Biso   1.000  C
  H34      1.0000 0.27810  0.30200  0.59880  Biso   1.000  H
  C45      1.0000 0.41360  0.44470  0.59535  Biso   1.000  C
  H35      1.0000 0.46000  0.48430  0.56450  Biso   1.000  H
  C46      1.0000 0.01160  0.71090  0.68210  Biso   1.000  C
  H36      1.0000 0.03900  0.78550  0.68010  Biso   1.000  H
  C47      1.0000 0.10810  0.64490  0.68410  Biso   1.000  C
  H37      1.0000 0.19910  0.67480  0.68350  Biso   1.000  H
  C48      1.0000 0.06990  0.53440  0.68700  Biso   1.000  C
  H38      1.0000 0.13430  0.48880  0.68830  Biso   1.000  H
  C49      1.0000 0.93510  0.49270  0.68790  Biso   1.000  C
  C50      1.0000 0.84430  0.56480  0.68600  Biso   1.000  C
  H39      1.0000 0.75290  0.53680  0.68690  Biso   1.000  H
  C51      1.0000 0.88430  0.37490  0.68770  Biso   1.000  C
  H40      1.0000 0.94530  0.32690  0.68760  Biso   1.000  H
  C52      1.0000 0.24620  0.25880  0.99135  Biso   1.000  C
  C53      1.0000 0.52290  0.59100  0.69061  Biso   1.000  C
  C54      1.0000 0.43060  0.48670  0.66077  Biso   1.000  C
  H41      1.0000 0.38090  0.44800  0.69060  Biso   1.000  H
  C55      1.0000 0.76440  0.47880  0.86060  Biso   1.000  C
  H42      1.0000 0.67010  0.44970  0.84720  Biso   1.000  H
  C56      1.0000 0.85950  0.40820  0.87550  Biso   1.000  C
  C57      1.0000 0.99800  0.45120  0.89330  Biso   1.000  C
  H43      1.0000 0.06370  0.40590  0.90210  Biso   1.000  H
  C58      1.0000 0.03940  0.56260  0.89820  Biso   1.000  C
  H44      1.0000 0.13310  0.59370  0.91070  Biso   1.000  H
  C59      1.0000 0.93890  0.62660  0.88420  Biso   1.000  C
  H45      1.0000 0.96680  0.70170  0.88850  Biso   1.000  H
  C60      1.0000 0.81050  0.28920  0.87190  Biso   1.000  C
  H46      1.0000 0.87250  0.24250  0.87020  Biso   1.000  H
  N16      1.0000 0.68780  0.25110  0.87120  Biso   1.000  N
  N17      1.0000 0.66150  0.13670  0.86750  Biso   1.000  N
  C61      1.0000 0.53560  0.10050  0.86470  Biso   1.000  C
  H47      1.0000 0.47590  0.14890  0.86710  Biso   1.000  H
  C62      1.0000 0.48060  0.98280  0.85760  Biso   1.000  C
  C63      1.0000 0.34000  0.94490  0.84930  Biso   1.000  C
  H48      1.0000 0.27940  0.99310  0.85000  Biso   1.000  H
  C64      1.0000 0.29160  0.83580  0.84000  Biso   1.000  C
  H49      1.0000 0.19750  0.80880  0.83470  Biso   1.000  H
  C65      1.0000 0.38280  0.76550  0.83840  Biso   1.000  C
  H50      1.0000 0.34850  0.69130  0.83180  Biso   1.000  H
  C66      1.0000 0.56580  0.90720  0.85630  Biso   1.000  C
  H51      1.0000 0.66070  0.93220  0.86280  Biso   1.000  H
  C67      1.0000 0.94060  0.93010  0.86302  Biso   1.000  C
  H52      1.0000 0.92930  0.90010  0.90590  Biso   1.000  H
  C68      1.0000 0.02030  0.02540  0.86383  Biso   1.000  C
  H53      1.0000 0.03080  0.05230  0.82000  Biso   1.000  H
  C69      1.0000 0.09390  0.09210  0.92857  Biso   1.000  C
  H54      1.0000 0.08630  0.06530  0.97280  Biso   1.000  H
  C70      1.0000 0.16970  0.18750  0.92713  Biso   1.000  C
  H55      1.0000 0.17650  0.21310  0.88250  Biso   1.000  H
  O16      1.0000 0.31070  0.34840  0.97897  Biso   1.000  O
  N18      1.0000 0.59590  0.88780  0.67480  Biso   1.000  N
  C71      1.0000 0.46050  0.85310  0.67111  Biso   1.000  C
  H56      1.0000 0.42780  0.77870  0.66950  Biso   1.000  H
  C72      1.0000 0.36810  0.92230  0.66960  Biso   1.000  C
  H57      1.0000 0.27490  0.89470  0.66680  Biso   1.000  H
  C73      1.0000 0.41410  0.03240  0.67220  Biso   1.000  C
  H58      1.0000 0.35240  0.08040  0.67060  Biso   1.000  H
  C74      1.0000 0.55320  0.07070  0.67740  Biso   1.000  C
  C75      1.0000 0.64120  0.99560  0.67765  Biso   1.000  C
  H59      1.0000 0.73470  0.02110  0.67990  Biso   1.000  H
  C76      1.0000 0.60730  0.18790  0.68240  Biso   1.000  C
  H60      1.0000 0.54680  0.23620  0.68300  Biso   1.000  H
  C77      1.0000 0.22490  0.19010  0.47683  Biso   1.000  C
  C78      1.0000 0.31310  0.29730  0.50324  Biso   1.000  C
  H61      1.0000 0.36100  0.33600  0.47260  Biso   1.000  H
  N19      1.0000 0.85960  0.10940  0.50591  Biso   1.000  N
  C79      1.0000 0.89910  0.21660  0.50410  Biso   1.000  C
  H62      1.0000 0.99090  0.24310  0.50300  Biso   1.000  H
  C80      1.0000 0.81130  0.29060  0.50380  Biso   1.000  C
  C81      1.0000 0.67600  0.25220  0.50590  Biso   1.000  C
  H63      1.0000 0.61420  0.29970  0.50550  Biso   1.000  H
  C82      1.0000 0.63350  0.14180  0.50870  Biso   1.000  C
  H64      1.0000 0.54260  0.11350  0.51060  Biso   1.000  H
  C83      1.0000 0.72750  0.07430  0.50880  Biso   1.000  C
  H65      1.0000 0.69780  0.00010  0.51100  Biso   1.000  H
  C84      1.0000 0.86240  0.40710  0.50320  Biso   1.000  C
  H66      1.0000 0.80290  0.45580  0.50510  Biso   1.000  H
  N20      1.0000 0.98600  0.44250  0.50030  Biso   1.000  N
  Ni5      1.0000 0.00000  0.00000  0.50000  Biso   1.000  Ni
