data_image0
_cell_length_a       10.8722
_cell_length_b       10.8722
_cell_length_c       8.9098
_cell_angle_alpha    90
_cell_angle_beta     90
_cell_angle_gamma    90

_symmetry_space_group_name_H-M    "P 1"
_symmetry_int_tables_number       1

loop_
  _symmetry_equiv_pos_as_xyz
  'x, y, z'

loop_
  _atom_site_label
  _atom_site_occupancy
  _atom_site_fract_x
  _atom_site_fract_y
  _atom_site_fract_z
  _atom_site_thermal_displace_type
  _atom_site_B_iso_or_equiv
  _atom_site_type_symbol
  Ni1      1.0000 0.10031  0.89726  0.09935  Biso   1.000  Ni
  Ni2      1.0000 0.44291  0.61527  0.92192  Biso   1.000  Ni
  F1       1.0000 0.09810  0.08310  0.12290  Biso   1.000  F
  F2       1.0000 0.09510  0.91480  0.32740  Biso   1.000  F
  F3       1.0000 0.40510  0.43450  0.95050  Biso   1.000  F
  F4       1.0000 0.44050  0.61990  0.14980  Biso   1.000  F
  S1       1.0000 0.16034  0.60755  0.03200  Biso   1.000  S
  O1       1.0000 0.10570  0.70830  0.12120  Biso   1.000  O
  O2       1.0000 0.26130  0.65910  0.93850  Biso   1.000  O
  O3       1.0000 0.20710  0.51260  0.13630  Biso   1.000  O
  O4       1.0000 0.06600  0.55400  0.93530  Biso   1.000  O
  Ni3      1.0000 0.89969  0.10274  0.59935  Biso   1.000  Ni
  Ni4      1.0000 0.55709  0.38473  0.42192  Biso   1.000  Ni
  F5       1.0000 0.90190  0.91690  0.62290  Biso   1.000  F
  F6       1.0000 0.90490  0.08520  0.82740  Biso   1.000  F
  F7       1.0000 0.59490  0.56550  0.45050  Biso   1.000  F
  F8       1.0000 0.55950  0.38010  0.64980  Biso   1.000  F
  S2       1.0000 0.83966  0.39245  0.53200  Biso   1.000  S
  O5       1.0000 0.89430  0.29170  0.62120  Biso   1.000  O
  O6       1.0000 0.73870  0.34090  0.43850  Biso   1.000  O
  O7       1.0000 0.79290  0.48740  0.63630  Biso   1.000  O
  O8       1.0000 0.93400  0.44600  0.43530  Biso   1.000  O
  Ni5      1.0000 0.10274  0.10031  0.34935  Biso   1.000  Ni
  Ni6      1.0000 0.38473  0.44291  0.17192  Biso   1.000  Ni
  F9       1.0000 0.91690  0.09810  0.37290  Biso   1.000  F
  F10      1.0000 0.08520  0.09510  0.57740  Biso   1.000  F
  F11      1.0000 0.56550  0.40510  0.20050  Biso   1.000  F
  F12      1.0000 0.38010  0.44050  0.39980  Biso   1.000  F
  S3       1.0000 0.39245  0.16034  0.28200  Biso   1.000  S
  O9       1.0000 0.29170  0.10570  0.37120  Biso   1.000  O
  O10      1.0000 0.34090  0.26130  0.18850  Biso   1.000  O
  O11      1.0000 0.48740  0.20710  0.38630  Biso   1.000  O
  O12      1.0000 0.44600  0.06600  0.18530  Biso   1.000  O
  Ni7      1.0000 0.89726  0.89969  0.84935  Biso   1.000  Ni
  Ni8      1.0000 0.61527  0.55709  0.67192  Biso   1.000  Ni
  F13      1.0000 0.08310  0.90190  0.87290  Biso   1.000  F
  F14      1.0000 0.91480  0.90490  0.07740  Biso   1.000  F
  F15      1.0000 0.43450  0.59490  0.70050  Biso   1.000  F
  F16      1.0000 0.61990  0.55950  0.89980  Biso   1.000  F
  S4       1.0000 0.60755  0.83966  0.78200  Biso   1.000  S
  O13      1.0000 0.70830  0.89430  0.87120  Biso   1.000  O
  O14      1.0000 0.65910  0.73870  0.68850  Biso   1.000  O
  O15      1.0000 0.51260  0.79290  0.88630  Biso   1.000  O
  O16      1.0000 0.55400  0.93400  0.68530  Biso   1.000  O
