data_AYUWUM_clean
_audit_creation_date              2014-07-02
_audit_creation_method            'Materials Studio'
_symmetry_space_group_name_H-M    'P1'
_symmetry_Int_Tables_number       1
_symmetry_cell_setting            triclinic
loop_
_symmetry_equiv_pos_as_xyz
  x,y,z
_cell_length_a                    9.9980
_cell_length_b                    16.2160
_cell_length_c                    16.6630
_cell_angle_alpha                 94.8990
_cell_angle_beta                  102.4100
_cell_angle_gamma                 96.1010
loop_
_atom_site_label
_atom_site_type_symbol
_atom_site_fract_x
_atom_site_fract_y
_atom_site_fract_z
_atom_site_U_iso_or_equiv
_atom_site_adp_type
_atom_site_occupancy
Na1    Na    0.11060   0.94620   0.45250   0.01267  Uiso   1.00
Na2    Na    0.47270   0.10400   0.54180   0.01267  Uiso   1.00
Na3    Na    0.25200   0.15610   0.86320   0.01267  Uiso   1.00
Na4    Na    0.88940   0.05380   0.54750   0.01267  Uiso   1.00
Na5    Na    0.52730   0.89600   0.45820   0.01267  Uiso   1.00
Na6    Na    0.74800   0.84390   0.13680   0.01267  Uiso   1.00
H1     H     0.71700   0.50160   0.15670   0.01267  Uiso   1.00
H2     H     0.34420   0.58550   0.15320   0.01267  Uiso   1.00
H3     H     0.94150   0.24610   0.23390   0.01267  Uiso   1.00
H4     H     0.11840   0.48340   0.20580   0.01267  Uiso   1.00
H5     H     0.28870   0.94890   0.11710   0.01267  Uiso   1.00
H6     H     0.95990   0.04220   0.18250   0.01267  Uiso   1.00
H7     H     0.50420   0.04330   0.17090   0.01267  Uiso   1.00
H8     H     0.71330   0.28740   0.20810   0.01267  Uiso   1.00
H9     H     0.93610   0.50760   0.28140   0.01267  Uiso   1.00
H10    H     0.83890   0.43850   0.30680   0.01267  Uiso   1.00
H11    H     0.95420   0.50230   0.38730   0.01267  Uiso   1.00
H12    H     0.16580   0.49200   0.41380   0.01267  Uiso   1.00
H13    H     0.24920   0.42790   0.38090   0.01267  Uiso   1.00
H14    H     0.20660   0.50100   0.33090   0.01267  Uiso   1.00
H15    H     0.92130   0.31310   0.35930   0.01267  Uiso   1.00
H16    H     0.02620   0.37620   0.44050   0.01267  Uiso   1.00
H17    H     0.07690   0.30230   0.37850   0.01267  Uiso   1.00
H18    H     0.84380   0.25730   0.90500   0.01267  Uiso   1.00
H19    H     0.87910   0.35760   0.93840   0.01267  Uiso   1.00
H20    H     0.12620   0.33410   0.81170   0.01267  Uiso   1.00
H21    H     0.26210   0.35270   0.98070   0.01267  Uiso   1.00
H22    H     0.07040   0.18750   0.98570   0.01267  Uiso   1.00
H23    H     0.48130   0.26060   0.95890   0.01267  Uiso   1.00
H24    H     0.89470   0.88180   0.54790   0.01267  Uiso   1.00
H25    H     0.03670   0.91390   0.61190   0.01267  Uiso   1.00
H26    H     0.29000   0.00210   0.60290   0.01267  Uiso   1.00
H27    H     0.22330   0.06610   0.58570   0.01267  Uiso   1.00
H28    H     0.35730   0.00520   0.37530   0.01267  Uiso   1.00
H29    H     0.47100   0.04910   0.37390   0.01267  Uiso   1.00
H30    H     0.26260   0.80270   0.44700   0.01267  Uiso   1.00
H31    H     0.29380   0.82070   0.53020   0.01267  Uiso   1.00
H32    H     0.28300   0.49840   0.84330   0.01267  Uiso   1.00
H33    H     0.65580   0.41450   0.84680   0.01267  Uiso   1.00
H34    H     0.05850   0.75390   0.76610   0.01267  Uiso   1.00
H35    H     0.88160   0.51660   0.79420   0.01267  Uiso   1.00
H36    H     0.71130   0.05110   0.88290   0.01267  Uiso   1.00
H37    H     0.04010   0.95780   0.81750   0.01267  Uiso   1.00
H38    H     0.49580   0.95670   0.82910   0.01267  Uiso   1.00
H39    H     0.28670   0.71260   0.79190   0.01267  Uiso   1.00
H40    H     0.06390   0.49240   0.71860   0.01267  Uiso   1.00
H41    H     0.16110   0.56150   0.69320   0.01267  Uiso   1.00
H42    H     0.04580   0.49770   0.61270   0.01267  Uiso   1.00
H43    H     0.83420   0.50800   0.58620   0.01267  Uiso   1.00
H44    H     0.75080   0.57210   0.61910   0.01267  Uiso   1.00
H45    H     0.79340   0.49900   0.66910   0.01267  Uiso   1.00
H46    H     0.07870   0.68690   0.64070   0.01267  Uiso   1.00
H47    H     0.97380   0.62380   0.55950   0.01267  Uiso   1.00
H48    H     0.92310   0.69770   0.62150   0.01267  Uiso   1.00
H49    H     0.15620   0.74270   0.09500   0.01267  Uiso   1.00
H50    H     0.12090   0.64240   0.06160   0.01267  Uiso   1.00
H51    H     0.87380   0.66590   0.18830   0.01267  Uiso   1.00
H52    H     0.73790   0.64730   0.01930   0.01267  Uiso   1.00
H53    H     0.92960   0.81250   0.01430   0.01267  Uiso   1.00
H54    H     0.51870   0.73940   0.04110   0.01267  Uiso   1.00
H55    H     0.10530   0.11820   0.45210   0.01267  Uiso   1.00
H56    H     0.96330   0.08610   0.38810   0.01267  Uiso   1.00
H57    H     0.71000   0.99790   0.39710   0.01267  Uiso   1.00
H58    H     0.77670   0.93390   0.41430   0.01267  Uiso   1.00
H59    H     0.64270   0.99480   0.62470   0.01267  Uiso   1.00
H60    H     0.52900   0.95090   0.62610   0.01267  Uiso   1.00
H61    H     0.73740   0.19730   0.55300   0.01267  Uiso   1.00
H62    H     0.70620   0.17930   0.46980   0.01267  Uiso   1.00
C1     C     0.40610   0.41640   0.05790   0.01267  Uiso   1.00
C2     C     0.54910   0.42520   0.08800   0.01267  Uiso   1.00
C3     C     0.61610   0.49640   0.14040   0.01267  Uiso   1.00
C4     C     0.53960   0.55770   0.16300   0.01267  Uiso   1.00
C5     C     0.39800   0.54880   0.13460   0.01267  Uiso   1.00
C6     C     0.33030   0.47860   0.08130   0.01267  Uiso   1.00
C7     C     0.03000   0.31960   0.07010   0.01267  Uiso   1.00
C8     C     0.98270   0.26510   0.12120   0.01267  Uiso   1.00
C9     C     0.99080   0.29260   0.20390   0.01267  Uiso   1.00
C10    C     0.03990   0.37560   0.23590   0.01267  Uiso   1.00
C11    C     0.08560   0.42870   0.18350   0.01267  Uiso   1.00
C12    C     0.08420   0.40140   0.10210   0.01267  Uiso   1.00
C13    C     0.12690   0.09490   0.04560   0.01267  Uiso   1.00
C14    C     0.22250   0.03770   0.05790   0.01267  Uiso   1.00
C15    C     0.21480   0.97980   0.11460   0.01267  Uiso   1.00
C16    C     0.11580   0.98110   0.16070   0.01267  Uiso   1.00
C17    C     0.02330   0.03990   0.15140   0.01267  Uiso   1.00
C18    C     0.02830   0.09640   0.09460   0.01267  Uiso   1.00
C19    C     0.51200   0.19440   0.03760   0.01267  Uiso   1.00
C20    C     0.47530   0.11860   0.06630   0.01267  Uiso   1.00
C21    C     0.53250   0.10460   0.14680   0.01267  Uiso   1.00
C22    C     0.62260   0.16670   0.19940   0.01267  Uiso   1.00
C23    C     0.65470   0.24370   0.17270   0.01267  Uiso   1.00
C24    C     0.59990   0.25740   0.09180   0.01267  Uiso   1.00
C25    C     0.92030   0.30880   0.92630   0.01267  Uiso   1.00
C26    C     0.97200   0.32930   0.85130   0.01267  Uiso   1.00
C27    C     0.04070   0.41000   0.32460   0.01267  Uiso   1.00
C28    C     0.92960   0.46790   0.32080   0.01267  Uiso   1.00
C29    C     0.17800   0.46180   0.36630   0.01267  Uiso   1.00
C30    C     0.01200   0.34240   0.37810   0.01267  Uiso   1.00
C31    C     0.59390   0.58360   0.94210   0.01267  Uiso   1.00
C32    C     0.45090   0.57480   0.91200   0.01267  Uiso   1.00
C33    C     0.38390   0.50360   0.85960   0.01267  Uiso   1.00
C34    C     0.46040   0.44230   0.83700   0.01267  Uiso   1.00
C35    C     0.60200   0.45120   0.86540   0.01267  Uiso   1.00
C36    C     0.66970   0.52140   0.91870   0.01267  Uiso   1.00
C37    C     0.97000   0.68040   0.92990   0.01267  Uiso   1.00
C38    C     0.01730   0.73490   0.87880   0.01267  Uiso   1.00
C39    C     0.00920   0.70740   0.79610   0.01267  Uiso   1.00
C40    C     0.96010   0.62440   0.76410   0.01267  Uiso   1.00
C41    C     0.91440   0.57130   0.81650   0.01267  Uiso   1.00
C42    C     0.91580   0.59860   0.89790   0.01267  Uiso   1.00
C43    C     0.87310   0.90510   0.95440   0.01267  Uiso   1.00
C44    C     0.77750   0.96230   0.94210   0.01267  Uiso   1.00
C45    C     0.78520   0.02020   0.88540   0.01267  Uiso   1.00
C46    C     0.88420   0.01890   0.83930   0.01267  Uiso   1.00
C47    C     0.97670   0.96010   0.84860   0.01267  Uiso   1.00
C48    C     0.97170   0.90360   0.90540   0.01267  Uiso   1.00
C49    C     0.48800   0.80560   0.96240   0.01267  Uiso   1.00
C50    C     0.52470   0.88140   0.93370   0.01267  Uiso   1.00
C51    C     0.46750   0.89540   0.85320   0.01267  Uiso   1.00
C52    C     0.37740   0.83330   0.80060   0.01267  Uiso   1.00
C53    C     0.34530   0.75630   0.82730   0.01267  Uiso   1.00
C54    C     0.40010   0.74260   0.90820   0.01267  Uiso   1.00
C55    C     0.07970   0.69120   0.07370   0.01267  Uiso   1.00
C56    C     0.02800   0.67070   0.14870   0.01267  Uiso   1.00
C57    C     0.95930   0.59000   0.67540   0.01267  Uiso   1.00
C58    C     0.07040   0.53210   0.67920   0.01267  Uiso   1.00
C59    C     0.82200   0.53820   0.63370   0.01267  Uiso   1.00
C60    C     0.98800   0.65760   0.62190   0.01267  Uiso   1.00
S1     S     0.15080   0.47049   0.03755   0.01267  Uiso   1.00
S2     S     0.89670   0.16352   0.07665   0.01267  Uiso   1.00
S3     S     0.35390   0.03806   0.00084   0.01267  Uiso   1.00
S4     S     0.65310   0.35281   0.05419   0.01267  Uiso   1.00
S5     S     0.10900   0.90879   0.23485   0.01267  Uiso   1.00
S6     S     0.70300   0.14630   0.30027   0.01267  Uiso   1.00
S7     S     0.62330   0.65032   0.22691   0.01267  Uiso   1.00
S8     S     0.84920   0.52951   0.96245   0.01267  Uiso   1.00
S9     S     0.10330   0.83648   0.92335   0.01267  Uiso   1.00
S10    S     0.64610   0.96194   0.99916   0.01267  Uiso   1.00
S11    S     0.34690   0.64719   0.94581   0.01267  Uiso   1.00
S12    S     0.89100   0.09121   0.76515   0.01267  Uiso   1.00
S13    S     0.29700   0.85370   0.69973   0.01267  Uiso   1.00
S14    S     0.37670   0.34968   0.77309   0.01267  Uiso   1.00
O1     O     0.34630   0.34760   0.00680   0.01267  Uiso   1.00
O2     O     0.03190   0.29100   0.98990   0.01267  Uiso   1.00
O3     O     0.13760   0.14800   0.98850   0.01267  Uiso   1.00
O4     O     0.46190   0.20250   0.95690   0.01267  Uiso   1.00
O5     O     0.89810   0.35420   0.79360   0.01267  Uiso   1.00
O6     O     0.10150   0.31740   0.85550   0.01267  Uiso   1.00
O7     O     0.96380   0.87560   0.22150   0.01267  Uiso   1.00
O8     O     0.16020   0.95550   0.31650   0.01267  Uiso   1.00
O9     O     0.19470   0.84630   0.21690   0.01267  Uiso   1.00
O10    O     0.62520   0.06830   0.31340   0.01267  Uiso   1.00
O11    O     0.68900   0.21570   0.35640   0.01267  Uiso   1.00
O12    O     0.84440   0.13560   0.29830   0.01267  Uiso   1.00
O13    O     0.76620   0.63470   0.25720   0.01267  Uiso   1.00
O14    O     0.55080   0.66150   0.29220   0.01267  Uiso   1.00
O15    O     0.61520   0.71700   0.17440   0.01267  Uiso   1.00
O16    O     0.97580   0.91820   0.56220   0.01267  Uiso   1.00
O17    O     0.26490   0.03170   0.56430   0.01267  Uiso   1.00
O18    O     0.43020   0.02290   0.40730   0.01267  Uiso   1.00
O19    O     0.29220   0.84800   0.47990   0.01267  Uiso   1.00
O20    O     0.65370   0.65240   0.99320   0.01267  Uiso   1.00
O21    O     0.96810   0.70900   0.01010   0.01267  Uiso   1.00
O22    O     0.86240   0.85200   0.01150   0.01267  Uiso   1.00
O23    O     0.53810   0.79750   0.04310   0.01267  Uiso   1.00
O24    O     0.10190   0.64580   0.20640   0.01267  Uiso   1.00
O25    O     0.89850   0.68260   0.14450   0.01267  Uiso   1.00
O26    O     0.03620   0.12440   0.77850   0.01267  Uiso   1.00
O27    O     0.83980   0.04450   0.68350   0.01267  Uiso   1.00
O28    O     0.80530   0.15370   0.78310   0.01267  Uiso   1.00
O29    O     0.37480   0.93170   0.68660   0.01267  Uiso   1.00
O30    O     0.31100   0.78430   0.64360   0.01267  Uiso   1.00
O31    O     0.15560   0.86440   0.70170   0.01267  Uiso   1.00
O32    O     0.23380   0.36530   0.74280   0.01267  Uiso   1.00
O33    O     0.44920   0.33850   0.70780   0.01267  Uiso   1.00
O34    O     0.38480   0.28300   0.82560   0.01267  Uiso   1.00
O35    O     0.02420   0.08180   0.43780   0.01267  Uiso   1.00
O36    O     0.73510   0.96830   0.43570   0.01267  Uiso   1.00
O37    O     0.56980   0.97710   0.59270   0.01267  Uiso   1.00
O38    O     0.70780   0.15200   0.52010   0.01267  Uiso   1.00
