data_image0
_cell_length_a       11.8582
_cell_length_b       28.064
_cell_length_c       16.7331
_cell_angle_alpha    90
_cell_angle_beta     96.876
_cell_angle_gamma    90

_symmetry_space_group_name_H-M    "P 1"
_symmetry_int_tables_number       1

loop_
  _symmetry_equiv_pos_as_xyz
  'x, y, z'

loop_
  _atom_site_label
  _atom_site_occupancy
  _atom_site_fract_x
  _atom_site_fract_y
  _atom_site_fract_z
  _atom_site_thermal_displace_type
  _atom_site_B_iso_or_equiv
  _atom_site_type_symbol
  Mg1      1.0000 0.42380  0.31274  0.01240  Biso   1.000  Mg
  Mg2      1.0000 0.37410  0.81689  0.49070  Biso   1.000  Mg
  O1       1.0000 0.36260  0.32940  0.90020  Biso   1.000  O
  O2       1.0000 0.17640  0.33650  0.90220  Biso   1.000  O
  O3       1.0000 0.27960  0.62380  0.88350  Biso   1.000  O
  H1       1.0000 0.25700  0.63900  0.92300  Biso   1.000  H
  O4       1.0000 0.11420  0.58950  0.89440  Biso   1.000  O
  O5       1.0000 0.31840  0.74850  0.48700  Biso   1.000  O
  O6       1.0000 0.13230  0.74440  0.49280  Biso   1.000  O
  O7       1.0000 0.37100  0.58630  0.08540  Biso   1.000  O
  O8       1.0000 0.20740  0.62010  0.10050  Biso   1.000  O
  H2       1.0000 0.22500  0.63750  0.06200  Biso   1.000  H
  O9       1.0000 0.44140  0.31790  0.13930  Biso   1.000  O
  O10      1.0000 0.27720  0.33930  0.07400  Biso   1.000  O
  O11      1.0000 0.26890  0.18730  0.51130  Biso   1.000  O
  O12      1.0000 0.08460  0.20110  0.49300  Biso   1.000  O
  C1       1.0000 0.24660  0.44420  0.56760  Biso   1.000  C
  C2       1.0000 0.24530  0.49420  0.56470  Biso   1.000  C
  C3       1.0000 0.25180  0.51860  0.49270  Biso   1.000  C
  C4       1.0000 0.26070  0.49330  0.42180  Biso   1.000  C
  C5       1.0000 0.26380  0.44300  0.42370  Biso   1.000  C
  C6       1.0000 0.25440  0.41970  0.49580  Biso   1.000  C
  C7       1.0000 0.24730  0.41850  0.64570  Biso   1.000  C
  C8       1.0000 0.34390  0.41750  0.69880  Biso   1.000  C
  H3       1.0000 0.40730  0.43420  0.68650  Biso   1.000  H
  C9       1.0000 0.35050  0.39250  0.76970  Biso   1.000  C
  H4       1.0000 0.41870  0.39170  0.80350  Biso   1.000  H
  C10      1.0000 0.25700  0.36850  0.79150  Biso   1.000  C
  C11      1.0000 0.15760  0.37010  0.73780  Biso   1.000  C
  H5       1.0000 0.09280  0.35480  0.75100  Biso   1.000  H
  C12      1.0000 0.15360  0.39370  0.66640  Biso   1.000  C
  H6       1.0000 0.08700  0.39320  0.63090  Biso   1.000  H
  C13      1.0000 0.23490  0.52070  0.64080  Biso   1.000  C
  C14      1.0000 0.31840  0.55070  0.67600  Biso   1.000  C
  H7       1.0000 0.38320  0.55540  0.65060  Biso   1.000  H
  C15      1.0000 0.30950  0.57400  0.74730  Biso   1.000  C
  H8       1.0000 0.36880  0.59300  0.77050  Biso   1.000  H
  C16      1.0000 0.21230  0.56910  0.78400  Biso   1.000  C
  C17      1.0000 0.12600  0.53990  0.75030  Biso   1.000  C
  H9       1.0000 0.06070  0.53600  0.77530  Biso   1.000  H
  C18      1.0000 0.13720  0.51650  0.67940  Biso   1.000  C
  H10      1.0000 0.07800  0.49740  0.65650  Biso   1.000  H
  C19      1.0000 0.24630  0.57230  0.49090  Biso   1.000  C
  C20      1.0000 0.34200  0.60000  0.48410  Biso   1.000  C
  H11      1.0000 0.41130  0.58530  0.47990  Biso   1.000  H
  C21      1.0000 0.33540  0.64890  0.48360  Biso   1.000  C
  H12      1.0000 0.40060  0.66660  0.47910  Biso   1.000  H
  C22      1.0000 0.23500  0.67240  0.48970  Biso   1.000  C
  C23      1.0000 0.14050  0.64570  0.49560  Biso   1.000  C
  H13      1.0000 0.07130  0.66090  0.49800  Biso   1.000  H
  C24      1.0000 0.14530  0.59590  0.49810  Biso   1.000  C
  H14      1.0000 0.08030  0.57860  0.50470  Biso   1.000  H
  C25      1.0000 0.26700  0.51890  0.34480  Biso   1.000  C
  C26      1.0000 0.36320  0.51510  0.30480  Biso   1.000  C
  H15      1.0000 0.42500  0.49720  0.32750  Biso   1.000  H
  C27      1.0000 0.36760  0.53740  0.23230  Biso   1.000  C
  H16      1.0000 0.43160  0.53360  0.20580  Biso   1.000  H
  C28      1.0000 0.27820  0.56580  0.19750  Biso   1.000  C
  C29      1.0000 0.18340  0.56950  0.23860  Biso   1.000  C
  H17      1.0000 0.12220  0.58820  0.21760  Biso   1.000  H
  C30      1.0000 0.17950  0.54580  0.30950  Biso   1.000  C
  H18      1.0000 0.11400  0.54830  0.33490  Biso   1.000  H
  C31      1.0000 0.28030  0.41510  0.35020  Biso   1.000  C
  C32      1.0000 0.37820  0.38890  0.34710  Biso   1.000  C
  H19      1.0000 0.43280  0.38850  0.39190  Biso   1.000  H
  C33      1.0000 0.39760  0.36320  0.27970  Biso   1.000  C
  H20      1.0000 0.46460  0.34600  0.27990  Biso   1.000  H
  C34      1.0000 0.31930  0.36290  0.21240  Biso   1.000  C
  C35      1.0000 0.22050  0.38860  0.21440  Biso   1.000  C
  H21      1.0000 0.16600  0.38870  0.16950  Biso   1.000  H
  C36      1.0000 0.20100  0.41420  0.28230  Biso   1.000  C
  H22      1.0000 0.13350  0.43110  0.28220  Biso   1.000  H
  C37      1.0000 0.24300  0.36580  0.49570  Biso   1.000  C
  C38      1.0000 0.32530  0.33600  0.53300  Biso   1.000  C
  H23      1.0000 0.39270  0.34850  0.55860  Biso   1.000  H
  C39      1.0000 0.30720  0.28720  0.53240  Biso   1.000  C
  H24      1.0000 0.36450  0.26720  0.55590  Biso   1.000  H
  C40      1.0000 0.20780  0.26760  0.49820  Biso   1.000  C
  C41      1.0000 0.12500  0.29760  0.46070  Biso   1.000  C
  H25      1.0000 0.05600  0.28520  0.43750  Biso   1.000  H
  C42      1.0000 0.14560  0.34650  0.45790  Biso   1.000  C
  H26      1.0000 0.09190  0.36620  0.42960  Biso   1.000  H
  C43      1.0000 0.26640  0.34270  0.87050  Biso   1.000  C
  C44      1.0000 0.19710  0.59470  0.85970  Biso   1.000  C
  C45      1.0000 0.22800  0.72620  0.49010  Biso   1.000  C
  C46      1.0000 0.28940  0.59030  0.12080  Biso   1.000  C
  C47      1.0000 0.34650  0.33760  0.13820  Biso   1.000  C
  C48      1.0000 0.18510  0.21540  0.50160  Biso   1.000  C
  Mg3      1.0000 0.07620  0.81274  0.48760  Biso   1.000  Mg
  Mg4      1.0000 0.12590  0.31689  0.00930  Biso   1.000  Mg
  O13      1.0000 0.13740  0.82940  0.59980  Biso   1.000  O
  O14      1.0000 0.32360  0.83650  0.59780  Biso   1.000  O
  O15      1.0000 0.22040  0.12380  0.61650  Biso   1.000  O
  H27      1.0000 0.24300  0.13900  0.57700  Biso   1.000  H
  O16      1.0000 0.38580  0.08950  0.60560  Biso   1.000  O
  O17      1.0000 0.18160  0.24850  0.01300  Biso   1.000  O
  O18      1.0000 0.36770  0.24440  0.00720  Biso   1.000  O
  O19      1.0000 0.12900  0.08630  0.41460  Biso   1.000  O
  O20      1.0000 0.29260  0.12010  0.39950  Biso   1.000  O
  H28      1.0000 0.27500  0.13750  0.43800  Biso   1.000  H
  O21      1.0000 0.05860  0.81790  0.36070  Biso   1.000  O
  O22      1.0000 0.22280  0.83930  0.42600  Biso   1.000  O
  O23      1.0000 0.23110  0.68730  0.98870  Biso   1.000  O
  O24      1.0000 0.41540  0.70110  0.00700  Biso   1.000  O
  C49      1.0000 0.25340  0.94420  0.93240  Biso   1.000  C
  C50      1.0000 0.25470  0.99420  0.93530  Biso   1.000  C
  C51      1.0000 0.24820  0.01860  0.00730  Biso   1.000  C
  C52      1.0000 0.23930  0.99330  0.07820  Biso   1.000  C
  C53      1.0000 0.23620  0.94300  0.07630  Biso   1.000  C
  C54      1.0000 0.24560  0.91970  0.00420  Biso   1.000  C
  C55      1.0000 0.25270  0.91850  0.85430  Biso   1.000  C
  C56      1.0000 0.15610  0.91750  0.80120  Biso   1.000  C
  H29      1.0000 0.09270  0.93420  0.81350  Biso   1.000  H
  C57      1.0000 0.14950  0.89250  0.73030  Biso   1.000  C
  H30      1.0000 0.08130  0.89170  0.69650  Biso   1.000  H
  C58      1.0000 0.24300  0.86850  0.70850  Biso   1.000  C
  C59      1.0000 0.34240  0.87010  0.76220  Biso   1.000  C
  H31      1.0000 0.40720  0.85480  0.74900  Biso   1.000  H
  C60      1.0000 0.34640  0.89370  0.83360  Biso   1.000  C
  H32      1.0000 0.41300  0.89320  0.86910  Biso   1.000  H
  C61      1.0000 0.26510  0.02070  0.85920  Biso   1.000  C
  C62      1.0000 0.18160  0.05070  0.82400  Biso   1.000  C
  H33      1.0000 0.11680  0.05540  0.84940  Biso   1.000  H
  C63      1.0000 0.19050  0.07400  0.75270  Biso   1.000  C
  H34      1.0000 0.13120  0.09300  0.72950  Biso   1.000  H
  C64      1.0000 0.28770  0.06910  0.71600  Biso   1.000  C
  C65      1.0000 0.37400  0.03990  0.74970  Biso   1.000  C
  H35      1.0000 0.43930  0.03600  0.72470  Biso   1.000  H
  C66      1.0000 0.36280  0.01650  0.82060  Biso   1.000  C
  H36      1.0000 0.42200  0.99740  0.84350  Biso   1.000  H
  C67      1.0000 0.25370  0.07230  0.00910  Biso   1.000  C
  C68      1.0000 0.15800  0.10000  0.01590  Biso   1.000  C
  H37      1.0000 0.08870  0.08530  0.02010  Biso   1.000  H
  C69      1.0000 0.16460  0.14890  0.01640  Biso   1.000  C
  H38      1.0000 0.09940  0.16660  0.02090  Biso   1.000  H
  C70      1.0000 0.26500  0.17240  0.01030  Biso   1.000  C
  C71      1.0000 0.35950  0.14570  0.00440  Biso   1.000  C
  H39      1.0000 0.42870  0.16090  0.00200  Biso   1.000  H
  C72      1.0000 0.35470  0.09590  0.00190  Biso   1.000  C
  H40      1.0000 0.41970  0.07860  0.99530  Biso   1.000  H
  C73      1.0000 0.23300  0.01890  0.15520  Biso   1.000  C
  C74      1.0000 0.13680  0.01510  0.19520  Biso   1.000  C
  H41      1.0000 0.07500  0.99720  0.17250  Biso   1.000  H
  C75      1.0000 0.13240  0.03740  0.26770  Biso   1.000  C
  H42      1.0000 0.06840  0.03360  0.29420  Biso   1.000  H
  C76      1.0000 0.22180  0.06580  0.30250  Biso   1.000  C
  C77      1.0000 0.31660  0.06950  0.26140  Biso   1.000  C
  H43      1.0000 0.37780  0.08820  0.28240  Biso   1.000  H
  C78      1.0000 0.32050  0.04580  0.19050  Biso   1.000  C
  H44      1.0000 0.38600  0.04830  0.16510  Biso   1.000  H
  C79      1.0000 0.21970  0.91510  0.14980  Biso   1.000  C
  C80      1.0000 0.12180  0.88890  0.15290  Biso   1.000  C
  H45      1.0000 0.06720  0.88850  0.10810  Biso   1.000  H
  C81      1.0000 0.10240  0.86320  0.22030  Biso   1.000  C
  H46      1.0000 0.03540  0.84600  0.22010  Biso   1.000  H
  C82      1.0000 0.18070  0.86290  0.28760  Biso   1.000  C
  C83      1.0000 0.27950  0.88860  0.28560  Biso   1.000  C
  H47      1.0000 0.33400  0.88870  0.33050  Biso   1.000  H
  C84      1.0000 0.29900  0.91420  0.21770  Biso   1.000  C
  H48      1.0000 0.36650  0.93110  0.21780  Biso   1.000  H
  C85      1.0000 0.25700  0.86580  0.00430  Biso   1.000  C
  C86      1.0000 0.17470  0.83600  0.96700  Biso   1.000  C
  H49      1.0000 0.10730  0.84850  0.94140  Biso   1.000  H
  C87      1.0000 0.19280  0.78720  0.96760  Biso   1.000  C
  H50      1.0000 0.13550  0.76720  0.94410  Biso   1.000  H
  C88      1.0000 0.29220  0.76760  0.00180  Biso   1.000  C
  C89      1.0000 0.37500  0.79760  0.03930  Biso   1.000  C
  H51      1.0000 0.44400  0.78520  0.06250  Biso   1.000  H
  C90      1.0000 0.35440  0.84650  0.04210  Biso   1.000  C
  H52      1.0000 0.40810  0.86620  0.07040  Biso   1.000  H
  C91      1.0000 0.23360  0.84270  0.62950  Biso   1.000  C
  C92      1.0000 0.30290  0.09470  0.64030  Biso   1.000  C
  C93      1.0000 0.27200  0.22620  0.00990  Biso   1.000  C
  C94      1.0000 0.21060  0.09030  0.37920  Biso   1.000  C
  C95      1.0000 0.15350  0.83760  0.36180  Biso   1.000  C
  C96      1.0000 0.31490  0.71540  0.99840  Biso   1.000  C
  Mg5      1.0000 0.57620  0.68726  0.98760  Biso   1.000  Mg
  Mg6      1.0000 0.62590  0.18311  0.50930  Biso   1.000  Mg
  O25      1.0000 0.63740  0.67060  0.09980  Biso   1.000  O
  O26      1.0000 0.82360  0.66350  0.09780  Biso   1.000  O
  O27      1.0000 0.72040  0.37620  0.11650  Biso   1.000  O
  H53      1.0000 0.74300  0.36100  0.07700  Biso   1.000  H
  O28      1.0000 0.88580  0.41050  0.10560  Biso   1.000  O
  O29      1.0000 0.68160  0.25150  0.51300  Biso   1.000  O
  O30      1.0000 0.86770  0.25560  0.50720  Biso   1.000  O
  O31      1.0000 0.62900  0.41370  0.91460  Biso   1.000  O
  O32      1.0000 0.79260  0.37990  0.89950  Biso   1.000  O
  H54      1.0000 0.77500  0.36250  0.93800  Biso   1.000  H
  O33      1.0000 0.55860  0.68210  0.86070  Biso   1.000  O
  O34      1.0000 0.72280  0.66070  0.92600  Biso   1.000  O
  O35      1.0000 0.73110  0.81270  0.48870  Biso   1.000  O
  O36      1.0000 0.91540  0.79890  0.50700  Biso   1.000  O
  C97      1.0000 0.75340  0.55580  0.43240  Biso   1.000  C
  C98      1.0000 0.75470  0.50580  0.43530  Biso   1.000  C
  C99      1.0000 0.74820  0.48140  0.50730  Biso   1.000  C
  C100     1.0000 0.73930  0.50670  0.57820  Biso   1.000  C
  C101     1.0000 0.73620  0.55700  0.57630  Biso   1.000  C
  C102     1.0000 0.74560  0.58030  0.50420  Biso   1.000  C
  C103     1.0000 0.75270  0.58150  0.35430  Biso   1.000  C
  C104     1.0000 0.65610  0.58250  0.30120  Biso   1.000  C
  H55      1.0000 0.59270  0.56580  0.31350  Biso   1.000  H
  C105     1.0000 0.64950  0.60750  0.23030  Biso   1.000  C
  H56      1.0000 0.58130  0.60830  0.19650  Biso   1.000  H
  C106     1.0000 0.74300  0.63150  0.20850  Biso   1.000  C
  C107     1.0000 0.84240  0.62990  0.26220  Biso   1.000  C
  H57      1.0000 0.90720  0.64520  0.24900  Biso   1.000  H
  C108     1.0000 0.84640  0.60630  0.33360  Biso   1.000  C
  H58      1.0000 0.91300  0.60680  0.36910  Biso   1.000  H
  C109     1.0000 0.76510  0.47930  0.35920  Biso   1.000  C
  C110     1.0000 0.68160  0.44930  0.32400  Biso   1.000  C
  H59      1.0000 0.61680  0.44460  0.34940  Biso   1.000  H
  C111     1.0000 0.69050  0.42600  0.25270  Biso   1.000  C
  H60      1.0000 0.63120  0.40700  0.22950  Biso   1.000  H
  C112     1.0000 0.78770  0.43090  0.21600  Biso   1.000  C
  C113     1.0000 0.87400  0.46010  0.24970  Biso   1.000  C
  H61      1.0000 0.93930  0.46400  0.22470  Biso   1.000  H
  C114     1.0000 0.86280  0.48350  0.32060  Biso   1.000  C
  H62      1.0000 0.92200  0.50260  0.34350  Biso   1.000  H
  C115     1.0000 0.75370  0.42770  0.50910  Biso   1.000  C
  C116     1.0000 0.65800  0.40000  0.51590  Biso   1.000  C
  H63      1.0000 0.58870  0.41470  0.52010  Biso   1.000  H
  C117     1.0000 0.66460  0.35110  0.51640  Biso   1.000  C
  H64      1.0000 0.59940  0.33340  0.52090  Biso   1.000  H
  C118     1.0000 0.76500  0.32760  0.51030  Biso   1.000  C
  C119     1.0000 0.85950  0.35430  0.50440  Biso   1.000  C
  H65      1.0000 0.92870  0.33910  0.50200  Biso   1.000  H
  C120     1.0000 0.85470  0.40410  0.50190  Biso   1.000  C
  H66      1.0000 0.91970  0.42140  0.49530  Biso   1.000  H
  C121     1.0000 0.73300  0.48110  0.65520  Biso   1.000  C
  C122     1.0000 0.63680  0.48490  0.69520  Biso   1.000  C
  H67      1.0000 0.57500  0.50280  0.67250  Biso   1.000  H
  C123     1.0000 0.63240  0.46260  0.76770  Biso   1.000  C
  H68      1.0000 0.56840  0.46640  0.79420  Biso   1.000  H
  C124     1.0000 0.72180  0.43420  0.80250  Biso   1.000  C
  C125     1.0000 0.81660  0.43050  0.76140  Biso   1.000  C
  H69      1.0000 0.87780  0.41180  0.78240  Biso   1.000  H
  C126     1.0000 0.82050  0.45420  0.69050  Biso   1.000  C
  H70      1.0000 0.88600  0.45170  0.66510  Biso   1.000  H
  C127     1.0000 0.71970  0.58490  0.64980  Biso   1.000  C
  C128     1.0000 0.62180  0.61110  0.65290  Biso   1.000  C
  H71      1.0000 0.56720  0.61150  0.60810  Biso   1.000  H
  C129     1.0000 0.60240  0.63680  0.72030  Biso   1.000  C
  H72      1.0000 0.53540  0.65400  0.72010  Biso   1.000  H
  C130     1.0000 0.68070  0.63710  0.78760  Biso   1.000  C
  C131     1.0000 0.77950  0.61140  0.78560  Biso   1.000  C
  H73      1.0000 0.83400  0.61130  0.83050  Biso   1.000  H
  C132     1.0000 0.79900  0.58580  0.71770  Biso   1.000  C
  H74      1.0000 0.86650  0.56890  0.71780  Biso   1.000  H
  C133     1.0000 0.75700  0.63420  0.50430  Biso   1.000  C
  C134     1.0000 0.67470  0.66400  0.46700  Biso   1.000  C
  H75      1.0000 0.60730  0.65150  0.44140  Biso   1.000  H
  C135     1.0000 0.69280  0.71280  0.46760  Biso   1.000  C
  H76      1.0000 0.63550  0.73280  0.44410  Biso   1.000  H
  C136     1.0000 0.79220  0.73240  0.50180  Biso   1.000  C
  C137     1.0000 0.87500  0.70240  0.53930  Biso   1.000  C
  H77      1.0000 0.94400  0.71480  0.56250  Biso   1.000  H
  C138     1.0000 0.85440  0.65350  0.54210  Biso   1.000  C
  H78      1.0000 0.90810  0.63380  0.57040  Biso   1.000  H
  C139     1.0000 0.73360  0.65730  0.12950  Biso   1.000  C
  C140     1.0000 0.80290  0.40530  0.14030  Biso   1.000  C
  C141     1.0000 0.77200  0.27380  0.50990  Biso   1.000  C
  C142     1.0000 0.71060  0.40970  0.87920  Biso   1.000  C
  C143     1.0000 0.65350  0.66240  0.86180  Biso   1.000  C
  C144     1.0000 0.81490  0.78460  0.49840  Biso   1.000  C
  Mg7      1.0000 0.92380  0.18726  0.51240  Biso   1.000  Mg
  Mg8      1.0000 0.87410  0.68311  0.99070  Biso   1.000  Mg
  O37      1.0000 0.86260  0.17060  0.40020  Biso   1.000  O
  O38      1.0000 0.67640  0.16350  0.40220  Biso   1.000  O
  O39      1.0000 0.77960  0.87620  0.38350  Biso   1.000  O
  H79      1.0000 0.75700  0.86100  0.42300  Biso   1.000  H
  O40      1.0000 0.61420  0.91050  0.39440  Biso   1.000  O
  O41      1.0000 0.81840  0.75150  0.98700  Biso   1.000  O
  O42      1.0000 0.63230  0.75560  0.99280  Biso   1.000  O
  O43      1.0000 0.87100  0.91370  0.58540  Biso   1.000  O
  O44      1.0000 0.70740  0.87990  0.60050  Biso   1.000  O
  H80      1.0000 0.72500  0.86250  0.56200  Biso   1.000  H
  O45      1.0000 0.94140  0.18210  0.63930  Biso   1.000  O
  O46      1.0000 0.77720  0.16070  0.57400  Biso   1.000  O
  O47      1.0000 0.76890  0.31270  0.01130  Biso   1.000  O
  O48      1.0000 0.58460  0.29890  0.99300  Biso   1.000  O
  C145     1.0000 0.74660  0.05580  0.06760  Biso   1.000  C
  C146     1.0000 0.74530  0.00580  0.06470  Biso   1.000  C
  C147     1.0000 0.75180  0.98140  0.99270  Biso   1.000  C
  C148     1.0000 0.76070  0.00670  0.92180  Biso   1.000  C
  C149     1.0000 0.76380  0.05700  0.92370  Biso   1.000  C
  C150     1.0000 0.75440  0.08030  0.99580  Biso   1.000  C
  C151     1.0000 0.74730  0.08150  0.14570  Biso   1.000  C
  C152     1.0000 0.84390  0.08250  0.19880  Biso   1.000  C
  H81      1.0000 0.90730  0.06580  0.18650  Biso   1.000  H
  C153     1.0000 0.85050  0.10750  0.26970  Biso   1.000  C
  H82      1.0000 0.91870  0.10830  0.30350  Biso   1.000  H
  C154     1.0000 0.75700  0.13150  0.29150  Biso   1.000  C
  C155     1.0000 0.65760  0.12990  0.23780  Biso   1.000  C
  H83      1.0000 0.59280  0.14520  0.25100  Biso   1.000  H
  C156     1.0000 0.65360  0.10630  0.16640  Biso   1.000  C
  H84      1.0000 0.58700  0.10680  0.13090  Biso   1.000  H
  C157     1.0000 0.73490  0.97930  0.14080  Biso   1.000  C
  C158     1.0000 0.81840  0.94930  0.17600  Biso   1.000  C
  H85      1.0000 0.88320  0.94460  0.15060  Biso   1.000  H
  C159     1.0000 0.80950  0.92600  0.24730  Biso   1.000  C
  H86      1.0000 0.86880  0.90700  0.27050  Biso   1.000  H
  C160     1.0000 0.71230  0.93090  0.28400  Biso   1.000  C
  C161     1.0000 0.62600  0.96010  0.25030  Biso   1.000  C
  H87      1.0000 0.56070  0.96400  0.27530  Biso   1.000  H
  C162     1.0000 0.63720  0.98350  0.17940  Biso   1.000  C
  H88      1.0000 0.57800  0.00260  0.15650  Biso   1.000  H
  C163     1.0000 0.74630  0.92770  0.99090  Biso   1.000  C
  C164     1.0000 0.84200  0.90000  0.98410  Biso   1.000  C
  H89      1.0000 0.91130  0.91470  0.97990  Biso   1.000  H
  C165     1.0000 0.83540  0.85110  0.98360  Biso   1.000  C
  H90      1.0000 0.90060  0.83340  0.97910  Biso   1.000  H
  C166     1.0000 0.73500  0.82760  0.98970  Biso   1.000  C
  C167     1.0000 0.64050  0.85430  0.99560  Biso   1.000  C
  H91      1.0000 0.57130  0.83910  0.99800  Biso   1.000  H
  C168     1.0000 0.64530  0.90410  0.99810  Biso   1.000  C
  H92      1.0000 0.58030  0.92140  0.00470  Biso   1.000  H
  C169     1.0000 0.76700  0.98110  0.84480  Biso   1.000  C
  C170     1.0000 0.86320  0.98490  0.80480  Biso   1.000  C
  H93      1.0000 0.92500  0.00280  0.82750  Biso   1.000  H
  C171     1.0000 0.86760  0.96260  0.73230  Biso   1.000  C
  H94      1.0000 0.93160  0.96640  0.70580  Biso   1.000  H
  C172     1.0000 0.77820  0.93420  0.69750  Biso   1.000  C
  C173     1.0000 0.68340  0.93050  0.73860  Biso   1.000  C
  H95      1.0000 0.62220  0.91180  0.71760  Biso   1.000  H
  C174     1.0000 0.67950  0.95420  0.80950  Biso   1.000  C
  H96      1.0000 0.61400  0.95170  0.83490  Biso   1.000  H
  C175     1.0000 0.78030  0.08490  0.85020  Biso   1.000  C
  C176     1.0000 0.87820  0.11110  0.84710  Biso   1.000  C
  H97      1.0000 0.93280  0.11150  0.89190  Biso   1.000  H
  C177     1.0000 0.89760  0.13680  0.77970  Biso   1.000  C
  H98      1.0000 0.96460  0.15400  0.77990  Biso   1.000  H
  C178     1.0000 0.81930  0.13710  0.71240  Biso   1.000  C
  C179     1.0000 0.72050  0.11140  0.71440  Biso   1.000  C
  H99      1.0000 0.66600  0.11130  0.66950  Biso   1.000  H
  C180     1.0000 0.70100  0.08580  0.78230  Biso   1.000  C
  H100     1.0000 0.63350  0.06890  0.78220  Biso   1.000  H
  C181     1.0000 0.74300  0.13420  0.99570  Biso   1.000  C
  C182     1.0000 0.82530  0.16400  0.03300  Biso   1.000  C
  H101     1.0000 0.89270  0.15150  0.05860  Biso   1.000  H
  C183     1.0000 0.80720  0.21280  0.03240  Biso   1.000  C
  H102     1.0000 0.86450  0.23280  0.05590  Biso   1.000  H
  C184     1.0000 0.70780  0.23240  0.99820  Biso   1.000  C
  C185     1.0000 0.62500  0.20240  0.96070  Biso   1.000  C
  H103     1.0000 0.55600  0.21480  0.93750  Biso   1.000  H
  C186     1.0000 0.64560  0.15350  0.95790  Biso   1.000  C
  H104     1.0000 0.59190  0.13380  0.92960  Biso   1.000  H
  C187     1.0000 0.76640  0.15730  0.37050  Biso   1.000  C
  C188     1.0000 0.69710  0.90530  0.35970  Biso   1.000  C
  C189     1.0000 0.72800  0.77380  0.99010  Biso   1.000  C
  C190     1.0000 0.78940  0.90970  0.62080  Biso   1.000  C
  C191     1.0000 0.84650  0.16240  0.63820  Biso   1.000  C
  C192     1.0000 0.68510  0.28460  0.00160  Biso   1.000  C
