data_image0
_cell_length_a       11.54
_cell_length_b       16.778
_cell_length_c       28.468
_cell_angle_alpha    90
_cell_angle_beta     90
_cell_angle_gamma    90

_symmetry_space_group_name_H-M    "P 1"
_symmetry_int_tables_number       1

loop_
  _symmetry_equiv_pos_as_xyz
  'x, y, z'

loop_
  _atom_site_label
  _atom_site_occupancy
  _atom_site_fract_x
  _atom_site_fract_y
  _atom_site_fract_z
  _atom_site_thermal_displace_type
  _atom_site_B_iso_or_equiv
  _atom_site_type_symbol
  Cu1      1.0000 0.17010  0.73500  0.37330  Biso   1.000  Cu
  Cu2      1.0000 0.41610  0.25650  0.19566  Biso   1.000  Cu
  Cu3      1.0000 0.13480  0.26820  0.20140  Biso   1.000  Cu
  C1       1.0000 0.26490  0.30860  0.50624  Biso   1.000  C
  C2       1.0000 0.26410  0.31210  0.55518  Biso   1.000  C
  C3       1.0000 0.26340  0.24200  0.58143  Biso   1.000  C
  C4       1.0000 0.26340  0.16830  0.55877  Biso   1.000  C
  C5       1.0000 0.26410  0.16480  0.50985  Biso   1.000  C
  C6       1.0000 0.26490  0.23490  0.48355  Biso   1.000  C
  C7       1.0000 0.26610  0.23150  0.43006  Biso   1.000  C
  C8       1.0000 0.36660  0.25720  0.40757  Biso   1.000  C
  H1       1.0000 0.43130  0.27440  0.42560  Biso   1.000  H
  C9       1.0000 0.37220  0.25790  0.35864  Biso   1.000  C
  H2       1.0000 0.44070  0.27530  0.34330  Biso   1.000  H
  C10      1.0000 0.27650  0.23290  0.33221  Biso   1.000  C
  C11      1.0000 0.17690  0.20660  0.35474  Biso   1.000  C
  H3       1.0000 0.11240  0.18900  0.33680  Biso   1.000  H
  C12      1.0000 0.17130  0.20590  0.40367  Biso   1.000  C
  H4       1.0000 0.10290  0.18810  0.41900  Biso   1.000  H
  C13      1.0000 0.25850  0.08940  0.48359  Biso   1.000  C
  C14      1.0000 0.35760  0.07250  0.45794  Biso   1.000  C
  H5       1.0000 0.42370  0.10590  0.46070  Biso   1.000  H
  C15      1.0000 0.36060  0.00660  0.42810  Biso   1.000  C
  H6       1.0000 0.42850  0.99540  0.41050  Biso   1.000  H
  C16      1.0000 0.26430  0.95730  0.42420  Biso   1.000  C
  C17      1.0000 0.16320  0.97480  0.44930  Biso   1.000  C
  H7       1.0000 0.09670  0.94190  0.44600  Biso   1.000  H
  C18      1.0000 0.16030  0.04080  0.47914  Biso   1.000  C
  H8       1.0000 0.09200  0.05270  0.49640  Biso   1.000  H
  C19      1.0000 0.25600  0.08850  0.58670  Biso   1.000  C
  C20      1.0000 0.35790  0.04480  0.59200  Biso   1.000  C
  H9       1.0000 0.42840  0.06410  0.57900  Biso   1.000  H
  C21      1.0000 0.35640  0.97270  0.61640  Biso   1.000  C
  H10      1.0000 0.42590  0.94290  0.62000  Biso   1.000  H
  C22      1.0000 0.25300  0.94430  0.63540  Biso   1.000  C
  C23      1.0000 0.15110  0.98800  0.63010  Biso   1.000  C
  H11      1.0000 0.08070  0.96870  0.64310  Biso   1.000  H
  C24      1.0000 0.15260  0.06010  0.60576  Biso   1.000  C
  H12      1.0000 0.08320  0.08990  0.60210  Biso   1.000  H
  C25      1.0000 0.28380  0.24210  0.63556  Biso   1.000  C
  C26      1.0000 0.39410  0.22540  0.65325  Biso   1.000  C
  H13      1.0000 0.45580  0.21280  0.63250  Biso   1.000  H
  C27      1.0000 0.41300  0.22750  0.70161  Biso   1.000  C
  H14      1.0000 0.48740  0.21560  0.71400  Biso   1.000  H
  C28      1.0000 0.31830  0.24810  0.73281  Biso   1.000  C
  C29      1.0000 0.21270  0.26370  0.71398  Biso   1.000  C
  H15      1.0000 0.15000  0.27640  0.73430  Biso   1.000  H
  C30      1.0000 0.19380  0.26160  0.66561  Biso   1.000  C
  H16      1.0000 0.11930  0.27360  0.65330  Biso   1.000  H
  C31      1.0000 0.27510  0.39130  0.58060  Biso   1.000  C
  C32      1.0000 0.38030  0.42700  0.59401  Biso   1.000  C
  H17      1.0000 0.45170  0.40020  0.58880  Biso   1.000  H
  C33      1.0000 0.37900  0.50210  0.61500  Biso   1.000  C
  H18      1.0000 0.44970  0.52660  0.62430  Biso   1.000  H
  C34      1.0000 0.27380  0.54150  0.62250  Biso   1.000  C
  C35      1.0000 0.17030  0.50540  0.60880  Biso   1.000  C
  H19      1.0000 0.09870  0.53200  0.61380  Biso   1.000  H
  C36      1.0000 0.17160  0.43030  0.58779  Biso   1.000  C
  H20      1.0000 0.10100  0.40610  0.57840  Biso   1.000  H
  C37      1.0000 0.26740  0.38610  0.48344  Biso   1.000  C
  C38      1.0000 0.36920  0.43080  0.47917  Biso   1.000  C
  H21      1.0000 0.43700  0.41510  0.49570  Biso   1.000  H
  C39      1.0000 0.37110  0.49850  0.45070  Biso   1.000  C
  H22      1.0000 0.44040  0.52850  0.44760  Biso   1.000  H
  C40      1.0000 0.27180  0.52190  0.42700  Biso   1.000  C
  C41      1.0000 0.16960  0.47770  0.43137  Biso   1.000  C
  H23      1.0000 0.10170  0.49380  0.41500  Biso   1.000  H
  C42      1.0000 0.16760  0.41010  0.45983  Biso   1.000  C
  H24      1.0000 0.09810  0.38040  0.46310  Biso   1.000  H
  C43      1.0000 0.26770  0.22580  0.27962  Biso   1.000  C
  O1       1.0000 0.36350  0.25030  0.26050  Biso   1.000  O
  O2       1.0000 0.17790  0.21210  0.25805  Biso   1.000  O
  C44      1.0000 0.26130  0.88090  0.39060  Biso   1.000  C
  O3       1.0000 0.36090  0.87370  0.37000  Biso   1.000  O
  O4       1.0000 0.17330  0.84310  0.38690  Biso   1.000  O
  C45      1.0000 0.24270  0.86730  0.66240  Biso   1.000  C
  O5       1.0000 0.33690  0.82380  0.66180  Biso   1.000  O
  O6       1.0000 0.14930  0.84320  0.67690  Biso   1.000  O
  C46      1.0000 0.34450  0.25900  0.78230  Biso   1.000  C
  O7       1.0000 0.44980  0.25170  0.79824  Biso   1.000  O
  O8       1.0000 0.26250  0.26310  0.80954  Biso   1.000  O
  C47      1.0000 0.27270  0.61910  0.64580  Biso   1.000  C
  O9       1.0000 0.37120  0.65690  0.64890  Biso   1.000  O
  O10      1.0000 0.18220  0.64840  0.66040  Biso   1.000  O
  C48      1.0000 0.25870  0.60360  0.39960  Biso   1.000  C
  O11      1.0000 0.34640  0.65110  0.40760  Biso   1.000  O
  O12      1.0000 0.17400  0.62400  0.37710  Biso   1.000  O
  Cu4      1.0000 0.32990  0.26500  0.87330  Biso   1.000  Cu
  Cu5      1.0000 0.08390  0.74350  0.69566  Biso   1.000  Cu
  Cu6      1.0000 0.36520  0.73180  0.70140  Biso   1.000  Cu
  C49      1.0000 0.23510  0.69140  0.00624  Biso   1.000  C
  C50      1.0000 0.23590  0.68790  0.05518  Biso   1.000  C
  C51      1.0000 0.23660  0.75800  0.08143  Biso   1.000  C
  C52      1.0000 0.23660  0.83170  0.05877  Biso   1.000  C
  C53      1.0000 0.23590  0.83520  0.00985  Biso   1.000  C
  C54      1.0000 0.23510  0.76510  0.98355  Biso   1.000  C
  C55      1.0000 0.23390  0.76850  0.93006  Biso   1.000  C
  C56      1.0000 0.13340  0.74280  0.90757  Biso   1.000  C
  H25      1.0000 0.06870  0.72560  0.92560  Biso   1.000  H
  C57      1.0000 0.12780  0.74210  0.85864  Biso   1.000  C
  H26      1.0000 0.05930  0.72470  0.84330  Biso   1.000  H
  C58      1.0000 0.22350  0.76710  0.83221  Biso   1.000  C
  C59      1.0000 0.32310  0.79340  0.85474  Biso   1.000  C
  H27      1.0000 0.38760  0.81100  0.83680  Biso   1.000  H
  C60      1.0000 0.32870  0.79410  0.90367  Biso   1.000  C
  H28      1.0000 0.39710  0.81190  0.91900  Biso   1.000  H
  C61      1.0000 0.24150  0.91060  0.98359  Biso   1.000  C
  C62      1.0000 0.14240  0.92750  0.95794  Biso   1.000  C
  H29      1.0000 0.07630  0.89410  0.96070  Biso   1.000  H
  C63      1.0000 0.13940  0.99340  0.92810  Biso   1.000  C
  H30      1.0000 0.07150  0.00460  0.91050  Biso   1.000  H
  C64      1.0000 0.23570  0.04270  0.92420  Biso   1.000  C
  C65      1.0000 0.33680  0.02520  0.94930  Biso   1.000  C
  H31      1.0000 0.40330  0.05810  0.94600  Biso   1.000  H
  C66      1.0000 0.33970  0.95920  0.97914  Biso   1.000  C
  H32      1.0000 0.40800  0.94730  0.99640  Biso   1.000  H
  C67      1.0000 0.24400  0.91150  0.08670  Biso   1.000  C
  C68      1.0000 0.14210  0.95520  0.09200  Biso   1.000  C
  H33      1.0000 0.07160  0.93590  0.07900  Biso   1.000  H
  C69      1.0000 0.14360  0.02730  0.11640  Biso   1.000  C
  H34      1.0000 0.07410  0.05710  0.12000  Biso   1.000  H
  C70      1.0000 0.24700  0.05570  0.13540  Biso   1.000  C
  C71      1.0000 0.34890  0.01200  0.13010  Biso   1.000  C
  H35      1.0000 0.41930  0.03130  0.14310  Biso   1.000  H
  C72      1.0000 0.34740  0.93990  0.10576  Biso   1.000  C
  H36      1.0000 0.41680  0.91010  0.10210  Biso   1.000  H
  C73      1.0000 0.21620  0.75790  0.13556  Biso   1.000  C
  C74      1.0000 0.10590  0.77460  0.15325  Biso   1.000  C
  H37      1.0000 0.04420  0.78720  0.13250  Biso   1.000  H
  C75      1.0000 0.08700  0.77250  0.20161  Biso   1.000  C
  H38      1.0000 0.01260  0.78440  0.21400  Biso   1.000  H
  C76      1.0000 0.18170  0.75190  0.23281  Biso   1.000  C
  C77      1.0000 0.28730  0.73630  0.21398  Biso   1.000  C
  H39      1.0000 0.35000  0.72360  0.23430  Biso   1.000  H
  C78      1.0000 0.30620  0.73840  0.16561  Biso   1.000  C
  H40      1.0000 0.38070  0.72640  0.15330  Biso   1.000  H
  C79      1.0000 0.22490  0.60870  0.08060  Biso   1.000  C
  C80      1.0000 0.11970  0.57300  0.09401  Biso   1.000  C
  H41      1.0000 0.04830  0.59980  0.08880  Biso   1.000  H
  C81      1.0000 0.12100  0.49790  0.11500  Biso   1.000  C
  H42      1.0000 0.05030  0.47340  0.12430  Biso   1.000  H
  C82      1.0000 0.22620  0.45850  0.12250  Biso   1.000  C
  C83      1.0000 0.32970  0.49460  0.10880  Biso   1.000  C
  H43      1.0000 0.40130  0.46800  0.11380  Biso   1.000  H
  C84      1.0000 0.32840  0.56970  0.08779  Biso   1.000  C
  H44      1.0000 0.39900  0.59390  0.07840  Biso   1.000  H
  C85      1.0000 0.23260  0.61390  0.98344  Biso   1.000  C
  C86      1.0000 0.13080  0.56920  0.97917  Biso   1.000  C
  H45      1.0000 0.06300  0.58490  0.99570  Biso   1.000  H
  C87      1.0000 0.12890  0.50150  0.95070  Biso   1.000  C
  H46      1.0000 0.05960  0.47150  0.94760  Biso   1.000  H
  C88      1.0000 0.22820  0.47810  0.92700  Biso   1.000  C
  C89      1.0000 0.33040  0.52230  0.93137  Biso   1.000  C
  H47      1.0000 0.39830  0.50620  0.91500  Biso   1.000  H
  C90      1.0000 0.33240  0.58990  0.95983  Biso   1.000  C
  H48      1.0000 0.40190  0.61960  0.96310  Biso   1.000  H
  C91      1.0000 0.23230  0.77420  0.77962  Biso   1.000  C
  O13      1.0000 0.13650  0.74970  0.76050  Biso   1.000  O
  O14      1.0000 0.32210  0.78790  0.75805  Biso   1.000  O
  C92      1.0000 0.23870  0.11910  0.89060  Biso   1.000  C
  O15      1.0000 0.13910  0.12630  0.87000  Biso   1.000  O
  O16      1.0000 0.32670  0.15690  0.88690  Biso   1.000  O
  C93      1.0000 0.25730  0.13270  0.16240  Biso   1.000  C
  O17      1.0000 0.16310  0.17620  0.16180  Biso   1.000  O
  O18      1.0000 0.35070  0.15680  0.17690  Biso   1.000  O
  C94      1.0000 0.15550  0.74100  0.28230  Biso   1.000  C
  O19      1.0000 0.05020  0.74830  0.29824  Biso   1.000  O
  O20      1.0000 0.23750  0.73690  0.30954  Biso   1.000  O
  C95      1.0000 0.22730  0.38090  0.14580  Biso   1.000  C
  O21      1.0000 0.12880  0.34310  0.14890  Biso   1.000  O
  O22      1.0000 0.31780  0.35160  0.16040  Biso   1.000  O
  C96      1.0000 0.24130  0.39640  0.89960  Biso   1.000  C
  O23      1.0000 0.15360  0.34890  0.90760  Biso   1.000  O
  O24      1.0000 0.32600  0.37600  0.87710  Biso   1.000  O
  Cu7      1.0000 0.82990  0.23500  0.12670  Biso   1.000  Cu
  Cu8      1.0000 0.58390  0.75650  0.30434  Biso   1.000  Cu
  Cu9      1.0000 0.86520  0.76820  0.29860  Biso   1.000  Cu
  C97      1.0000 0.73510  0.80860  0.99376  Biso   1.000  C
  C98      1.0000 0.73590  0.81210  0.94482  Biso   1.000  C
  C99      1.0000 0.73660  0.74200  0.91857  Biso   1.000  C
  C100     1.0000 0.73660  0.66830  0.94123  Biso   1.000  C
  C101     1.0000 0.73590  0.66480  0.99015  Biso   1.000  C
  C102     1.0000 0.73510  0.73490  0.01645  Biso   1.000  C
  C103     1.0000 0.73390  0.73150  0.06994  Biso   1.000  C
  C104     1.0000 0.63340  0.75720  0.09243  Biso   1.000  C
  H49      1.0000 0.56870  0.77440  0.07440  Biso   1.000  H
  C105     1.0000 0.62780  0.75790  0.14136  Biso   1.000  C
  H50      1.0000 0.55930  0.77530  0.15670  Biso   1.000  H
  C106     1.0000 0.72350  0.73290  0.16779  Biso   1.000  C
  C107     1.0000 0.82310  0.70660  0.14526  Biso   1.000  C
  H51      1.0000 0.88760  0.68900  0.16320  Biso   1.000  H
  C108     1.0000 0.82870  0.70590  0.09633  Biso   1.000  C
  H52      1.0000 0.89710  0.68810  0.08100  Biso   1.000  H
  C109     1.0000 0.74150  0.58940  0.01641  Biso   1.000  C
  C110     1.0000 0.64240  0.57250  0.04206  Biso   1.000  C
  H53      1.0000 0.57630  0.60590  0.03930  Biso   1.000  H
  C111     1.0000 0.63940  0.50660  0.07190  Biso   1.000  C
  H54      1.0000 0.57150  0.49540  0.08950  Biso   1.000  H
  C112     1.0000 0.73570  0.45730  0.07580  Biso   1.000  C
  C113     1.0000 0.83680  0.47480  0.05070  Biso   1.000  C
  H55      1.0000 0.90330  0.44190  0.05400  Biso   1.000  H
  C114     1.0000 0.83970  0.54080  0.02086  Biso   1.000  C
  H56      1.0000 0.90800  0.55270  0.00360  Biso   1.000  H
  C115     1.0000 0.74400  0.58850  0.91330  Biso   1.000  C
  C116     1.0000 0.64210  0.54480  0.90800  Biso   1.000  C
  H57      1.0000 0.57160  0.56410  0.92100  Biso   1.000  H
  C117     1.0000 0.64360  0.47270  0.88360  Biso   1.000  C
  H58      1.0000 0.57410  0.44290  0.88000  Biso   1.000  H
  C118     1.0000 0.74700  0.44430  0.86460  Biso   1.000  C
  C119     1.0000 0.84890  0.48800  0.86990  Biso   1.000  C
  H59      1.0000 0.91930  0.46870  0.85690  Biso   1.000  H
  C120     1.0000 0.84740  0.56010  0.89424  Biso   1.000  C
  H60      1.0000 0.91680  0.58990  0.89790  Biso   1.000  H
  C121     1.0000 0.71620  0.74210  0.86444  Biso   1.000  C
  C122     1.0000 0.60590  0.72540  0.84675  Biso   1.000  C
  H61      1.0000 0.54420  0.71280  0.86750  Biso   1.000  H
  C123     1.0000 0.58700  0.72750  0.79839  Biso   1.000  C
  H62      1.0000 0.51260  0.71560  0.78600  Biso   1.000  H
  C124     1.0000 0.68170  0.74810  0.76719  Biso   1.000  C
  C125     1.0000 0.78730  0.76370  0.78602  Biso   1.000  C
  H63      1.0000 0.85000  0.77640  0.76570  Biso   1.000  H
  C126     1.0000 0.80620  0.76160  0.83439  Biso   1.000  C
  H64      1.0000 0.88070  0.77360  0.84670  Biso   1.000  H
  C127     1.0000 0.72490  0.89130  0.91940  Biso   1.000  C
  C128     1.0000 0.61970  0.92700  0.90599  Biso   1.000  C
  H65      1.0000 0.54830  0.90020  0.91120  Biso   1.000  H
  C129     1.0000 0.62100  0.00210  0.88500  Biso   1.000  C
  H66      1.0000 0.55030  0.02660  0.87570  Biso   1.000  H
  C130     1.0000 0.72620  0.04150  0.87750  Biso   1.000  C
  C131     1.0000 0.82970  0.00540  0.89120  Biso   1.000  C
  H67      1.0000 0.90130  0.03200  0.88620  Biso   1.000  H
  C132     1.0000 0.82840  0.93030  0.91221  Biso   1.000  C
  H68      1.0000 0.89900  0.90610  0.92160  Biso   1.000  H
  C133     1.0000 0.73260  0.88610  0.01656  Biso   1.000  C
  C134     1.0000 0.63080  0.93080  0.02083  Biso   1.000  C
  H69      1.0000 0.56300  0.91510  0.00430  Biso   1.000  H
  C135     1.0000 0.62890  0.99850  0.04930  Biso   1.000  C
  H70      1.0000 0.55960  0.02850  0.05240  Biso   1.000  H
  C136     1.0000 0.72820  0.02190  0.07300  Biso   1.000  C
  C137     1.0000 0.83040  0.97770  0.06863  Biso   1.000  C
  H71      1.0000 0.89830  0.99380  0.08500  Biso   1.000  H
  C138     1.0000 0.83240  0.91010  0.04017  Biso   1.000  C
  H72      1.0000 0.90190  0.88040  0.03690  Biso   1.000  H
  C139     1.0000 0.73230  0.72580  0.22038  Biso   1.000  C
  O25      1.0000 0.63650  0.75030  0.23950  Biso   1.000  O
  O26      1.0000 0.82210  0.71210  0.24195  Biso   1.000  O
  C140     1.0000 0.73870  0.38090  0.10940  Biso   1.000  C
  O27      1.0000 0.63910  0.37370  0.13000  Biso   1.000  O
  O28      1.0000 0.82670  0.34310  0.11310  Biso   1.000  O
  C141     1.0000 0.75730  0.36730  0.83760  Biso   1.000  C
  O29      1.0000 0.66310  0.32380  0.83820  Biso   1.000  O
  O30      1.0000 0.85070  0.34320  0.82310  Biso   1.000  O
  C142     1.0000 0.65550  0.75900  0.71770  Biso   1.000  C
  O31      1.0000 0.55020  0.75170  0.70176  Biso   1.000  O
  O32      1.0000 0.73750  0.76310  0.69046  Biso   1.000  O
  C143     1.0000 0.72730  0.11910  0.85420  Biso   1.000  C
  O33      1.0000 0.62880  0.15690  0.85110  Biso   1.000  O
  O34      1.0000 0.81780  0.14840  0.83960  Biso   1.000  O
  C144     1.0000 0.74130  0.10360  0.10040  Biso   1.000  C
  O35      1.0000 0.65360  0.15110  0.09240  Biso   1.000  O
  O36      1.0000 0.82600  0.12400  0.12290  Biso   1.000  O
  Cu10     1.0000 0.67010  0.76500  0.62670  Biso   1.000  Cu
  Cu11     1.0000 0.91610  0.24350  0.80434  Biso   1.000  Cu
  Cu12     1.0000 0.63480  0.23180  0.79860  Biso   1.000  Cu
  C145     1.0000 0.76490  0.19140  0.49376  Biso   1.000  C
  C146     1.0000 0.76410  0.18790  0.44482  Biso   1.000  C
  C147     1.0000 0.76340  0.25800  0.41857  Biso   1.000  C
  C148     1.0000 0.76340  0.33170  0.44123  Biso   1.000  C
  C149     1.0000 0.76410  0.33520  0.49015  Biso   1.000  C
  C150     1.0000 0.76490  0.26510  0.51645  Biso   1.000  C
  C151     1.0000 0.76610  0.26850  0.56994  Biso   1.000  C
  C152     1.0000 0.86660  0.24280  0.59243  Biso   1.000  C
  H73      1.0000 0.93130  0.22560  0.57440  Biso   1.000  H
  C153     1.0000 0.87220  0.24210  0.64136  Biso   1.000  C
  H74      1.0000 0.94070  0.22470  0.65670  Biso   1.000  H
  C154     1.0000 0.77650  0.26710  0.66779  Biso   1.000  C
  C155     1.0000 0.67690  0.29340  0.64526  Biso   1.000  C
  H75      1.0000 0.61240  0.31100  0.66320  Biso   1.000  H
  C156     1.0000 0.67130  0.29410  0.59633  Biso   1.000  C
  H76      1.0000 0.60290  0.31190  0.58100  Biso   1.000  H
  C157     1.0000 0.75850  0.41060  0.51641  Biso   1.000  C
  C158     1.0000 0.85760  0.42750  0.54206  Biso   1.000  C
  H77      1.0000 0.92370  0.39410  0.53930  Biso   1.000  H
  C159     1.0000 0.86060  0.49340  0.57190  Biso   1.000  C
  H78      1.0000 0.92850  0.50460  0.58950  Biso   1.000  H
  C160     1.0000 0.76430  0.54270  0.57580  Biso   1.000  C
  C161     1.0000 0.66320  0.52520  0.55070  Biso   1.000  C
  H79      1.0000 0.59670  0.55810  0.55400  Biso   1.000  H
  C162     1.0000 0.66030  0.45920  0.52086  Biso   1.000  C
  H80      1.0000 0.59200  0.44730  0.50360  Biso   1.000  H
  C163     1.0000 0.75600  0.41150  0.41330  Biso   1.000  C
  C164     1.0000 0.85790  0.45520  0.40800  Biso   1.000  C
  H81      1.0000 0.92840  0.43590  0.42100  Biso   1.000  H
  C165     1.0000 0.85640  0.52730  0.38360  Biso   1.000  C
  H82      1.0000 0.92590  0.55710  0.38000  Biso   1.000  H
  C166     1.0000 0.75300  0.55570  0.36460  Biso   1.000  C
  C167     1.0000 0.65110  0.51200  0.36990  Biso   1.000  C
  H83      1.0000 0.58070  0.53130  0.35690  Biso   1.000  H
  C168     1.0000 0.65260  0.43990  0.39424  Biso   1.000  C
  H84      1.0000 0.58320  0.41010  0.39790  Biso   1.000  H
  C169     1.0000 0.78380  0.25790  0.36444  Biso   1.000  C
  C170     1.0000 0.89410  0.27460  0.34675  Biso   1.000  C
  H85      1.0000 0.95580  0.28720  0.36750  Biso   1.000  H
  C171     1.0000 0.91300  0.27250  0.29839  Biso   1.000  C
  H86      1.0000 0.98740  0.28440  0.28600  Biso   1.000  H
  C172     1.0000 0.81830  0.25190  0.26719  Biso   1.000  C
  C173     1.0000 0.71270  0.23630  0.28602  Biso   1.000  C
  H87      1.0000 0.65000  0.22360  0.26570  Biso   1.000  H
  C174     1.0000 0.69380  0.23840  0.33439  Biso   1.000  C
  H88      1.0000 0.61930  0.22640  0.34670  Biso   1.000  H
  C175     1.0000 0.77510  0.10870  0.41940  Biso   1.000  C
  C176     1.0000 0.88030  0.07300  0.40599  Biso   1.000  C
  H89      1.0000 0.95170  0.09980  0.41120  Biso   1.000  H
  C177     1.0000 0.87900  0.99790  0.38500  Biso   1.000  C
  H90      1.0000 0.94970  0.97340  0.37570  Biso   1.000  H
  C178     1.0000 0.77380  0.95850  0.37750  Biso   1.000  C
  C179     1.0000 0.67030  0.99460  0.39120  Biso   1.000  C
  H91      1.0000 0.59870  0.96800  0.38620  Biso   1.000  H
  C180     1.0000 0.67160  0.06970  0.41221  Biso   1.000  C
  H92      1.0000 0.60100  0.09390  0.42160  Biso   1.000  H
  C181     1.0000 0.76740  0.11390  0.51656  Biso   1.000  C
  C182     1.0000 0.86920  0.06920  0.52083  Biso   1.000  C
  H93      1.0000 0.93700  0.08490  0.50430  Biso   1.000  H
  C183     1.0000 0.87110  0.00150  0.54930  Biso   1.000  C
  H94      1.0000 0.94040  0.97150  0.55240  Biso   1.000  H
  C184     1.0000 0.77180  0.97810  0.57300  Biso   1.000  C
  C185     1.0000 0.66960  0.02230  0.56863  Biso   1.000  C
  H95      1.0000 0.60170  0.00620  0.58500  Biso   1.000  H
  C186     1.0000 0.66760  0.08990  0.54017  Biso   1.000  C
  H96      1.0000 0.59810  0.11960  0.53690  Biso   1.000  H
  C187     1.0000 0.76770  0.27420  0.72038  Biso   1.000  C
  O37      1.0000 0.86350  0.24970  0.73950  Biso   1.000  O
  O38      1.0000 0.67790  0.28790  0.74195  Biso   1.000  O
  C188     1.0000 0.76130  0.61910  0.60940  Biso   1.000  C
  O39      1.0000 0.86090  0.62630  0.63000  Biso   1.000  O
  O40      1.0000 0.67330  0.65690  0.61310  Biso   1.000  O
  C189     1.0000 0.74270  0.63270  0.33760  Biso   1.000  C
  O41      1.0000 0.83690  0.67620  0.33820  Biso   1.000  O
  O42      1.0000 0.64930  0.65680  0.32310  Biso   1.000  O
  C190     1.0000 0.84450  0.24100  0.21770  Biso   1.000  C
  O43      1.0000 0.94980  0.24830  0.20176  Biso   1.000  O
  O44      1.0000 0.76250  0.23690  0.19046  Biso   1.000  O
  C191     1.0000 0.77270  0.88090  0.35420  Biso   1.000  C
  O45      1.0000 0.87120  0.84310  0.35110  Biso   1.000  O
  O46      1.0000 0.68220  0.85160  0.33960  Biso   1.000  O
  C192     1.0000 0.75870  0.89640  0.60040  Biso   1.000  C
  O47      1.0000 0.84640  0.84890  0.59240  Biso   1.000  O
  O48      1.0000 0.67400  0.87600  0.62290  Biso   1.000  O
