data_image0
_cell_length_a       12.6325
_cell_length_b       17.4726
_cell_length_c       27.9667
_cell_angle_alpha    91.275
_cell_angle_beta     92.433
_cell_angle_gamma    106.1

_symmetry_space_group_name_H-M    "P 1"
_symmetry_int_tables_number       1

loop_
  _symmetry_equiv_pos_as_xyz
  'x, y, z'

loop_
  _atom_site_label
  _atom_site_occupancy
  _atom_site_fract_x
  _atom_site_fract_y
  _atom_site_fract_z
  _atom_site_thermal_displace_type
  _atom_site_B_iso_or_equiv
  _atom_site_type_symbol
  Cu1      1.0000 0.03172  0.51414  0.14937  Biso   1.000  Cu
  Cu2      1.0000 0.45355  0.00642  0.68281  Biso   1.000  Cu
  Cu3      1.0000 0.31941  0.51100  0.82472  Biso   1.000  Cu
  Cu4      1.0000 0.89567  0.99721  0.35435  Biso   1.000  Cu
  Cu5      1.0000 0.57391  0.49965  0.81609  Biso   1.000  Cu
  Cu6      1.0000 0.68426  0.99859  0.66641  Biso   1.000  Cu
  O1       1.0000 0.97160  0.39800  0.14500  Biso   1.000  O
  O2       1.0000 0.12780  0.38520  0.11670  Biso   1.000  O
  O3       1.0000 0.76570  0.38450  0.89080  Biso   1.000  O
  O4       1.0000 0.91430  0.36890  0.85660  Biso   1.000  O
  O5       1.0000 0.50750  0.97540  0.74460  Biso   1.000  O
  O6       1.0000 0.66870  0.95190  0.72990  Biso   1.000  O
  O7       1.0000 0.35390  0.59330  0.87710  Biso   1.000  O
  O8       1.0000 0.51600  0.59230  0.85150  Biso   1.000  O
  O9       1.0000 0.51380  0.59900  0.15750  Biso   1.000  O
  O10      1.0000 0.66880  0.57390  0.13380  Biso   1.000  O
  O11      1.0000 0.87560  0.97100  0.28640  Biso   1.000  O
  O12      1.0000 0.04880  0.01120  0.26120  Biso   1.000  O
  O13      1.0000 0.84180  0.16330  0.34350  Biso   1.000  O
  O14      1.0000 0.98030  0.10720  0.34870  Biso   1.000  O
  O15      1.0000 0.99290  0.09810  0.60380  Biso   1.000  O
  O16      1.0000 0.16670  0.11410  0.63090  Biso   1.000  O
  O17      1.0000 0.31680  0.44330  0.76640  Biso   1.000  O
  O18      1.0000 0.49750  0.48360  0.75240  Biso   1.000  O
  O19      1.0000 0.43790  0.90620  0.64790  Biso   1.000  O
  O20      1.0000 0.60610  0.90030  0.63350  Biso   1.000  O
  O21      1.0000 0.32700  0.93590  0.38890  Biso   1.000  O
  O22      1.0000 0.49050  0.91980  0.36890  Biso   1.000  O
  O23      1.0000 0.96250  0.55850  0.25020  Biso   1.000  O
  O24      1.0000 0.09130  0.51330  0.21580  Biso   1.000  O
  C1       1.0000 0.79910  0.05380  0.03240  Biso   1.000  C
  C2       1.0000 0.76630  0.05000  0.98360  Biso   1.000  C
  C3       1.0000 0.71140  0.97890  0.96070  Biso   1.000  C
  C4       1.0000 0.68380  0.90830  0.98620  Biso   1.000  C
  C5       1.0000 0.71620  0.90980  0.03540  Biso   1.000  C
  C6       1.0000 0.77710  0.98250  0.05780  Biso   1.000  C
  C7       1.0000 0.85930  0.13150  0.05630  Biso   1.000  C
  C8       1.0000 0.80350  0.17450  0.08180  Biso   1.000  C
  H1       1.0000 0.72630  0.15320  0.08470  Biso   1.000  H
  C9       1.0000 0.85660  0.24790  0.10320  Biso   1.000  C
  H2       1.0000 0.81480  0.27710  0.11930  Biso   1.000  H
  C10      1.0000 0.96790  0.27910  0.10180  Biso   1.000  C
  C11      1.0000 0.02540  0.23630  0.07670  Biso   1.000  C
  H3       1.0000 0.10300  0.25690  0.07490  Biso   1.000  H
  C12      1.0000 0.97180  0.16340  0.05410  Biso   1.000  C
  H4       1.0000 0.01310  0.13510  0.03680  Biso   1.000  H
  C13      1.0000 0.78770  0.12680  0.95680  Biso   1.000  C
  C14      1.0000 0.71470  0.17310  0.96090  Biso   1.000  C
  H5       1.0000 0.65360  0.15620  0.98060  Biso   1.000  H
  C15      1.0000 0.72970  0.24360  0.93660  Biso   1.000  C
  H6       1.0000 0.67930  0.27460  0.93990  Biso   1.000  H
  C16      1.0000 0.81840  0.26870  0.90750  Biso   1.000  C
  C17      1.0000 0.89310  0.22430  0.90430  Biso   1.000  C
  H7       1.0000 0.95640  0.24240  0.88600  Biso   1.000  H
  C18      1.0000 0.87470  0.15170  0.92850  Biso   1.000  C
  H8       1.0000 0.92400  0.11980  0.92490  Biso   1.000  H
  C19      1.0000 0.67960  0.97420  0.90780  Biso   1.000  C
  C20      1.0000 0.58950  0.99610  0.89070  Biso   1.000  C
  H9       1.0000 0.54640  0.01590  0.91240  Biso   1.000  H
  C21      1.0000 0.56010  0.98970  0.84130  Biso   1.000  C
  H10      1.0000 0.49640  0.00370  0.82970  Biso   1.000  H
  C22      1.0000 0.62300  0.96350  0.81030  Biso   1.000  C
  C23      1.0000 0.71130  0.94120  0.82670  Biso   1.000  C
  H11      1.0000 0.75450  0.92230  0.80480  Biso   1.000  H
  C24      1.0000 0.73990  0.94590  0.87630  Biso   1.000  C
  H12      1.0000 0.80150  0.92920  0.88770  Biso   1.000  H
  C25      1.0000 0.62380  0.83050  0.96140  Biso   1.000  C
  C26      1.0000 0.51350  0.81570  0.94660  Biso   1.000  C
  H13      1.0000 0.47570  0.85430  0.95340  Biso   1.000  H
  C27      1.0000 0.45760  0.74550  0.92200  Biso   1.000  C
  H14      1.0000 0.38100  0.73460  0.91390  Biso   1.000  H
  C28      1.0000 0.51380  0.69160  0.90950  Biso   1.000  C
  C29      1.0000 0.62290  0.70550  0.92400  Biso   1.000  C
  H15      1.0000 0.66170  0.66800  0.91580  Biso   1.000  H
  C30      1.0000 0.67680  0.77450  0.95080  Biso   1.000  C
  H16      1.0000 0.75140  0.78280  0.96170  Biso   1.000  H
  C31      1.0000 0.68780  0.83470  0.06220  Biso   1.000  C
  C32      1.0000 0.58080  0.80040  0.07260  Biso   1.000  C
  H17      1.0000 0.52520  0.82460  0.06260  Biso   1.000  H
  C33      1.0000 0.55260  0.73040  0.09760  Biso   1.000  C
  H18      1.0000 0.47820  0.70790  0.10540  Biso   1.000  H
  C34      1.0000 0.63270  0.69290  0.11130  Biso   1.000  C
  C35      1.0000 0.73920  0.72810  0.10080  Biso   1.000  C
  H19      1.0000 0.79500  0.70380  0.11040  Biso   1.000  H
  C36      1.0000 0.76770  0.79840  0.07670  Biso   1.000  C
  H20      1.0000 0.84260  0.82210  0.07010  Biso   1.000  H
  C37      1.0000 0.81710  0.98370  0.10910  Biso   1.000  C
  C38      1.0000 0.74870  0.97050  0.14480  Biso   1.000  C
  H21      1.0000 0.67180  0.96080  0.13790  Biso   1.000  H
  C39      1.0000 0.78950  0.97060  0.19380  Biso   1.000  C
  H22      1.0000 0.74030  0.96110  0.21920  Biso   1.000  H
  C40      1.0000 0.89850  0.98460  0.20260  Biso   1.000  C
  C41      1.0000 0.97140  0.00090  0.16590  Biso   1.000  C
  H23      1.0000 0.04870  0.01380  0.17300  Biso   1.000  H
  C42      1.0000 0.93020  0.99790  0.11900  Biso   1.000  C
  H24      1.0000 0.97910  0.00550  0.09350  Biso   1.000  H
  C43      1.0000 0.02830  0.36060  0.12360  Biso   1.000  C
  C44      1.0000 0.83280  0.34770  0.88320  Biso   1.000  C
  C45      1.0000 0.59550  0.96340  0.75610  Biso   1.000  C
  C46      1.0000 0.45620  0.61850  0.87730  Biso   1.000  C
  C47      1.0000 0.60180  0.61470  0.13670  Biso   1.000  C
  C48      1.0000 0.94730  0.99110  0.25350  Biso   1.000  C
  C49      1.0000 0.20560  0.44420  0.46360  Biso   1.000  C
  C50      1.0000 0.23660  0.43560  0.51170  Biso   1.000  C
  C51      1.0000 0.29330  0.50250  0.53910  Biso   1.000  C
  C52      1.0000 0.31940  0.57850  0.51960  Biso   1.000  C
  C53      1.0000 0.28750  0.58700  0.47140  Biso   1.000  C
  C54      1.0000 0.23270  0.51940  0.44330  Biso   1.000  C
  C55      1.0000 0.13920  0.37120  0.43380  Biso   1.000  C
  C56      1.0000 0.03550  0.36950  0.41490  Biso   1.000  C
  H25      1.0000 0.00740  0.41400  0.41970  Biso   1.000  H
  C57      1.0000 0.97240  0.30210  0.38890  Biso   1.000  C
  H26      1.0000 0.90150  0.30130  0.37570  Biso   1.000  H
  C58      1.0000 0.01130  0.23710  0.38190  Biso   1.000  C
  C59      1.0000 0.11360  0.23790  0.40120  Biso   1.000  C
  H27      1.0000 0.14070  0.19280  0.39700  Biso   1.000  H
  C60      1.0000 0.17750  0.30590  0.42710  Biso   1.000  C
  H28      1.0000 0.24840  0.30660  0.44030  Biso   1.000  H
  C61      1.0000 0.20060  0.35640  0.53470  Biso   1.000  C
  C62      1.0000 0.08980  0.32000  0.53920  Biso   1.000  C
  H29      1.0000 0.03640  0.34390  0.52620  Biso   1.000  H
  C63      1.0000 0.05620  0.24930  0.56250  Biso   1.000  C
  H30      1.0000 0.97960  0.22480  0.56530  Biso   1.000  H
  C64      1.0000 0.13150  0.21360  0.58190  Biso   1.000  C
  C65      1.0000 0.24110  0.24830  0.57650  Biso   1.000  C
  H31      1.0000 0.29400  0.22390  0.58940  Biso   1.000  H
  C66      1.0000 0.27640  0.31920  0.55230  Biso   1.000  C
  H32      1.0000 0.35280  0.34190  0.54800  Biso   1.000  H
  C67      1.0000 0.32200  0.49490  0.59140  Biso   1.000  C
  C68      1.0000 0.24090  0.48120  0.62480  Biso   1.000  C
  H33      1.0000 0.16760  0.47950  0.61450  Biso   1.000  H
  C69      1.0000 0.26320  0.46990  0.67220  Biso   1.000  C
  H34      1.0000 0.20600  0.46050  0.69420  Biso   1.000  H
  C70      1.0000 0.36970  0.47240  0.68760  Biso   1.000  C
  C71      1.0000 0.45290  0.48630  0.65510  Biso   1.000  C
  H35      1.0000 0.52620  0.48860  0.66570  Biso   1.000  H
  C72      1.0000 0.42840  0.49680  0.60720  Biso   1.000  C
  H36      1.0000 0.48510  0.50550  0.58500  Biso   1.000  H
  C73      1.0000 0.36930  0.65200  0.55050  Biso   1.000  C
  C74      1.0000 0.30250  0.68960  0.57350  Biso   1.000  C
  H37      1.0000 0.22510  0.66540  0.57210  Biso   1.000  H
  C75      1.0000 0.34410  0.76120  0.59840  Biso   1.000  C
  H38      1.0000 0.29520  0.78740  0.61200  Biso   1.000  H
  C76      1.0000 0.45510  0.79460  0.60370  Biso   1.000  C
  C77      1.0000 0.52510  0.75660  0.58260  Biso   1.000  C
  H39      1.0000 0.60290  0.77860  0.58620  Biso   1.000  H
  C78      1.0000 0.48050  0.68600  0.55600  Biso   1.000  C
  H40      1.0000 0.52870  0.66060  0.54120  Biso   1.000  H
  C79      1.0000 0.31620  0.66800  0.45050  Biso   1.000  C
  C80      1.0000 0.25460  0.72030  0.45950  Biso   1.000  C
  H41      1.0000 0.19340  0.70500  0.47920  Biso   1.000  H
  C81      1.0000 0.28100  0.79460  0.44010  Biso   1.000  C
  H42      1.0000 0.23710  0.82970  0.44610  Biso   1.000  H
  C82      1.0000 0.37140  0.81890  0.41170  Biso   1.000  C
  C83      1.0000 0.43260  0.76660  0.40330  Biso   1.000  C
  H43      1.0000 0.49570  0.78280  0.38470  Biso   1.000  H
  C84      1.0000 0.40440  0.69120  0.42130  Biso   1.000  C
  H44      1.0000 0.44570  0.65500  0.41360  Biso   1.000  H
  C85      1.0000 0.19310  0.52760  0.39260  Biso   1.000  C
  C86      1.0000 0.10700  0.56170  0.38510  Biso   1.000  C
  H45      1.0000 0.07920  0.58410  0.41140  Biso   1.000  H
  C87      1.0000 0.06150  0.56300  0.33930  Biso   1.000  C
  H46      1.0000 0.00140  0.58520  0.33450  Biso   1.000  H
  C88      1.0000 0.10240  0.53250  0.30050  Biso   1.000  C
  C89      1.0000 0.18940  0.50020  0.30730  Biso   1.000  C
  H47      1.0000 0.21940  0.48000  0.28080  Biso   1.000  H
  C90      1.0000 0.23260  0.49760  0.35350  Biso   1.000  C
  H48      1.0000 0.29170  0.47430  0.35820  Biso   1.000  H
  C91      1.0000 0.93800  0.16260  0.35550  Biso   1.000  C
  C92      1.0000 0.09170  0.13490  0.60800  Biso   1.000  C
  C93      1.0000 0.39620  0.46560  0.74030  Biso   1.000  C
  C94      1.0000 0.50330  0.87400  0.63050  Biso   1.000  C
  C95      1.0000 0.39700  0.89770  0.38840  Biso   1.000  C
  C96      1.0000 0.04710  0.53620  0.25140  Biso   1.000  C
  O25      1.0000 0.86280  0.53870  0.16830  Biso   1.000  O
  H49      1.0000 0.82500  0.49020  0.16730  Biso   1.000  H
  H50      1.0000 0.88060  0.55100  0.19770  Biso   1.000  H
  Cu7      1.0000 0.96828  0.48586  0.85063  Biso   1.000  Cu
  Cu8      1.0000 0.54645  0.99358  0.31719  Biso   1.000  Cu
  Cu9      1.0000 0.68059  0.48900  0.17528  Biso   1.000  Cu
  Cu10     1.0000 0.10433  0.00279  0.64565  Biso   1.000  Cu
  Cu11     1.0000 0.42609  0.50035  0.18391  Biso   1.000  Cu
  Cu12     1.0000 0.31574  0.00141  0.33359  Biso   1.000  Cu
  O26      1.0000 0.02840  0.60200  0.85500  Biso   1.000  O
  O27      1.0000 0.87220  0.61480  0.88330  Biso   1.000  O
  O28      1.0000 0.23430  0.61550  0.10920  Biso   1.000  O
  O29      1.0000 0.08570  0.63110  0.14340  Biso   1.000  O
  O30      1.0000 0.49250  0.02460  0.25540  Biso   1.000  O
  O31      1.0000 0.33130  0.04810  0.27010  Biso   1.000  O
  O32      1.0000 0.64610  0.40670  0.12290  Biso   1.000  O
  O33      1.0000 0.48400  0.40770  0.14850  Biso   1.000  O
  O34      1.0000 0.48620  0.40100  0.84250  Biso   1.000  O
  O35      1.0000 0.33120  0.42610  0.86620  Biso   1.000  O
  O36      1.0000 0.12440  0.02900  0.71360  Biso   1.000  O
  O37      1.0000 0.95120  0.98880  0.73880  Biso   1.000  O
  O38      1.0000 0.15820  0.83670  0.65650  Biso   1.000  O
  O39      1.0000 0.01970  0.89280  0.65130  Biso   1.000  O
  O40      1.0000 0.00710  0.90190  0.39620  Biso   1.000  O
  O41      1.0000 0.83330  0.88590  0.36910  Biso   1.000  O
  O42      1.0000 0.68320  0.55670  0.23360  Biso   1.000  O
  O43      1.0000 0.50250  0.51640  0.24760  Biso   1.000  O
  O44      1.0000 0.56210  0.09380  0.35210  Biso   1.000  O
  O45      1.0000 0.39390  0.09970  0.36650  Biso   1.000  O
  O46      1.0000 0.67300  0.06410  0.61110  Biso   1.000  O
  O47      1.0000 0.50950  0.08020  0.63110  Biso   1.000  O
  O48      1.0000 0.03750  0.44150  0.74980  Biso   1.000  O
  O49      1.0000 0.90870  0.48670  0.78420  Biso   1.000  O
  C97      1.0000 0.20090  0.94620  0.96760  Biso   1.000  C
  C98      1.0000 0.23370  0.95000  0.01640  Biso   1.000  C
  C99      1.0000 0.28860  0.02110  0.03930  Biso   1.000  C
  C100     1.0000 0.31620  0.09170  0.01380  Biso   1.000  C
  C101     1.0000 0.28380  0.09020  0.96460  Biso   1.000  C
  C102     1.0000 0.22290  0.01750  0.94220  Biso   1.000  C
  C103     1.0000 0.14070  0.86850  0.94370  Biso   1.000  C
  C104     1.0000 0.19650  0.82550  0.91820  Biso   1.000  C
  H51      1.0000 0.27370  0.84680  0.91530  Biso   1.000  H
  C105     1.0000 0.14340  0.75210  0.89680  Biso   1.000  C
  H52      1.0000 0.18520  0.72290  0.88070  Biso   1.000  H
  C106     1.0000 0.03210  0.72090  0.89820  Biso   1.000  C
  C107     1.0000 0.97460  0.76370  0.92330  Biso   1.000  C
  H53      1.0000 0.89700  0.74310  0.92510  Biso   1.000  H
  C108     1.0000 0.02820  0.83660  0.94590  Biso   1.000  C
  H54      1.0000 0.98690  0.86490  0.96320  Biso   1.000  H
  C109     1.0000 0.21230  0.87320  0.04320  Biso   1.000  C
  C110     1.0000 0.28530  0.82690  0.03910  Biso   1.000  C
  H55      1.0000 0.34640  0.84380  0.01940  Biso   1.000  H
  C111     1.0000 0.27030  0.75640  0.06340  Biso   1.000  C
  H56      1.0000 0.32070  0.72540  0.06010  Biso   1.000  H
  C112     1.0000 0.18160  0.73130  0.09250  Biso   1.000  C
  C113     1.0000 0.10690  0.77570  0.09570  Biso   1.000  C
  H57      1.0000 0.04360  0.75760  0.11400  Biso   1.000  H
  C114     1.0000 0.12530  0.84830  0.07150  Biso   1.000  C
  H58      1.0000 0.07600  0.88020  0.07510  Biso   1.000  H
  C115     1.0000 0.32040  0.02580  0.09220  Biso   1.000  C
  C116     1.0000 0.41050  0.00390  0.10930  Biso   1.000  C
  H59      1.0000 0.45360  0.98410  0.08760  Biso   1.000  H
  C117     1.0000 0.43990  0.01030  0.15870  Biso   1.000  C
  H60      1.0000 0.50360  0.99630  0.17030  Biso   1.000  H
  C118     1.0000 0.37700  0.03650  0.18970  Biso   1.000  C
  C119     1.0000 0.28870  0.05880  0.17330  Biso   1.000  C
  H61      1.0000 0.24550  0.07770  0.19520  Biso   1.000  H
  C120     1.0000 0.26010  0.05410  0.12370  Biso   1.000  C
  H62      1.0000 0.19850  0.07080  0.11230  Biso   1.000  H
  C121     1.0000 0.37620  0.16950  0.03860  Biso   1.000  C
  C122     1.0000 0.48650  0.18430  0.05340  Biso   1.000  C
  H63      1.0000 0.52430  0.14570  0.04660  Biso   1.000  H
  C123     1.0000 0.54240  0.25450  0.07800  Biso   1.000  C
  H64      1.0000 0.61900  0.26540  0.08610  Biso   1.000  H
  C124     1.0000 0.48620  0.30840  0.09050  Biso   1.000  C
  C125     1.0000 0.37710  0.29450  0.07600  Biso   1.000  C
  H65      1.0000 0.33830  0.33200  0.08420  Biso   1.000  H
  C126     1.0000 0.32320  0.22550  0.04920  Biso   1.000  C
  H66      1.0000 0.24860  0.21720  0.03830  Biso   1.000  H
  C127     1.0000 0.31220  0.16530  0.93780  Biso   1.000  C
  C128     1.0000 0.41920  0.19960  0.92740  Biso   1.000  C
  H67      1.0000 0.47480  0.17540  0.93740  Biso   1.000  H
  C129     1.0000 0.44740  0.26960  0.90240  Biso   1.000  C
  H68      1.0000 0.52180  0.29210  0.89460  Biso   1.000  H
  C130     1.0000 0.36730  0.30710  0.88870  Biso   1.000  C
  C131     1.0000 0.26080  0.27190  0.89920  Biso   1.000  C
  H69      1.0000 0.20500  0.29620  0.88960  Biso   1.000  H
  C132     1.0000 0.23230  0.20160  0.92330  Biso   1.000  C
  H70      1.0000 0.15740  0.17790  0.92990  Biso   1.000  H
  C133     1.0000 0.18290  0.01630  0.89090  Biso   1.000  C
  C134     1.0000 0.25130  0.02950  0.85520  Biso   1.000  C
  H71      1.0000 0.32820  0.03920  0.86210  Biso   1.000  H
  C135     1.0000 0.21050  0.02940  0.80620  Biso   1.000  C
  H72      1.0000 0.25970  0.03890  0.78080  Biso   1.000  H
  C136     1.0000 0.10150  0.01540  0.79740  Biso   1.000  C
  C137     1.0000 0.02860  0.99910  0.83410  Biso   1.000  C
  H73      1.0000 0.95130  0.98620  0.82700  Biso   1.000  H
  C138     1.0000 0.06980  0.00210  0.88100  Biso   1.000  C
  H74      1.0000 0.02090  0.99450  0.90650  Biso   1.000  H
  C139     1.0000 0.97170  0.63940  0.87640  Biso   1.000  C
  C140     1.0000 0.16720  0.65230  0.11680  Biso   1.000  C
  C141     1.0000 0.40450  0.03660  0.24390  Biso   1.000  C
  C142     1.0000 0.54380  0.38150  0.12270  Biso   1.000  C
  C143     1.0000 0.39820  0.38530  0.86330  Biso   1.000  C
  C144     1.0000 0.05270  0.00890  0.74650  Biso   1.000  C
  C145     1.0000 0.79440  0.55580  0.53640  Biso   1.000  C
  C146     1.0000 0.76340  0.56440  0.48830  Biso   1.000  C
  C147     1.0000 0.70670  0.49750  0.46090  Biso   1.000  C
  C148     1.0000 0.68060  0.42150  0.48040  Biso   1.000  C
  C149     1.0000 0.71250  0.41300  0.52860  Biso   1.000  C
  C150     1.0000 0.76730  0.48060  0.55670  Biso   1.000  C
  C151     1.0000 0.86080  0.62880  0.56620  Biso   1.000  C
  C152     1.0000 0.96450  0.63050  0.58510  Biso   1.000  C
  H75      1.0000 0.99260  0.58600  0.58030  Biso   1.000  H
  C153     1.0000 0.02760  0.69790  0.61110  Biso   1.000  C
  H76      1.0000 0.09850  0.69870  0.62430  Biso   1.000  H
  C154     1.0000 0.98870  0.76290  0.61810  Biso   1.000  C
  C155     1.0000 0.88640  0.76210  0.59880  Biso   1.000  C
  H77      1.0000 0.85930  0.80720  0.60300  Biso   1.000  H
  C156     1.0000 0.82250  0.69410  0.57290  Biso   1.000  C
  H78      1.0000 0.75160  0.69340  0.55970  Biso   1.000  H
  C157     1.0000 0.79940  0.64360  0.46530  Biso   1.000  C
  C158     1.0000 0.91020  0.68000  0.46080  Biso   1.000  C
  H79      1.0000 0.96360  0.65610  0.47380  Biso   1.000  H
  C159     1.0000 0.94380  0.75070  0.43750  Biso   1.000  C
  H80      1.0000 0.02040  0.77520  0.43470  Biso   1.000  H
  C160     1.0000 0.86850  0.78640  0.41810  Biso   1.000  C
  C161     1.0000 0.75890  0.75170  0.42350  Biso   1.000  C
  H81      1.0000 0.70600  0.77610  0.41060  Biso   1.000  H
  C162     1.0000 0.72360  0.68080  0.44770  Biso   1.000  C
  H82      1.0000 0.64720  0.65810  0.45200  Biso   1.000  H
  C163     1.0000 0.67800  0.50510  0.40860  Biso   1.000  C
  C164     1.0000 0.75910  0.51880  0.37520  Biso   1.000  C
  H83      1.0000 0.83240  0.52050  0.38550  Biso   1.000  H
  C165     1.0000 0.73680  0.53010  0.32780  Biso   1.000  C
  H84      1.0000 0.79400  0.53950  0.30580  Biso   1.000  H
  C166     1.0000 0.63030  0.52760  0.31240  Biso   1.000  C
  C167     1.0000 0.54710  0.51370  0.34490  Biso   1.000  C
  H85      1.0000 0.47380  0.51140  0.33430  Biso   1.000  H
  C168     1.0000 0.57160  0.50320  0.39280  Biso   1.000  C
  H86      1.0000 0.51490  0.49450  0.41500  Biso   1.000  H
  C169     1.0000 0.63070  0.34800  0.44950  Biso   1.000  C
  C170     1.0000 0.69750  0.31040  0.42650  Biso   1.000  C
  H87      1.0000 0.77490  0.33460  0.42790  Biso   1.000  H
  C171     1.0000 0.65590  0.23880  0.40160  Biso   1.000  C
  H88      1.0000 0.70480  0.21260  0.38800  Biso   1.000  H
  C172     1.0000 0.54490  0.20540  0.39630  Biso   1.000  C
  C173     1.0000 0.47490  0.24340  0.41740  Biso   1.000  C
  H89      1.0000 0.39710  0.22140  0.41380  Biso   1.000  H
  C174     1.0000 0.51950  0.31400  0.44400  Biso   1.000  C
  H90      1.0000 0.47130  0.33940  0.45880  Biso   1.000  H
  C175     1.0000 0.68380  0.33200  0.54950  Biso   1.000  C
  C176     1.0000 0.74540  0.27970  0.54050  Biso   1.000  C
  H91      1.0000 0.80660  0.29500  0.52080  Biso   1.000  H
  C177     1.0000 0.71900  0.20540  0.55990  Biso   1.000  C
  H92      1.0000 0.76290  0.17030  0.55390  Biso   1.000  H
  C178     1.0000 0.62860  0.18110  0.58830  Biso   1.000  C
  C179     1.0000 0.56740  0.23340  0.59670  Biso   1.000  C
  H93      1.0000 0.50430  0.21720  0.61530  Biso   1.000  H
  C180     1.0000 0.59560  0.30880  0.57870  Biso   1.000  C
  H94      1.0000 0.55430  0.34500  0.58640  Biso   1.000  H
  C181     1.0000 0.80690  0.47240  0.60740  Biso   1.000  C
  C182     1.0000 0.89300  0.43830  0.61490  Biso   1.000  C
  H95      1.0000 0.92080  0.41590  0.58860  Biso   1.000  H
  C183     1.0000 0.93850  0.43700  0.66070  Biso   1.000  C
  H96      1.0000 0.99860  0.41480  0.66550  Biso   1.000  H
  C184     1.0000 0.89760  0.46750  0.69950  Biso   1.000  C
  C185     1.0000 0.81060  0.49980  0.69270  Biso   1.000  C
  H97      1.0000 0.78060  0.52000  0.71920  Biso   1.000  H
  C186     1.0000 0.76740  0.50240  0.64650  Biso   1.000  C
  H98      1.0000 0.70830  0.52570  0.64180  Biso   1.000  H
  C187     1.0000 0.06200  0.83740  0.64450  Biso   1.000  C
  C188     1.0000 0.90830  0.86510  0.39200  Biso   1.000  C
  C189     1.0000 0.60380  0.53440  0.25970  Biso   1.000  C
  C190     1.0000 0.49670  0.12600  0.36950  Biso   1.000  C
  C191     1.0000 0.60300  0.10230  0.61160  Biso   1.000  C
  C192     1.0000 0.95290  0.46380  0.74860  Biso   1.000  C
  O50      1.0000 0.13720  0.46130  0.83170  Biso   1.000  O
  H99      1.0000 0.17500  0.50980  0.83270  Biso   1.000  H
  H100     1.0000 0.11940  0.44900  0.80230  Biso   1.000  H
