data_image0
_cell_length_a       5.585
_cell_length_b       11.359
_cell_length_c       14.624
_cell_angle_alpha    98.03
_cell_angle_beta     99
_cell_angle_gamma    103.86

_symmetry_space_group_name_H-M    "P 1"
_symmetry_int_tables_number       1

loop_
  _symmetry_equiv_pos_as_xyz
  'x, y, z'

loop_
  _atom_site_label
  _atom_site_occupancy
  _atom_site_fract_x
  _atom_site_fract_y
  _atom_site_fract_z
  _atom_site_thermal_displace_type
  _atom_site_B_iso_or_equiv
  _atom_site_type_symbol
  U1       1.0000 0.26100  0.20118  0.42509  Biso   1.000  U
  U2       1.0000 0.45960  0.24486  0.07682  Biso   1.000  U
  Na1      1.0000 0.88200  0.25220  0.86570  Biso   1.000  Na
  O1       1.0000 0.06700  0.33900  0.34600  Biso   1.000  O
  O2       1.0000 0.70900  0.11900  0.15900  Biso   1.000  O
  O3       1.0000 0.23300  0.03500  0.09490  Biso   1.000  O
  O4       1.0000 0.63600  0.20700  0.99480  Biso   1.000  O
  O5       1.0000 0.71300  0.45800  0.08060  Biso   1.000  O
  O6       1.0000 0.99000  0.10300  0.28000  Biso   1.000  O
  O7       1.0000 0.80000  0.35700  0.22280  Biso   1.000  O
  O8       1.0000 0.90700  0.87100  0.04780  Biso   1.000  O
  O9       1.0000 0.51100  0.14600  0.55680  Biso   1.000  O
  O10      1.0000 0.73700  0.63500  0.02900  Biso   1.000  O
  O11      1.0000 0.68900  0.00600  0.60930  Biso   1.000  O
  C1       1.0000 0.04600  0.97500  0.04200  Biso   1.000  C
  C2       1.0000 0.91300  0.29900  0.27100  Biso   1.000  C
  C3       1.0000 0.86100  0.16200  0.23300  Biso   1.000  C
  C4       1.0000 0.62300  0.52700  0.03100  Biso   1.000  C
  C5       1.0000 0.55800  0.04300  0.54600  Biso   1.000  C
  U3       1.0000 0.73900  0.79882  0.57491  Biso   1.000  U
  U4       1.0000 0.54040  0.75514  0.92318  Biso   1.000  U
  Na2      1.0000 0.11800  0.74780  0.13430  Biso   1.000  Na
  O12      1.0000 0.93300  0.66100  0.65400  Biso   1.000  O
  O13      1.0000 0.29100  0.88100  0.84100  Biso   1.000  O
  O14      1.0000 0.76700  0.96500  0.90510  Biso   1.000  O
  O15      1.0000 0.36400  0.79300  0.00520  Biso   1.000  O
  O16      1.0000 0.28700  0.54200  0.91940  Biso   1.000  O
  O17      1.0000 0.01000  0.89700  0.72000  Biso   1.000  O
  O18      1.0000 0.20000  0.64300  0.77720  Biso   1.000  O
  O19      1.0000 0.09300  0.12900  0.95220  Biso   1.000  O
  O20      1.0000 0.48900  0.85400  0.44320  Biso   1.000  O
  O21      1.0000 0.26300  0.36500  0.97100  Biso   1.000  O
  O22      1.0000 0.31100  0.99400  0.39070  Biso   1.000  O
  C6       1.0000 0.95400  0.02500  0.95800  Biso   1.000  C
  C7       1.0000 0.08700  0.70100  0.72900  Biso   1.000  C
  C8       1.0000 0.13900  0.83800  0.76700  Biso   1.000  C
  C9       1.0000 0.37700  0.47300  0.96900  Biso   1.000  C
  C10      1.0000 0.44200  0.95700  0.45400  Biso   1.000  C
