data_image0
_cell_length_a       17.2931
_cell_length_b       10.0521
_cell_length_c       17.6583
_cell_angle_alpha    90
_cell_angle_beta     90
_cell_angle_gamma    90

_symmetry_space_group_name_H-M    "P 1"
_symmetry_int_tables_number       1

loop_
  _symmetry_equiv_pos_as_xyz
  'x, y, z'

loop_
  _atom_site_label
  _atom_site_occupancy
  _atom_site_fract_x
  _atom_site_fract_y
  _atom_site_fract_z
  _atom_site_thermal_displace_type
  _atom_site_B_iso_or_equiv
  _atom_site_type_symbol
  Ho1      1.0000 0.47915  0.15931  0.88311  Biso   1.000  Ho
  Ho2      1.0000 0.67815  0.38708  0.89844  Biso   1.000  Ho
  S1       1.0000 0.53870  0.54065  0.13349  Biso   1.000  S
  S2       1.0000 0.70145  0.09177  0.14625  Biso   1.000  S
  S3       1.0000 0.61068  0.02148  0.64753  Biso   1.000  S
  C1       1.0000 0.51270  0.40870  0.99820  Biso   1.000  C
  O1       1.0000 0.58220  0.43300  0.98650  Biso   1.000  O
  O2       1.0000 0.42280  0.60500  0.32010  Biso   1.000  O
  O3       1.0000 0.74900  0.96250  0.29370  Biso   1.000  O
  O4       1.0000 0.69830  0.23050  0.99540  Biso   1.000  O
  O5       1.0000 0.57720  0.11770  0.79690  Biso   1.000  O
  O6       1.0000 0.46630  0.34880  0.95380  Biso   1.000  O
  C2       1.0000 0.67550  0.09580  0.70790  Biso   1.000  C
  C3       1.0000 0.48000  0.45340  0.07220  Biso   1.000  C
  O7       1.0000 0.69500  0.19460  0.82720  Biso   1.000  O
  C4       1.0000 0.57340  0.99740  0.09550  Biso   1.000  C
  H1       1.0000 0.53130  0.97970  0.06430  Biso   1.000  H
  C5       1.0000 0.68000  0.00730  0.57860  Biso   1.000  C
  C6       1.0000 0.40860  0.43170  0.10150  Biso   1.000  C
  H2       1.0000 0.36970  0.38590  0.07610  Biso   1.000  H
  C7       1.0000 0.46590  0.54770  0.19910  Biso   1.000  C
  C8       1.0000 0.75010  0.05590  0.60210  Biso   1.000  C
  H3       1.0000 0.79440  0.05520  0.57240  Biso   1.000  H
  O8       1.0000 0.71490  0.95090  0.45630  Biso   1.000  O
  O9       1.0000 0.58430  0.15250  0.95870  Biso   1.000  O
  C9       1.0000 0.58410  0.94000  0.16770  Biso   1.000  C
  H4       1.0000 0.54970  0.87990  0.18950  Biso   1.000  H
  O10      1.0000 0.53720  0.67940  0.28480  Biso   1.000  O
  C10      1.0000 0.65080  0.98270  0.20210  Biso   1.000  C
  C11      1.0000 0.63240  0.08240  0.07680  Biso   1.000  C
  C12      1.0000 0.63930  0.15980  0.00580  Biso   1.000  C
  C13      1.0000 0.64680  0.13870  0.78290  Biso   1.000  C
  C14      1.0000 0.74760  0.10710  0.67650  Biso   1.000  C
  H5       1.0000 0.78990  0.14420  0.70120  Biso   1.000  H
  C15      1.0000 0.39970  0.48610  0.17460  Biso   1.000  C
  H6       1.0000 0.35440  0.48080  0.20280  Biso   1.000  H
  C16      1.0000 0.67950  0.93970  0.27780  Biso   1.000  C
  C17      1.0000 0.47750  0.61430  0.27300  Biso   1.000  C
  O11      1.0000 0.59200  0.91820  0.48930  Biso   1.000  O
  O12      1.0000 0.63200  0.88230  0.32060  Biso   1.000  O
  C18      1.0000 0.66060  0.95200  0.50310  Biso   1.000  C
  Ho3      1.0000 0.52085  0.84069  0.38311  Biso   1.000  Ho
  Ho4      1.0000 0.32185  0.61292  0.39844  Biso   1.000  Ho
  S4       1.0000 0.46130  0.45935  0.63349  Biso   1.000  S
  S5       1.0000 0.29855  0.90823  0.64625  Biso   1.000  S
  S6       1.0000 0.38932  0.97852  0.14753  Biso   1.000  S
  C19      1.0000 0.48730  0.59130  0.49820  Biso   1.000  C
  O13      1.0000 0.41780  0.56700  0.48650  Biso   1.000  O
  O14      1.0000 0.57720  0.39500  0.82010  Biso   1.000  O
  O15      1.0000 0.25100  0.03750  0.79370  Biso   1.000  O
  O16      1.0000 0.30170  0.76950  0.49540  Biso   1.000  O
  O17      1.0000 0.42280  0.88230  0.29690  Biso   1.000  O
  O18      1.0000 0.53370  0.65120  0.45380  Biso   1.000  O
  C20      1.0000 0.32450  0.90420  0.20790  Biso   1.000  C
  C21      1.0000 0.52000  0.54660  0.57220  Biso   1.000  C
  O19      1.0000 0.30500  0.80540  0.32720  Biso   1.000  O
  C22      1.0000 0.42660  0.00260  0.59550  Biso   1.000  C
  H7       1.0000 0.46870  0.02030  0.56430  Biso   1.000  H
  C23      1.0000 0.32000  0.99270  0.07860  Biso   1.000  C
  C24      1.0000 0.59140  0.56830  0.60150  Biso   1.000  C
  H8       1.0000 0.63030  0.61410  0.57610  Biso   1.000  H
  C25      1.0000 0.53410  0.45230  0.69910  Biso   1.000  C
  C26      1.0000 0.24990  0.94410  0.10210  Biso   1.000  C
  H9       1.0000 0.20560  0.94480  0.07240  Biso   1.000  H
  O20      1.0000 0.28510  0.04910  0.95630  Biso   1.000  O
  O21      1.0000 0.41570  0.84750  0.45870  Biso   1.000  O
  C27      1.0000 0.41590  0.06000  0.66770  Biso   1.000  C
  H10      1.0000 0.45030  0.12010  0.68950  Biso   1.000  H
  O22      1.0000 0.46280  0.32060  0.78480  Biso   1.000  O
  C28      1.0000 0.34920  0.01730  0.70210  Biso   1.000  C
  C29      1.0000 0.36760  0.91760  0.57680  Biso   1.000  C
  C30      1.0000 0.36070  0.84020  0.50580  Biso   1.000  C
  C31      1.0000 0.35320  0.86130  0.28290  Biso   1.000  C
  C32      1.0000 0.25240  0.89290  0.17650  Biso   1.000  C
  H11      1.0000 0.21010  0.85580  0.20120  Biso   1.000  H
  C33      1.0000 0.60030  0.51390  0.67460  Biso   1.000  C
  H12      1.0000 0.64560  0.51920  0.70280  Biso   1.000  H
  C34      1.0000 0.32050  0.06030  0.77780  Biso   1.000  C
  C35      1.0000 0.52250  0.38570  0.77300  Biso   1.000  C
  O23      1.0000 0.40800  0.08180  0.98930  Biso   1.000  O
  O24      1.0000 0.36800  0.11770  0.82060  Biso   1.000  O
  C36      1.0000 0.33940  0.04800  0.00310  Biso   1.000  C
  Ho5      1.0000 0.97915  0.34069  0.88311  Biso   1.000  Ho
  Ho6      1.0000 0.17815  0.11292  0.89844  Biso   1.000  Ho
  S7       1.0000 0.03870  0.95935  0.13349  Biso   1.000  S
  S8       1.0000 0.20145  0.40823  0.14625  Biso   1.000  S
  S9       1.0000 0.11068  0.47852  0.64753  Biso   1.000  S
  C37      1.0000 0.01270  0.09130  0.99820  Biso   1.000  C
  O25      1.0000 0.08220  0.06700  0.98650  Biso   1.000  O
  O26      1.0000 0.92280  0.89500  0.32010  Biso   1.000  O
  O27      1.0000 0.24900  0.53750  0.29370  Biso   1.000  O
  O28      1.0000 0.19830  0.26950  0.99540  Biso   1.000  O
  O29      1.0000 0.07720  0.38230  0.79690  Biso   1.000  O
  O30      1.0000 0.96630  0.15120  0.95380  Biso   1.000  O
  C38      1.0000 0.17550  0.40420  0.70790  Biso   1.000  C
  C39      1.0000 0.98000  0.04660  0.07220  Biso   1.000  C
  O31      1.0000 0.19500  0.30540  0.82720  Biso   1.000  O
  C40      1.0000 0.07340  0.50260  0.09550  Biso   1.000  C
  H13      1.0000 0.03130  0.52030  0.06430  Biso   1.000  H
  C41      1.0000 0.18000  0.49270  0.57860  Biso   1.000  C
  C42      1.0000 0.90860  0.06830  0.10150  Biso   1.000  C
  H14      1.0000 0.86970  0.11410  0.07610  Biso   1.000  H
  C43      1.0000 0.96590  0.95230  0.19910  Biso   1.000  C
  C44      1.0000 0.25010  0.44410  0.60210  Biso   1.000  C
  H15      1.0000 0.29440  0.44480  0.57240  Biso   1.000  H
  O32      1.0000 0.21490  0.54910  0.45630  Biso   1.000  O
  O33      1.0000 0.08430  0.34750  0.95870  Biso   1.000  O
  C45      1.0000 0.08410  0.56000  0.16770  Biso   1.000  C
  H16      1.0000 0.04970  0.62010  0.18950  Biso   1.000  H
  O34      1.0000 0.03720  0.82060  0.28480  Biso   1.000  O
  C46      1.0000 0.15080  0.51730  0.20210  Biso   1.000  C
  C47      1.0000 0.13240  0.41760  0.07680  Biso   1.000  C
  C48      1.0000 0.13930  0.34020  0.00580  Biso   1.000  C
  C49      1.0000 0.14680  0.36130  0.78290  Biso   1.000  C
  C50      1.0000 0.24760  0.39290  0.67650  Biso   1.000  C
  H17      1.0000 0.28990  0.35580  0.70120  Biso   1.000  H
  C51      1.0000 0.89970  0.01390  0.17460  Biso   1.000  C
  H18      1.0000 0.85440  0.01920  0.20280  Biso   1.000  H
  C52      1.0000 0.17950  0.56030  0.27780  Biso   1.000  C
  C53      1.0000 0.97750  0.88570  0.27300  Biso   1.000  C
  O35      1.0000 0.09200  0.58180  0.48930  Biso   1.000  O
  O36      1.0000 0.13200  0.61770  0.32060  Biso   1.000  O
  C54      1.0000 0.16060  0.54800  0.50310  Biso   1.000  C
  Ho7      1.0000 0.02085  0.65931  0.38311  Biso   1.000  Ho
  Ho8      1.0000 0.82185  0.88708  0.39844  Biso   1.000  Ho
  S10      1.0000 0.96130  0.04065  0.63349  Biso   1.000  S
  S11      1.0000 0.79855  0.59177  0.64625  Biso   1.000  S
  S12      1.0000 0.88932  0.52148  0.14753  Biso   1.000  S
  C55      1.0000 0.98730  0.90870  0.49820  Biso   1.000  C
  O37      1.0000 0.91780  0.93300  0.48650  Biso   1.000  O
  O38      1.0000 0.07720  0.10500  0.82010  Biso   1.000  O
  O39      1.0000 0.75100  0.46250  0.79370  Biso   1.000  O
  O40      1.0000 0.80170  0.73050  0.49540  Biso   1.000  O
  O41      1.0000 0.92280  0.61770  0.29690  Biso   1.000  O
  O42      1.0000 0.03370  0.84880  0.45380  Biso   1.000  O
  C56      1.0000 0.82450  0.59580  0.20790  Biso   1.000  C
  C57      1.0000 0.02000  0.95340  0.57220  Biso   1.000  C
  O43      1.0000 0.80500  0.69460  0.32720  Biso   1.000  O
  C58      1.0000 0.92660  0.49740  0.59550  Biso   1.000  C
  H19      1.0000 0.96870  0.47970  0.56430  Biso   1.000  H
  C59      1.0000 0.82000  0.50730  0.07860  Biso   1.000  C
  C60      1.0000 0.09140  0.93170  0.60150  Biso   1.000  C
  H20      1.0000 0.13030  0.88590  0.57610  Biso   1.000  H
  C61      1.0000 0.03410  0.04770  0.69910  Biso   1.000  C
  C62      1.0000 0.74990  0.55590  0.10210  Biso   1.000  C
  H21      1.0000 0.70560  0.55520  0.07240  Biso   1.000  H
  O44      1.0000 0.78510  0.45090  0.95630  Biso   1.000  O
  O45      1.0000 0.91570  0.65250  0.45870  Biso   1.000  O
  C63      1.0000 0.91590  0.44000  0.66770  Biso   1.000  C
  H22      1.0000 0.95030  0.37990  0.68950  Biso   1.000  H
  O46      1.0000 0.96280  0.17940  0.78480  Biso   1.000  O
  C64      1.0000 0.84920  0.48270  0.70210  Biso   1.000  C
  C65      1.0000 0.86760  0.58240  0.57680  Biso   1.000  C
  C66      1.0000 0.86070  0.65980  0.50580  Biso   1.000  C
  C67      1.0000 0.85320  0.63870  0.28290  Biso   1.000  C
  C68      1.0000 0.75240  0.60710  0.17650  Biso   1.000  C
  H23      1.0000 0.71010  0.64420  0.20120  Biso   1.000  H
  C69      1.0000 0.10030  0.98610  0.67460  Biso   1.000  C
  H24      1.0000 0.14560  0.98080  0.70280  Biso   1.000  H
  C70      1.0000 0.82050  0.43970  0.77780  Biso   1.000  C
  C71      1.0000 0.02250  0.11430  0.77300  Biso   1.000  C
  O47      1.0000 0.90800  0.41820  0.98930  Biso   1.000  O
  O48      1.0000 0.86800  0.38230  0.82060  Biso   1.000  O
  C72      1.0000 0.83940  0.45200  0.00310  Biso   1.000  C
