data_image0
_cell_length_a       6.621
_cell_length_b       11.7941
_cell_length_c       12.2064
_cell_angle_alpha    90.846
_cell_angle_beta     100.577
_cell_angle_gamma    102.446

_symmetry_space_group_name_H-M    "P 1"
_symmetry_int_tables_number       1

loop_
  _symmetry_equiv_pos_as_xyz
  'x, y, z'

loop_
  _atom_site_label
  _atom_site_occupancy
  _atom_site_fract_x
  _atom_site_fract_y
  _atom_site_fract_z
  _atom_site_thermal_displace_type
  _atom_site_B_iso_or_equiv
  _atom_site_type_symbol
  Nd1      1.0000 0.34661  0.42056  0.12960  Biso   1.000  Nd
  Nd2      1.0000 0.73274  0.86706  0.44785  Biso   1.000  Nd
  S1       1.0000 0.15990  0.88028  0.35798  Biso   1.000  S
  S2       1.0000 0.53310  0.65708  0.27418  Biso   1.000  S
  S3       1.0000 0.76270  0.35265  0.07308  Biso   1.000  S
  S4       1.0000 0.26410  0.24731  0.31931  Biso   1.000  S
  O1       1.0000 0.97630  0.41610  0.12230  Biso   1.000  O
  O2       1.0000 0.64430  0.43530  0.01140  Biso   1.000  O
  O3       1.0000 0.35250  0.37510  0.32660  Biso   1.000  O
  O4       1.0000 0.63940  0.31190  0.15990  Biso   1.000  O
  O5       1.0000 0.30910  0.60120  0.23490  Biso   1.000  O
  O6       1.0000 0.65140  0.58550  0.22130  Biso   1.000  O
  O7       1.0000 0.19730  0.21250  0.19990  Biso   1.000  O
  O8       1.0000 0.37380  0.88380  0.41960  Biso   1.000  O
  O9       1.0000 0.58620  0.78050  0.24690  Biso   1.000  O
  O10      1.0000 0.08410  0.97770  0.41010  Biso   1.000  O
  O11      1.0000 0.58960  0.65650  0.39840  Biso   1.000  O
  O12      1.0000 0.42350  0.18710  0.38010  Biso   1.000  O
  O13      1.0000 0.00990  0.77600  0.38160  Biso   1.000  O
  O14      1.0000 0.08760  0.22030  0.38110  Biso   1.000  O
  O15      1.0000 0.15530  0.89510  0.24080  Biso   1.000  O
  O16      1.0000 0.77000  0.25630  0.99830  Biso   1.000  O
  Nd3      1.0000 0.65339  0.57944  0.87040  Biso   1.000  Nd
  Nd4      1.0000 0.26726  0.13294  0.55215  Biso   1.000  Nd
  S5       1.0000 0.84010  0.11972  0.64202  Biso   1.000  S
  S6       1.0000 0.46690  0.34292  0.72582  Biso   1.000  S
  S7       1.0000 0.23730  0.64735  0.92692  Biso   1.000  S
  S8       1.0000 0.73590  0.75269  0.68069  Biso   1.000  S
  O17      1.0000 0.02370  0.58390  0.87770  Biso   1.000  O
  O18      1.0000 0.35570  0.56470  0.98860  Biso   1.000  O
  O19      1.0000 0.64750  0.62490  0.67340  Biso   1.000  O
  O20      1.0000 0.36060  0.68810  0.84010  Biso   1.000  O
  O21      1.0000 0.69090  0.39880  0.76510  Biso   1.000  O
  O22      1.0000 0.34860  0.41450  0.77870  Biso   1.000  O
  O23      1.0000 0.80270  0.78750  0.80010  Biso   1.000  O
  O24      1.0000 0.62620  0.11620  0.58040  Biso   1.000  O
  O25      1.0000 0.41380  0.21950  0.75310  Biso   1.000  O
  O26      1.0000 0.91590  0.02230  0.58990  Biso   1.000  O
  O27      1.0000 0.41040  0.34350  0.60160  Biso   1.000  O
  O28      1.0000 0.57650  0.81290  0.61990  Biso   1.000  O
  O29      1.0000 0.99010  0.22400  0.61840  Biso   1.000  O
  O30      1.0000 0.91240  0.77970  0.61890  Biso   1.000  O
  O31      1.0000 0.84470  0.10490  0.75920  Biso   1.000  O
  O32      1.0000 0.23000  0.74370  0.00170  Biso   1.000  O
