data_image0
_cell_length_a       19.587
_cell_length_b       19.16
_cell_length_c       17
_cell_angle_alpha    90
_cell_angle_beta     93.29
_cell_angle_gamma    90

_symmetry_space_group_name_H-M    "P 1"
_symmetry_int_tables_number       1

loop_
  _symmetry_equiv_pos_as_xyz
  'x, y, z'

loop_
  _atom_site_label
  _atom_site_occupancy
  _atom_site_fract_x
  _atom_site_fract_y
  _atom_site_fract_z
  _atom_site_thermal_displace_type
  _atom_site_B_iso_or_equiv
  _atom_site_type_symbol
  Zn1      1.0000 0.26044  0.74075  0.25403  Biso   1.000  Zn
  Zn2      1.0000 0.09372  0.65092  0.16488  Biso   1.000  Zn
  O1       1.0000 0.06460  0.95970  0.17790  Biso   1.000  O
  O2       1.0000 0.05790  0.84570  0.19570  Biso   1.000  O
  O3       1.0000 0.20730  0.80820  0.18740  Biso   1.000  O
  O4       1.0000 0.16350  0.71760  0.12150  Biso   1.000  O
  O5       1.0000 0.17710  0.78920  0.82550  Biso   1.000  O
  O6       1.0000 0.20730  0.90070  0.82220  Biso   1.000  O
  O7       1.0000 0.05150  0.93370  0.81680  Biso   1.000  O
  O8       1.0000 0.08240  0.02680  0.88490  Biso   1.000  O
  O9       1.0000 0.21130  0.67320  0.31590  Biso   1.000  O
  O10      1.0000 0.10060  0.65850  0.28000  Biso   1.000  O
  O11      1.0000 0.06640  0.51620  0.32220  Biso   1.000  O
  O12      1.0000 0.97440  0.57260  0.35470  Biso   1.000  O
  O13      1.0000 0.13530  0.55690  0.68460  Biso   1.000  O
  O14      1.0000 0.02940  0.59620  0.66740  Biso   1.000  O
  O15      1.0000 0.26760  0.67870  0.61070  Biso   1.000  O
  O16      1.0000 0.17690  0.71160  0.67040  Biso   1.000  O
  C1       1.0000 0.10300  0.88610  0.07930  Biso   1.000  C
  C2       1.0000 0.14590  0.82980  0.06710  Biso   1.000  C
  C3       1.0000 0.16810  0.81800  0.99180  Biso   1.000  C
  H1       1.0000 0.19680  0.78040  0.98330  Biso   1.000  H
  C4       1.0000 0.14840  0.86110  0.92980  Biso   1.000  C
  C5       1.0000 0.10540  0.91760  0.94200  Biso   1.000  C
  C6       1.0000 0.08340  0.92950  0.01680  Biso   1.000  C
  H2       1.0000 0.05490  0.96730  0.02530  Biso   1.000  H
  C7       1.0000 0.07350  0.89630  0.15790  Biso   1.000  C
  C8       1.0000 0.17310  0.78250  0.13100  Biso   1.000  C
  C9       1.0000 0.18010  0.84970  0.85250  Biso   1.000  C
  C10      1.0000 0.07850  0.96370  0.87580  Biso   1.000  C
  C11      1.0000 0.13580  0.63890  0.41110  Biso   1.000  C
  C12      1.0000 0.08000  0.59740  0.42510  Biso   1.000  C
  C13      1.0000 0.06420  0.58490  0.50220  Biso   1.000  C
  H3       1.0000 0.02580  0.55840  0.51180  Biso   1.000  H
  C14      1.0000 0.10400  0.61110  0.56510  Biso   1.000  C
  C15      1.0000 0.16070  0.65090  0.55070  Biso   1.000  C
  C16      1.0000 0.17490  0.66570  0.47330  Biso   1.000  C
  H4       1.0000 0.21180  0.69440  0.46350  Biso   1.000  H
  C17      1.0000 0.15130  0.65810  0.32910  Biso   1.000  C
  C18      1.0000 0.03730  0.56140  0.36190  Biso   1.000  C
  C19      1.0000 0.08880  0.58740  0.64660  Biso   1.000  C
  C20      1.0000 0.20620  0.68150  0.61630  Biso   1.000  C
  Zn3      1.0000 0.76044  0.24075  0.25403  Biso   1.000  Zn
  Zn4      1.0000 0.59372  0.15092  0.16488  Biso   1.000  Zn
  O17      1.0000 0.56460  0.45970  0.17790  Biso   1.000  O
  O18      1.0000 0.55790  0.34570  0.19570  Biso   1.000  O
  O19      1.0000 0.70730  0.30820  0.18740  Biso   1.000  O
  O20      1.0000 0.66350  0.21760  0.12150  Biso   1.000  O
  O21      1.0000 0.67710  0.28920  0.82550  Biso   1.000  O
  O22      1.0000 0.70730  0.40070  0.82220  Biso   1.000  O
  O23      1.0000 0.55150  0.43370  0.81680  Biso   1.000  O
  O24      1.0000 0.58240  0.52680  0.88490  Biso   1.000  O
  O25      1.0000 0.71130  0.17320  0.31590  Biso   1.000  O
  O26      1.0000 0.60060  0.15850  0.28000  Biso   1.000  O
  O27      1.0000 0.56640  0.01620  0.32220  Biso   1.000  O
  O28      1.0000 0.47440  0.07260  0.35470  Biso   1.000  O
  O29      1.0000 0.63530  0.05690  0.68460  Biso   1.000  O
  O30      1.0000 0.52940  0.09620  0.66740  Biso   1.000  O
  O31      1.0000 0.76760  0.17870  0.61070  Biso   1.000  O
  O32      1.0000 0.67690  0.21160  0.67040  Biso   1.000  O
  C21      1.0000 0.60300  0.38610  0.07930  Biso   1.000  C
  C22      1.0000 0.64590  0.32980  0.06710  Biso   1.000  C
  C23      1.0000 0.66810  0.31800  0.99180  Biso   1.000  C
  H5       1.0000 0.69680  0.28040  0.98330  Biso   1.000  H
  C24      1.0000 0.64840  0.36110  0.92980  Biso   1.000  C
  C25      1.0000 0.60540  0.41760  0.94200  Biso   1.000  C
  C26      1.0000 0.58340  0.42950  0.01680  Biso   1.000  C
  H6       1.0000 0.55490  0.46730  0.02530  Biso   1.000  H
  C27      1.0000 0.57350  0.39630  0.15790  Biso   1.000  C
  C28      1.0000 0.67310  0.28250  0.13100  Biso   1.000  C
  C29      1.0000 0.68010  0.34970  0.85250  Biso   1.000  C
  C30      1.0000 0.57850  0.46370  0.87580  Biso   1.000  C
  C31      1.0000 0.63580  0.13890  0.41110  Biso   1.000  C
  C32      1.0000 0.58000  0.09740  0.42510  Biso   1.000  C
  C33      1.0000 0.56420  0.08490  0.50220  Biso   1.000  C
  H7       1.0000 0.52580  0.05840  0.51180  Biso   1.000  H
  C34      1.0000 0.60400  0.11110  0.56510  Biso   1.000  C
  C35      1.0000 0.66070  0.15090  0.55070  Biso   1.000  C
  C36      1.0000 0.67490  0.16570  0.47330  Biso   1.000  C
  H8       1.0000 0.71180  0.19440  0.46350  Biso   1.000  H
  C37      1.0000 0.65130  0.15810  0.32910  Biso   1.000  C
  C38      1.0000 0.53730  0.06140  0.36190  Biso   1.000  C
  C39      1.0000 0.58880  0.08740  0.64660  Biso   1.000  C
  C40      1.0000 0.70620  0.18150  0.61630  Biso   1.000  C
  Zn5      1.0000 0.73956  0.74075  0.24597  Biso   1.000  Zn
  Zn6      1.0000 0.90628  0.65092  0.33512  Biso   1.000  Zn
  O33      1.0000 0.93540  0.95970  0.32210  Biso   1.000  O
  O34      1.0000 0.94210  0.84570  0.30430  Biso   1.000  O
  O35      1.0000 0.79270  0.80820  0.31260  Biso   1.000  O
  O36      1.0000 0.83650  0.71760  0.37850  Biso   1.000  O
  O37      1.0000 0.82290  0.78920  0.67450  Biso   1.000  O
  O38      1.0000 0.79270  0.90070  0.67780  Biso   1.000  O
  O39      1.0000 0.94850  0.93370  0.68320  Biso   1.000  O
  O40      1.0000 0.91760  0.02680  0.61510  Biso   1.000  O
  O41      1.0000 0.78870  0.67320  0.18410  Biso   1.000  O
  O42      1.0000 0.89940  0.65850  0.22000  Biso   1.000  O
  O43      1.0000 0.93360  0.51620  0.17780  Biso   1.000  O
  O44      1.0000 0.02560  0.57260  0.14530  Biso   1.000  O
  O45      1.0000 0.86470  0.55690  0.81540  Biso   1.000  O
  O46      1.0000 0.97060  0.59620  0.83260  Biso   1.000  O
  O47      1.0000 0.73240  0.67870  0.88930  Biso   1.000  O
  O48      1.0000 0.82310  0.71160  0.82960  Biso   1.000  O
  C41      1.0000 0.89700  0.88610  0.42070  Biso   1.000  C
  C42      1.0000 0.85410  0.82980  0.43290  Biso   1.000  C
  C43      1.0000 0.83190  0.81800  0.50820  Biso   1.000  C
  H9       1.0000 0.80320  0.78040  0.51670  Biso   1.000  H
  C44      1.0000 0.85160  0.86110  0.57020  Biso   1.000  C
  C45      1.0000 0.89460  0.91760  0.55800  Biso   1.000  C
  C46      1.0000 0.91660  0.92950  0.48320  Biso   1.000  C
  H10      1.0000 0.94510  0.96730  0.47470  Biso   1.000  H
  C47      1.0000 0.92650  0.89630  0.34210  Biso   1.000  C
  C48      1.0000 0.82690  0.78250  0.36900  Biso   1.000  C
  C49      1.0000 0.81990  0.84970  0.64750  Biso   1.000  C
  C50      1.0000 0.92150  0.96370  0.62420  Biso   1.000  C
  C51      1.0000 0.86420  0.63890  0.08890  Biso   1.000  C
  C52      1.0000 0.92000  0.59740  0.07490  Biso   1.000  C
  C53      1.0000 0.93580  0.58490  0.99780  Biso   1.000  C
  H11      1.0000 0.97420  0.55840  0.98820  Biso   1.000  H
  C54      1.0000 0.89600  0.61110  0.93490  Biso   1.000  C
  C55      1.0000 0.83930  0.65090  0.94930  Biso   1.000  C
  C56      1.0000 0.82510  0.66570  0.02670  Biso   1.000  C
  H12      1.0000 0.78820  0.69440  0.03650  Biso   1.000  H
  C57      1.0000 0.84870  0.65810  0.17090  Biso   1.000  C
  C58      1.0000 0.96270  0.56140  0.13810  Biso   1.000  C
  C59      1.0000 0.91120  0.58740  0.85340  Biso   1.000  C
  C60      1.0000 0.79380  0.68150  0.88370  Biso   1.000  C
  Zn7      1.0000 0.23956  0.24075  0.24597  Biso   1.000  Zn
  Zn8      1.0000 0.40628  0.15092  0.33512  Biso   1.000  Zn
  O49      1.0000 0.43540  0.45970  0.32210  Biso   1.000  O
  O50      1.0000 0.44210  0.34570  0.30430  Biso   1.000  O
  O51      1.0000 0.29270  0.30820  0.31260  Biso   1.000  O
  O52      1.0000 0.33650  0.21760  0.37850  Biso   1.000  O
  O53      1.0000 0.32290  0.28920  0.67450  Biso   1.000  O
  O54      1.0000 0.29270  0.40070  0.67780  Biso   1.000  O
  O55      1.0000 0.44850  0.43370  0.68320  Biso   1.000  O
  O56      1.0000 0.41760  0.52680  0.61510  Biso   1.000  O
  O57      1.0000 0.28870  0.17320  0.18410  Biso   1.000  O
  O58      1.0000 0.39940  0.15850  0.22000  Biso   1.000  O
  O59      1.0000 0.43360  0.01620  0.17780  Biso   1.000  O
  O60      1.0000 0.52560  0.07260  0.14530  Biso   1.000  O
  O61      1.0000 0.36470  0.05690  0.81540  Biso   1.000  O
  O62      1.0000 0.47060  0.09620  0.83260  Biso   1.000  O
  O63      1.0000 0.23240  0.17870  0.88930  Biso   1.000  O
  O64      1.0000 0.32310  0.21160  0.82960  Biso   1.000  O
  C61      1.0000 0.39700  0.38610  0.42070  Biso   1.000  C
  C62      1.0000 0.35410  0.32980  0.43290  Biso   1.000  C
  C63      1.0000 0.33190  0.31800  0.50820  Biso   1.000  C
  H13      1.0000 0.30320  0.28040  0.51670  Biso   1.000  H
  C64      1.0000 0.35160  0.36110  0.57020  Biso   1.000  C
  C65      1.0000 0.39460  0.41760  0.55800  Biso   1.000  C
  C66      1.0000 0.41660  0.42950  0.48320  Biso   1.000  C
  H14      1.0000 0.44510  0.46730  0.47470  Biso   1.000  H
  C67      1.0000 0.42650  0.39630  0.34210  Biso   1.000  C
  C68      1.0000 0.32690  0.28250  0.36900  Biso   1.000  C
  C69      1.0000 0.31990  0.34970  0.64750  Biso   1.000  C
  C70      1.0000 0.42150  0.46370  0.62420  Biso   1.000  C
  C71      1.0000 0.36420  0.13890  0.08890  Biso   1.000  C
  C72      1.0000 0.42000  0.09740  0.07490  Biso   1.000  C
  C73      1.0000 0.43580  0.08490  0.99780  Biso   1.000  C
  H15      1.0000 0.47420  0.05840  0.98820  Biso   1.000  H
  C74      1.0000 0.39600  0.11110  0.93490  Biso   1.000  C
  C75      1.0000 0.33930  0.15090  0.94930  Biso   1.000  C
  C76      1.0000 0.32510  0.16570  0.02670  Biso   1.000  C
  H16      1.0000 0.28820  0.19440  0.03650  Biso   1.000  H
  C77      1.0000 0.34870  0.15810  0.17090  Biso   1.000  C
  C78      1.0000 0.46270  0.06140  0.13810  Biso   1.000  C
  C79      1.0000 0.41120  0.08740  0.85340  Biso   1.000  C
  C80      1.0000 0.29380  0.18150  0.88370  Biso   1.000  C
  Zn9      1.0000 0.73956  0.25925  0.74597  Biso   1.000  Zn
  Zn10     1.0000 0.90628  0.34908  0.83512  Biso   1.000  Zn
  O65      1.0000 0.93540  0.04030  0.82210  Biso   1.000  O
  O66      1.0000 0.94210  0.15430  0.80430  Biso   1.000  O
  O67      1.0000 0.79270  0.19180  0.81260  Biso   1.000  O
  O68      1.0000 0.83650  0.28240  0.87850  Biso   1.000  O
  O69      1.0000 0.82290  0.21080  0.17450  Biso   1.000  O
  O70      1.0000 0.79270  0.09930  0.17780  Biso   1.000  O
  O71      1.0000 0.94850  0.06630  0.18320  Biso   1.000  O
  O72      1.0000 0.91760  0.97320  0.11510  Biso   1.000  O
  O73      1.0000 0.78870  0.32680  0.68410  Biso   1.000  O
  O74      1.0000 0.89940  0.34150  0.72000  Biso   1.000  O
  O75      1.0000 0.93360  0.48380  0.67780  Biso   1.000  O
  O76      1.0000 0.02560  0.42740  0.64530  Biso   1.000  O
  O77      1.0000 0.86470  0.44310  0.31540  Biso   1.000  O
  O78      1.0000 0.97060  0.40380  0.33260  Biso   1.000  O
  O79      1.0000 0.73240  0.32130  0.38930  Biso   1.000  O
  O80      1.0000 0.82310  0.28840  0.32960  Biso   1.000  O
  C81      1.0000 0.89700  0.11390  0.92070  Biso   1.000  C
  C82      1.0000 0.85410  0.17020  0.93290  Biso   1.000  C
  C83      1.0000 0.83190  0.18200  0.00820  Biso   1.000  C
  H17      1.0000 0.80320  0.21960  0.01670  Biso   1.000  H
  C84      1.0000 0.85160  0.13890  0.07020  Biso   1.000  C
  C85      1.0000 0.89460  0.08240  0.05800  Biso   1.000  C
  C86      1.0000 0.91660  0.07050  0.98320  Biso   1.000  C
  H18      1.0000 0.94510  0.03270  0.97470  Biso   1.000  H
  C87      1.0000 0.92650  0.10370  0.84210  Biso   1.000  C
  C88      1.0000 0.82690  0.21750  0.86900  Biso   1.000  C
  C89      1.0000 0.81990  0.15030  0.14750  Biso   1.000  C
  C90      1.0000 0.92150  0.03630  0.12420  Biso   1.000  C
  C91      1.0000 0.86420  0.36110  0.58890  Biso   1.000  C
  C92      1.0000 0.92000  0.40260  0.57490  Biso   1.000  C
  C93      1.0000 0.93580  0.41510  0.49780  Biso   1.000  C
  H19      1.0000 0.97420  0.44160  0.48820  Biso   1.000  H
  C94      1.0000 0.89600  0.38890  0.43490  Biso   1.000  C
  C95      1.0000 0.83930  0.34910  0.44930  Biso   1.000  C
  C96      1.0000 0.82510  0.33430  0.52670  Biso   1.000  C
  H20      1.0000 0.78820  0.30560  0.53650  Biso   1.000  H
  C97      1.0000 0.84870  0.34190  0.67090  Biso   1.000  C
  C98      1.0000 0.96270  0.43860  0.63810  Biso   1.000  C
  C99      1.0000 0.91120  0.41260  0.35340  Biso   1.000  C
  C100     1.0000 0.79380  0.31850  0.38370  Biso   1.000  C
  Zn11     1.0000 0.23956  0.75925  0.74597  Biso   1.000  Zn
  Zn12     1.0000 0.40628  0.84908  0.83512  Biso   1.000  Zn
  O81      1.0000 0.43540  0.54030  0.82210  Biso   1.000  O
  O82      1.0000 0.44210  0.65430  0.80430  Biso   1.000  O
  O83      1.0000 0.29270  0.69180  0.81260  Biso   1.000  O
  O84      1.0000 0.33650  0.78240  0.87850  Biso   1.000  O
  O85      1.0000 0.32290  0.71080  0.17450  Biso   1.000  O
  O86      1.0000 0.29270  0.59930  0.17780  Biso   1.000  O
  O87      1.0000 0.44850  0.56630  0.18320  Biso   1.000  O
  O88      1.0000 0.41760  0.47320  0.11510  Biso   1.000  O
  O89      1.0000 0.28870  0.82680  0.68410  Biso   1.000  O
  O90      1.0000 0.39940  0.84150  0.72000  Biso   1.000  O
  O91      1.0000 0.43360  0.98380  0.67780  Biso   1.000  O
  O92      1.0000 0.52560  0.92740  0.64530  Biso   1.000  O
  O93      1.0000 0.36470  0.94310  0.31540  Biso   1.000  O
  O94      1.0000 0.47060  0.90380  0.33260  Biso   1.000  O
  O95      1.0000 0.23240  0.82130  0.38930  Biso   1.000  O
  O96      1.0000 0.32310  0.78840  0.32960  Biso   1.000  O
  C101     1.0000 0.39700  0.61390  0.92070  Biso   1.000  C
  C102     1.0000 0.35410  0.67020  0.93290  Biso   1.000  C
  C103     1.0000 0.33190  0.68200  0.00820  Biso   1.000  C
  H21      1.0000 0.30320  0.71960  0.01670  Biso   1.000  H
  C104     1.0000 0.35160  0.63890  0.07020  Biso   1.000  C
  C105     1.0000 0.39460  0.58240  0.05800  Biso   1.000  C
  C106     1.0000 0.41660  0.57050  0.98320  Biso   1.000  C
  H22      1.0000 0.44510  0.53270  0.97470  Biso   1.000  H
  C107     1.0000 0.42650  0.60370  0.84210  Biso   1.000  C
  C108     1.0000 0.32690  0.71750  0.86900  Biso   1.000  C
  C109     1.0000 0.31990  0.65030  0.14750  Biso   1.000  C
  C110     1.0000 0.42150  0.53630  0.12420  Biso   1.000  C
  C111     1.0000 0.36420  0.86110  0.58890  Biso   1.000  C
  C112     1.0000 0.42000  0.90260  0.57490  Biso   1.000  C
  C113     1.0000 0.43580  0.91510  0.49780  Biso   1.000  C
  H23      1.0000 0.47420  0.94160  0.48820  Biso   1.000  H
  C114     1.0000 0.39600  0.88890  0.43490  Biso   1.000  C
  C115     1.0000 0.33930  0.84910  0.44930  Biso   1.000  C
  C116     1.0000 0.32510  0.83430  0.52670  Biso   1.000  C
  H24      1.0000 0.28820  0.80560  0.53650  Biso   1.000  H
  C117     1.0000 0.34870  0.84190  0.67090  Biso   1.000  C
  C118     1.0000 0.46270  0.93860  0.63810  Biso   1.000  C
  C119     1.0000 0.41120  0.91260  0.35340  Biso   1.000  C
  C120     1.0000 0.29380  0.81850  0.38370  Biso   1.000  C
  Zn13     1.0000 0.26044  0.25925  0.75403  Biso   1.000  Zn
  Zn14     1.0000 0.09372  0.34908  0.66488  Biso   1.000  Zn
  O97      1.0000 0.06460  0.04030  0.67790  Biso   1.000  O
  O98      1.0000 0.05790  0.15430  0.69570  Biso   1.000  O
  O99      1.0000 0.20730  0.19180  0.68740  Biso   1.000  O
  O100     1.0000 0.16350  0.28240  0.62150  Biso   1.000  O
  O101     1.0000 0.17710  0.21080  0.32550  Biso   1.000  O
  O102     1.0000 0.20730  0.09930  0.32220  Biso   1.000  O
  O103     1.0000 0.05150  0.06630  0.31680  Biso   1.000  O
  O104     1.0000 0.08240  0.97320  0.38490  Biso   1.000  O
  O105     1.0000 0.21130  0.32680  0.81590  Biso   1.000  O
  O106     1.0000 0.10060  0.34150  0.78000  Biso   1.000  O
  O107     1.0000 0.06640  0.48380  0.82220  Biso   1.000  O
  O108     1.0000 0.97440  0.42740  0.85470  Biso   1.000  O
  O109     1.0000 0.13530  0.44310  0.18460  Biso   1.000  O
  O110     1.0000 0.02940  0.40380  0.16740  Biso   1.000  O
  O111     1.0000 0.26760  0.32130  0.11070  Biso   1.000  O
  O112     1.0000 0.17690  0.28840  0.17040  Biso   1.000  O
  C121     1.0000 0.10300  0.11390  0.57930  Biso   1.000  C
  C122     1.0000 0.14590  0.17020  0.56710  Biso   1.000  C
  C123     1.0000 0.16810  0.18200  0.49180  Biso   1.000  C
  H25      1.0000 0.19680  0.21960  0.48330  Biso   1.000  H
  C124     1.0000 0.14840  0.13890  0.42980  Biso   1.000  C
  C125     1.0000 0.10540  0.08240  0.44200  Biso   1.000  C
  C126     1.0000 0.08340  0.07050  0.51680  Biso   1.000  C
  H26      1.0000 0.05490  0.03270  0.52530  Biso   1.000  H
  C127     1.0000 0.07350  0.10370  0.65790  Biso   1.000  C
  C128     1.0000 0.17310  0.21750  0.63100  Biso   1.000  C
  C129     1.0000 0.18010  0.15030  0.35250  Biso   1.000  C
  C130     1.0000 0.07850  0.03630  0.37580  Biso   1.000  C
  C131     1.0000 0.13580  0.36110  0.91110  Biso   1.000  C
  C132     1.0000 0.08000  0.40260  0.92510  Biso   1.000  C
  C133     1.0000 0.06420  0.41510  0.00220  Biso   1.000  C
  H27      1.0000 0.02580  0.44160  0.01180  Biso   1.000  H
  C134     1.0000 0.10400  0.38890  0.06510  Biso   1.000  C
  C135     1.0000 0.16070  0.34910  0.05070  Biso   1.000  C
  C136     1.0000 0.17490  0.33430  0.97330  Biso   1.000  C
  H28      1.0000 0.21180  0.30560  0.96350  Biso   1.000  H
  C137     1.0000 0.15130  0.34190  0.82910  Biso   1.000  C
  C138     1.0000 0.03730  0.43860  0.86190  Biso   1.000  C
  C139     1.0000 0.08880  0.41260  0.14660  Biso   1.000  C
  C140     1.0000 0.20620  0.31850  0.11630  Biso   1.000  C
  Zn15     1.0000 0.76044  0.75925  0.75403  Biso   1.000  Zn
  Zn16     1.0000 0.59372  0.84908  0.66488  Biso   1.000  Zn
  O113     1.0000 0.56460  0.54030  0.67790  Biso   1.000  O
  O114     1.0000 0.55790  0.65430  0.69570  Biso   1.000  O
  O115     1.0000 0.70730  0.69180  0.68740  Biso   1.000  O
  O116     1.0000 0.66350  0.78240  0.62150  Biso   1.000  O
  O117     1.0000 0.67710  0.71080  0.32550  Biso   1.000  O
  O118     1.0000 0.70730  0.59930  0.32220  Biso   1.000  O
  O119     1.0000 0.55150  0.56630  0.31680  Biso   1.000  O
  O120     1.0000 0.58240  0.47320  0.38490  Biso   1.000  O
  O121     1.0000 0.71130  0.82680  0.81590  Biso   1.000  O
  O122     1.0000 0.60060  0.84150  0.78000  Biso   1.000  O
  O123     1.0000 0.56640  0.98380  0.82220  Biso   1.000  O
  O124     1.0000 0.47440  0.92740  0.85470  Biso   1.000  O
  O125     1.0000 0.63530  0.94310  0.18460  Biso   1.000  O
  O126     1.0000 0.52940  0.90380  0.16740  Biso   1.000  O
  O127     1.0000 0.76760  0.82130  0.11070  Biso   1.000  O
  O128     1.0000 0.67690  0.78840  0.17040  Biso   1.000  O
  C141     1.0000 0.60300  0.61390  0.57930  Biso   1.000  C
  C142     1.0000 0.64590  0.67020  0.56710  Biso   1.000  C
  C143     1.0000 0.66810  0.68200  0.49180  Biso   1.000  C
  H29      1.0000 0.69680  0.71960  0.48330  Biso   1.000  H
  C144     1.0000 0.64840  0.63890  0.42980  Biso   1.000  C
  C145     1.0000 0.60540  0.58240  0.44200  Biso   1.000  C
  C146     1.0000 0.58340  0.57050  0.51680  Biso   1.000  C
  H30      1.0000 0.55490  0.53270  0.52530  Biso   1.000  H
  C147     1.0000 0.57350  0.60370  0.65790  Biso   1.000  C
  C148     1.0000 0.67310  0.71750  0.63100  Biso   1.000  C
  C149     1.0000 0.68010  0.65030  0.35250  Biso   1.000  C
  C150     1.0000 0.57850  0.53630  0.37580  Biso   1.000  C
  C151     1.0000 0.63580  0.86110  0.91110  Biso   1.000  C
  C152     1.0000 0.58000  0.90260  0.92510  Biso   1.000  C
  C153     1.0000 0.56420  0.91510  0.00220  Biso   1.000  C
  H31      1.0000 0.52580  0.94160  0.01180  Biso   1.000  H
  C154     1.0000 0.60400  0.88890  0.06510  Biso   1.000  C
  C155     1.0000 0.66070  0.84910  0.05070  Biso   1.000  C
  C156     1.0000 0.67490  0.83430  0.97330  Biso   1.000  C
  H32      1.0000 0.71180  0.80560  0.96350  Biso   1.000  H
  C157     1.0000 0.65130  0.84190  0.82910  Biso   1.000  C
  C158     1.0000 0.53730  0.93860  0.86190  Biso   1.000  C
  C159     1.0000 0.58880  0.91260  0.14660  Biso   1.000  C
  C160     1.0000 0.70620  0.81850  0.11630  Biso   1.000  C
  Zn17     1.0000 0.00000  0.99559  0.25000  Biso   1.000  Zn
  Zn18     1.0000 0.00000  0.46607  0.25000  Biso   1.000  Zn
  Zn19     1.0000 0.50000  0.49559  0.25000  Biso   1.000  Zn
  Zn20     1.0000 0.50000  0.96607  0.25000  Biso   1.000  Zn
  Zn21     1.0000 0.00000  0.00441  0.75000  Biso   1.000  Zn
  Zn22     1.0000 0.00000  0.53393  0.75000  Biso   1.000  Zn
  Zn23     1.0000 0.50000  0.50441  0.75000  Biso   1.000  Zn
  Zn24     1.0000 0.50000  0.03393  0.75000  Biso   1.000  Zn
