data_AZOBUN_clean
_audit_creation_date              2014-07-02
_audit_creation_method            'Materials Studio'
_symmetry_space_group_name_H-M    'P1'
_symmetry_Int_Tables_number       1
_symmetry_cell_setting            triclinic
loop_
_symmetry_equiv_pos_as_xyz
  x,y,z
_cell_length_a                    10.1457
_cell_length_b                    10.8728
_cell_length_c                    13.7552
_cell_angle_alpha                 79.1230
_cell_angle_beta                  78.8440
_cell_angle_gamma                 86.3170
loop_
_atom_site_label
_atom_site_type_symbol
_atom_site_fract_x
_atom_site_fract_y
_atom_site_fract_z
_atom_site_U_iso_or_equiv
_atom_site_adp_type
_atom_site_occupancy
Gd1    Gd    0.31927   0.92246   0.29711   0.01267  Uiso   1.00
Gd2    Gd    0.68073   0.07754   0.70289   0.01267  Uiso   1.00
Co1    Co    0.00000   0.50000   0.50000   0.01267  Uiso   1.00
H1     H     0.32640   0.66920   0.15420   0.01267  Uiso   1.00
H2     H     0.34610   0.32970   0.07650   0.01267  Uiso   1.00
H3     H     0.28240   0.35950   0.36830   0.01267  Uiso   1.00
H4     H     0.34640   0.77310   0.85110   0.01267  Uiso   1.00
H5     H     0.35370   0.88050   0.69170   0.01267  Uiso   1.00
H6     H     0.36530   0.57440   0.58480   0.01267  Uiso   1.00
H7     H     0.35580   0.45460   0.74260   0.01267  Uiso   1.00
H8     H     0.82450   0.91160   0.28140   0.01267  Uiso   1.00
H9     H     0.69570   0.85150   0.03660   0.01267  Uiso   1.00
H10    H     0.08930   0.84260   0.03970   0.01267  Uiso   1.00
H11    H     0.01830   0.82890   0.71540   0.01267  Uiso   1.00
H12    H     0.03300   0.74680   0.57140   0.01267  Uiso   1.00
H13    H     0.01390   0.40770   0.72390   0.01267  Uiso   1.00
H14    H     0.01050   0.47750   0.86990   0.01267  Uiso   1.00
H15    H     0.37670   0.64610   0.98270   0.01267  Uiso   1.00
H16    H     0.87960   0.83960   0.88170   0.01267  Uiso   1.00
H17    H     0.67360   0.33080   0.84580   0.01267  Uiso   1.00
H18    H     0.65390   0.67030   0.92350   0.01267  Uiso   1.00
H19    H     0.71760   0.64050   0.63170   0.01267  Uiso   1.00
H20    H     0.65360   0.22690   0.14890   0.01267  Uiso   1.00
H21    H     0.64630   0.11950   0.30830   0.01267  Uiso   1.00
H22    H     0.63470   0.42560   0.41520   0.01267  Uiso   1.00
H23    H     0.64420   0.54540   0.25740   0.01267  Uiso   1.00
H24    H     0.17550   0.08840   0.71860   0.01267  Uiso   1.00
H25    H     0.30430   0.14850   0.96340   0.01267  Uiso   1.00
H26    H     0.91070   0.15740   0.96030   0.01267  Uiso   1.00
H27    H     0.98170   0.17110   0.28460   0.01267  Uiso   1.00
H28    H     0.96700   0.25320   0.42860   0.01267  Uiso   1.00
H29    H     0.98610   0.59230   0.27610   0.01267  Uiso   1.00
H30    H     0.98950   0.52250   0.13010   0.01267  Uiso   1.00
H31    H     0.62330   0.35390   0.01730   0.01267  Uiso   1.00
H32    H     0.12040   0.16040   0.11830   0.01267  Uiso   1.00
C1     C     0.29790   0.52670   0.27380   0.01267  Uiso   1.00
C2     C     0.32110   0.58260   0.17230   0.01267  Uiso   1.00
C3     C     0.33610   0.50930   0.09810   0.01267  Uiso   1.00
C4     C     0.33470   0.37960   0.12570   0.01267  Uiso   1.00
C5     C     0.31620   0.32510   0.22660   0.01267  Uiso   1.00
C6     C     0.29650   0.39730   0.30070   0.01267  Uiso   1.00
C7     C     0.31350   0.18570   0.25310   0.01267  Uiso   1.00
C8     C     0.26670   0.60600   0.35460   0.01267  Uiso   1.00
C9     C     0.33470   0.51700   0.91900   0.01267  Uiso   1.00
C10    C     0.34800   0.60000   0.81690   0.01267  Uiso   1.00
C11    C     0.34900   0.72980   0.79850   0.01267  Uiso   1.00
C12    C     0.35380   0.79350   0.70230   0.01267  Uiso   1.00
C13    C     0.36020   0.61460   0.63940   0.01267  Uiso   1.00
C14    C     0.35490   0.54160   0.73430   0.01267  Uiso   1.00
C15    C     0.97430   0.87930   0.16810   0.01267  Uiso   1.00
C16    C     0.84230   0.89490   0.21610   0.01267  Uiso   1.00
C17    C     0.73810   0.88590   0.16750   0.01267  Uiso   1.00
C18    C     0.76580   0.85720   0.07000   0.01267  Uiso   1.00
C19    C     0.89670   0.83750   0.02360   0.01267  Uiso   1.00
C20    C     0.00080   0.85170   0.07200   0.01267  Uiso   1.00
C21    C     0.09110   0.89100   0.21670   0.01267  Uiso   1.00
C22    C     0.59380   0.90170   0.21540   0.01267  Uiso   1.00
C23    C     0.00610   0.70360   0.90810   0.01267  Uiso   1.00
C24    C     0.00910   0.66070   0.80980   0.01267  Uiso   1.00
C25    C     0.01760   0.74280   0.71860   0.01267  Uiso   1.00
C26    C     0.02480   0.69220   0.63290   0.01267  Uiso   1.00
C27    C     0.01520   0.49350   0.72210   0.01267  Uiso   1.00
C28    C     0.01150   0.53450   0.81020   0.01267  Uiso   1.00
C29    C     0.70210   0.47330   0.72620   0.01267  Uiso   1.00
C30    C     0.67890   0.41740   0.82770   0.01267  Uiso   1.00
C31    C     0.66390   0.49070   0.90190   0.01267  Uiso   1.00
C32    C     0.66530   0.62040   0.87430   0.01267  Uiso   1.00
C33    C     0.68380   0.67490   0.77340   0.01267  Uiso   1.00
C34    C     0.70350   0.60270   0.69930   0.01267  Uiso   1.00
C35    C     0.68650   0.81430   0.74690   0.01267  Uiso   1.00
C36    C     0.73330   0.39400   0.64540   0.01267  Uiso   1.00
C37    C     0.66530   0.48300   0.08100   0.01267  Uiso   1.00
C38    C     0.65200   0.40000   0.18310   0.01267  Uiso   1.00
C39    C     0.65100   0.27020   0.20150   0.01267  Uiso   1.00
C40    C     0.64620   0.20650   0.29770   0.01267  Uiso   1.00
C41    C     0.63980   0.38540   0.36060   0.01267  Uiso   1.00
C42    C     0.64510   0.45840   0.26570   0.01267  Uiso   1.00
C43    C     0.02570   0.12070   0.83190   0.01267  Uiso   1.00
C44    C     0.15770   0.10510   0.78390   0.01267  Uiso   1.00
C45    C     0.26190   0.11410   0.83250   0.01267  Uiso   1.00
C46    C     0.23420   0.14280   0.93000   0.01267  Uiso   1.00
C47    C     0.10330   0.16250   0.97640   0.01267  Uiso   1.00
C48    C     0.99920   0.14830   0.92800   0.01267  Uiso   1.00
C49    C     0.90890   0.10900   0.78330   0.01267  Uiso   1.00
C50    C     0.40620   0.09830   0.78460   0.01267  Uiso   1.00
C51    C     0.99390   0.29640   0.09190   0.01267  Uiso   1.00
C52    C     0.99090   0.33930   0.19020   0.01267  Uiso   1.00
C53    C     0.98240   0.25720   0.28140   0.01267  Uiso   1.00
C54    C     0.97520   0.30780   0.36710   0.01267  Uiso   1.00
C55    C     0.98480   0.50650   0.27790   0.01267  Uiso   1.00
C56    C     0.98850   0.46550   0.18980   0.01267  Uiso   1.00
N1     N     0.35280   0.56940   0.99640   0.01267  Uiso   1.00
N2     N     0.35850   0.73880   0.62290   0.01267  Uiso   1.00
N3     N     0.92060   0.80000   0.92800   0.01267  Uiso   1.00
N4     N     0.02070   0.57010   0.63290   0.01267  Uiso   1.00
N5     N     0.64720   0.43060   0.00360   0.01267  Uiso   1.00
N6     N     0.64150   0.26120   0.37710   0.01267  Uiso   1.00
N7     N     0.07940   0.20000   0.07200   0.01267  Uiso   1.00
N8     N     0.97930   0.42990   0.36710   0.01267  Uiso   1.00
O1     O     0.19230   0.56320   0.43560   0.01267  Uiso   1.00
O2     O     0.31870   0.71230   0.33590   0.01267  Uiso   1.00
O3     O     0.32860   0.12960   0.33840   0.01267  Uiso   1.00
O4     O     0.29340   0.12270   0.18970   0.01267  Uiso   1.00
O5     O     0.30890   0.40870   0.92620   0.01267  Uiso   1.00
O6     O     0.07330   0.90540   0.30840   0.01267  Uiso   1.00
O7     O     0.20750   0.88520   0.16650   0.01267  Uiso   1.00
O8     O     0.56040   0.90060   0.30850   0.01267  Uiso   1.00
O9     O     0.50460   0.91460   0.16220   0.01267  Uiso   1.00
O10    O     0.07590   0.64880   0.96680   0.01267  Uiso   1.00
O11    O     0.80770   0.43680   0.56440   0.01267  Uiso   1.00
O12    O     0.68130   0.28770   0.66410   0.01267  Uiso   1.00
O13    O     0.67140   0.87040   0.66160   0.01267  Uiso   1.00
O14    O     0.70660   0.87730   0.81030   0.01267  Uiso   1.00
O15    O     0.69110   0.59130   0.07380   0.01267  Uiso   1.00
O16    O     0.92670   0.09460   0.69160   0.01267  Uiso   1.00
O17    O     0.79250   0.11480   0.83350   0.01267  Uiso   1.00
O18    O     0.43960   0.09940   0.69150   0.01267  Uiso   1.00
O19    O     0.49540   0.08540   0.83780   0.01267  Uiso   1.00
O20    O     0.92410   0.35120   0.03320   0.01267  Uiso   1.00
