data_BACMOH10_clean
_audit_creation_date              2014-07-02
_audit_creation_method            'Materials Studio'
_symmetry_space_group_name_H-M    'P1'
_symmetry_Int_Tables_number       1
_symmetry_cell_setting            triclinic
loop_
_symmetry_equiv_pos_as_xyz
  x,y,z
_cell_length_a                    7.4650
_cell_length_b                    9.6220
_cell_length_c                    16.0490
_cell_angle_alpha                 90.0000
_cell_angle_beta                  90.0000
_cell_angle_gamma                 90.0000
loop_
_atom_site_label
_atom_site_type_symbol
_atom_site_fract_x
_atom_site_fract_y
_atom_site_fract_z
_atom_site_U_iso_or_equiv
_atom_site_adp_type
_atom_site_occupancy
Cu1    Cu    0.74020   0.84170   0.83440   0.01267  Uiso   1.00
Cu2    Cu    0.75980   0.34170   0.16560   0.01267  Uiso   1.00
H1     H     0.72630   0.22620   0.84750   0.01267  Uiso   1.00
H2     H     0.61570   0.01710   0.93340   0.01267  Uiso   1.00
H3     H     0.53890   0.04880   0.84010   0.01267  Uiso   1.00
H4     H     0.93890   0.06780   0.95930   0.01267  Uiso   1.00
H5     H     0.00170   0.21950   0.92430   0.01267  Uiso   1.00
H6     H     0.87070   0.52770   0.87020   0.01267  Uiso   1.00
H7     H     0.96680   0.36450   0.75430   0.01267  Uiso   1.00
H8     H     0.95640   0.50470   0.62050   0.01267  Uiso   1.00
H9     H     0.86050   0.74640   0.65340   0.01267  Uiso   1.00
H10    H     0.77370   0.72620   0.15250   0.01267  Uiso   1.00
H11    H     0.88430   0.51710   0.06660   0.01267  Uiso   1.00
H12    H     0.96110   0.54880   0.15990   0.01267  Uiso   1.00
H13    H     0.56110   0.56780   0.04070   0.01267  Uiso   1.00
H14    H     0.49830   0.71950   0.07570   0.01267  Uiso   1.00
H15    H     0.62930   0.02770   0.12980   0.01267  Uiso   1.00
H16    H     0.53320   0.86450   0.24570   0.01267  Uiso   1.00
H17    H     0.54360   0.00470   0.37950   0.01267  Uiso   1.00
H18    H     0.63950   0.24640   0.34660   0.01267  Uiso   1.00
C1     C     0.90190   0.09340   0.78740   0.01267  Uiso   1.00
C2     C     0.78890   0.13750   0.86190   0.01267  Uiso   1.00
C3     C     0.89640   0.16060   0.93950   0.01267  Uiso   1.00
C4     C     0.80390   0.22900   0.01000   0.01267  Uiso   1.00
C5     C     0.87960   0.55260   0.80990   0.01267  Uiso   1.00
C6     C     0.92600   0.54030   0.67730   0.01267  Uiso   1.00
C7     C     0.87410   0.66880   0.69440   0.01267  Uiso   1.00
C8     C     0.59810   0.59340   0.21260   0.01267  Uiso   1.00
C9     C     0.71110   0.63750   0.13810   0.01267  Uiso   1.00
C10    C     0.60360   0.66060   0.06050   0.01267  Uiso   1.00
C11    C     0.69610   0.72900   0.99000   0.01267  Uiso   1.00
C12    C     0.62040   0.05260   0.19010   0.01267  Uiso   1.00
C13    C     0.57400   0.04030   0.32270   0.01267  Uiso   1.00
C14    C     0.62590   0.16880   0.30560   0.01267  Uiso   1.00
N1     N     0.64790   0.02400   0.87310   0.01267  Uiso   1.00
N2     N     0.84240   0.67620   0.77840   0.01267  Uiso   1.00
N3     N     0.93170   0.46430   0.74840   0.01267  Uiso   1.00
N4     N     0.85210   0.52400   0.12690   0.01267  Uiso   1.00
N5     N     0.65760   0.17620   0.22160   0.01267  Uiso   1.00
N6     N     0.56830   0.96430   0.25160   0.01267  Uiso   1.00
O1     O     0.99680   0.18430   0.75900   0.01267  Uiso   1.00
O2     O     0.90120   0.96770   0.77030   0.01267  Uiso   1.00
O3     O     0.87540   0.22810   0.08130   0.01267  Uiso   1.00
O4     O     0.66330   0.29350   0.99810   0.01267  Uiso   1.00
O5     O     0.50320   0.68430   0.24100   0.01267  Uiso   1.00
O6     O     0.59880   0.46770   0.22970   0.01267  Uiso   1.00
O7     O     0.62460   0.72810   0.91870   0.01267  Uiso   1.00
O8     O     0.83670   0.79350   0.00190   0.01267  Uiso   1.00
Cu3    Cu    0.24020   0.15830   0.66560   0.01267  Uiso   1.00
Cu4    Cu    0.25980   0.65830   0.33440   0.01267  Uiso   1.00
H19    H     0.22630   0.77380   0.65250   0.01267  Uiso   1.00
H20    H     0.11570   0.98290   0.56660   0.01267  Uiso   1.00
H21    H     0.03890   0.95120   0.65990   0.01267  Uiso   1.00
H22    H     0.43890   0.93220   0.54070   0.01267  Uiso   1.00
H23    H     0.50170   0.78050   0.57570   0.01267  Uiso   1.00
H24    H     0.37070   0.47230   0.62980   0.01267  Uiso   1.00
H25    H     0.46680   0.63550   0.74570   0.01267  Uiso   1.00
H26    H     0.45640   0.49530   0.87950   0.01267  Uiso   1.00
H27    H     0.36050   0.25360   0.84660   0.01267  Uiso   1.00
H28    H     0.27370   0.27380   0.34750   0.01267  Uiso   1.00
H29    H     0.38430   0.48290   0.43340   0.01267  Uiso   1.00
H30    H     0.46110   0.45120   0.34010   0.01267  Uiso   1.00
H31    H     0.06110   0.43220   0.45930   0.01267  Uiso   1.00
H32    H     0.99830   0.28050   0.42430   0.01267  Uiso   1.00
H33    H     0.12930   0.97230   0.37020   0.01267  Uiso   1.00
H34    H     0.03320   0.13550   0.25430   0.01267  Uiso   1.00
H35    H     0.04360   0.99530   0.12050   0.01267  Uiso   1.00
H36    H     0.13950   0.75360   0.15340   0.01267  Uiso   1.00
C15    C     0.40190   0.90660   0.71260   0.01267  Uiso   1.00
C16    C     0.28890   0.86250   0.63810   0.01267  Uiso   1.00
C17    C     0.39640   0.83940   0.56050   0.01267  Uiso   1.00
C18    C     0.30390   0.77100   0.49000   0.01267  Uiso   1.00
C19    C     0.37960   0.44740   0.69010   0.01267  Uiso   1.00
C20    C     0.42600   0.45970   0.82270   0.01267  Uiso   1.00
C21    C     0.37410   0.33120   0.80560   0.01267  Uiso   1.00
C22    C     0.09810   0.40660   0.28740   0.01267  Uiso   1.00
C23    C     0.21110   0.36250   0.36190   0.01267  Uiso   1.00
C24    C     0.10360   0.33940   0.43950   0.01267  Uiso   1.00
C25    C     0.19610   0.27100   0.51000   0.01267  Uiso   1.00
C26    C     0.12040   0.94740   0.30990   0.01267  Uiso   1.00
C27    C     0.07400   0.95970   0.17730   0.01267  Uiso   1.00
C28    C     0.12590   0.83120   0.19440   0.01267  Uiso   1.00
N7     N     0.14790   0.97600   0.62690   0.01267  Uiso   1.00
N8     N     0.34240   0.32380   0.72160   0.01267  Uiso   1.00
N9     N     0.43170   0.53570   0.75160   0.01267  Uiso   1.00
N10    N     0.35210   0.47600   0.37310   0.01267  Uiso   1.00
N11    N     0.15760   0.82380   0.27840   0.01267  Uiso   1.00
N12    N     0.06830   0.03570   0.24840   0.01267  Uiso   1.00
O9     O     0.49680   0.81570   0.74100   0.01267  Uiso   1.00
O10    O     0.40120   0.03230   0.72970   0.01267  Uiso   1.00
O11    O     0.37540   0.77190   0.41870   0.01267  Uiso   1.00
O12    O     0.16330   0.70650   0.50190   0.01267  Uiso   1.00
O13    O     0.00320   0.31570   0.25900   0.01267  Uiso   1.00
O14    O     0.09880   0.53230   0.27030   0.01267  Uiso   1.00
O15    O     0.12460   0.27190   0.58130   0.01267  Uiso   1.00
O16    O     0.33670   0.20650   0.49810   0.01267  Uiso   1.00
