data_image0
_cell_length_a       8.887
_cell_length_b       32.456
_cell_length_c       10.6584
_cell_angle_alpha    90
_cell_angle_beta     112.051
_cell_angle_gamma    90

_symmetry_space_group_name_H-M    "P 1"
_symmetry_int_tables_number       1

loop_
  _symmetry_equiv_pos_as_xyz
  'x, y, z'

loop_
  _atom_site_label
  _atom_site_occupancy
  _atom_site_fract_x
  _atom_site_fract_y
  _atom_site_fract_z
  _atom_site_thermal_displace_type
  _atom_site_B_iso_or_equiv
  _atom_site_type_symbol
  Sc1      1.0000 0.26990  0.61437  0.25540  Biso   1.000  Sc
  Sc2      1.0000 0.77190  0.63740  0.25560  Biso   1.000  Sc
  O1       1.0000 0.36000  0.64330  0.12800  Biso   1.000  O
  O2       1.0000 0.39900  0.56410  0.23900  Biso   1.000  O
  O3       1.0000 0.45700  0.63920  0.42300  Biso   1.000  O
  O4       1.0000 0.63500  0.58440  0.23800  Biso   1.000  O
  O5       1.0000 0.91800  0.81110  0.78800  Biso   1.000  O
  O6       1.0000 0.18200  0.58440  0.38100  Biso   1.000  O
  O7       1.0000 0.57600  0.66760  0.10400  Biso   1.000  O
  C1       1.0000 0.44000  0.66880  0.08100  Biso   1.000  C
  C2       1.0000 0.51100  0.55970  0.20200  Biso   1.000  C
  O8       1.0000 0.95900  0.60780  0.40400  Biso   1.000  O
  O9       1.0000 0.84300  0.61320  0.11400  Biso   1.000  O
  O10      1.0000 0.13300  0.83480  0.75600  Biso   1.000  O
  O11      1.0000 0.69000  0.65740  0.40000  Biso   1.000  O
  C3       1.0000 0.61100  0.64500  0.46900  Biso   1.000  C
  O12      1.0000 0.07300  0.59700  0.07900  Biso   1.000  O
  C4       1.0000 0.93600  0.61960  0.80700  Biso   1.000  C
  H1       1.0000 0.04690  0.61390  0.84250  Biso   1.000  H
  C5       1.0000 0.86000  0.62950  0.67000  Biso   1.000  C
  H2       1.0000 0.91970  0.63040  0.61500  Biso   1.000  H
  C6       1.0000 0.69500  0.63790  0.61670  Biso   1.000  C
  C7       1.0000 0.60500  0.63650  0.69900  Biso   1.000  C
  H3       1.0000 0.49470  0.64220  0.66360  Biso   1.000  H
  C8       1.0000 0.68200  0.62670  0.83600  Biso   1.000  C
  H4       1.0000 0.62190  0.62570  0.89100  Biso   1.000  H
  C9       1.0000 0.84700  0.61820  0.88930  Biso   1.000  C
  C10      1.0000 0.92700  0.60940  0.03700  Biso   1.000  C
  C11      1.0000 0.15500  0.76950  0.85100  Biso   1.000  C
  C12      1.0000 0.07520  0.73890  0.89300  Biso   1.000  C
  H5       1.0000 0.96410  0.74090  0.87290  Biso   1.000  H
  C13      1.0000 0.16100  0.70530  0.96600  Biso   1.000  C
  H6       1.0000 0.10790  0.68490  0.99460  Biso   1.000  H
  C14      1.0000 0.32700  0.70230  0.99700  Biso   1.000  C
  C15      1.0000 0.40740  0.73290  0.95500  Biso   1.000  C
  H7       1.0000 0.51850  0.73080  0.97530  Biso   1.000  H
  C16      1.0000 0.32100  0.76640  0.88200  Biso   1.000  C
  H8       1.0000 0.37470  0.78690  0.85360  Biso   1.000  H
  C17      1.0000 0.05100  0.80630  0.79000  Biso   1.000  C
  C18      1.0000 0.50500  0.52890  0.09600  Biso   1.000  C
  C19      1.0000 0.03000  0.53860  0.45700  Biso   1.000  C
  C20      1.0000 0.14400  0.50680  0.47700  Biso   1.000  C
  H9       1.0000 0.24090  0.51200  0.46550  Biso   1.000  H
  C21      1.0000 0.07000  0.58050  0.41700  Biso   1.000  C
  C22      1.0000 0.11400  0.46750  0.51600  Biso   1.000  C
  H10      1.0000 0.18530  0.44590  0.52290  Biso   1.000  H
  C23      1.0000 0.62800  0.52630  0.04600  Biso   1.000  C
  H11      1.0000 0.71740  0.54350  0.08390  Biso   1.000  H
  C24      1.0000 0.62600  0.49980  0.94200  Biso   1.000  C
  H12      1.0000 0.70310  0.50060  0.90230  Biso   1.000  H
  Sc3      1.0000 0.73010  0.11437  0.24460  Biso   1.000  Sc
  Sc4      1.0000 0.22810  0.13740  0.24440  Biso   1.000  Sc
  O13      1.0000 0.64000  0.14330  0.37200  Biso   1.000  O
  O14      1.0000 0.60100  0.06410  0.26100  Biso   1.000  O
  O15      1.0000 0.54300  0.13920  0.07700  Biso   1.000  O
  O16      1.0000 0.36500  0.08440  0.26200  Biso   1.000  O
  O17      1.0000 0.08200  0.31110  0.71200  Biso   1.000  O
  O18      1.0000 0.81800  0.08440  0.11900  Biso   1.000  O
  O19      1.0000 0.42400  0.16760  0.39600  Biso   1.000  O
  C25      1.0000 0.56000  0.16880  0.41900  Biso   1.000  C
  C26      1.0000 0.48900  0.05970  0.29800  Biso   1.000  C
  O20      1.0000 0.04100  0.10780  0.09600  Biso   1.000  O
  O21      1.0000 0.15700  0.11320  0.38600  Biso   1.000  O
  O22      1.0000 0.86700  0.33480  0.74400  Biso   1.000  O
  O23      1.0000 0.31000  0.15740  0.10000  Biso   1.000  O
  C27      1.0000 0.38900  0.14500  0.03100  Biso   1.000  C
  O24      1.0000 0.92700  0.09700  0.42100  Biso   1.000  O
  C28      1.0000 0.06400  0.11960  0.69300  Biso   1.000  C
  H13      1.0000 0.95310  0.11390  0.65750  Biso   1.000  H
  C29      1.0000 0.14000  0.12950  0.83000  Biso   1.000  C
  H14      1.0000 0.08030  0.13040  0.88500  Biso   1.000  H
  C30      1.0000 0.30500  0.13790  0.88330  Biso   1.000  C
  C31      1.0000 0.39500  0.13650  0.80100  Biso   1.000  C
  H15      1.0000 0.50530  0.14220  0.83640  Biso   1.000  H
  C32      1.0000 0.31800  0.12670  0.66400  Biso   1.000  C
  H16      1.0000 0.37810  0.12570  0.60900  Biso   1.000  H
  C33      1.0000 0.15300  0.11820  0.61070  Biso   1.000  C
  C34      1.0000 0.07300  0.10940  0.46300  Biso   1.000  C
  C35      1.0000 0.84500  0.26950  0.64900  Biso   1.000  C
  C36      1.0000 0.92480  0.23890  0.60700  Biso   1.000  C
  H17      1.0000 0.03590  0.24090  0.62710  Biso   1.000  H
  C37      1.0000 0.83900  0.20530  0.53400  Biso   1.000  C
  H18      1.0000 0.89210  0.18490  0.50540  Biso   1.000  H
  C38      1.0000 0.67300  0.20230  0.50300  Biso   1.000  C
  C39      1.0000 0.59260  0.23290  0.54500  Biso   1.000  C
  H19      1.0000 0.48150  0.23080  0.52470  Biso   1.000  H
  C40      1.0000 0.67900  0.26640  0.61800  Biso   1.000  C
  H20      1.0000 0.62530  0.28690  0.64640  Biso   1.000  H
  C41      1.0000 0.94900  0.30630  0.71000  Biso   1.000  C
  C42      1.0000 0.49500  0.02890  0.40400  Biso   1.000  C
  C43      1.0000 0.97000  0.03860  0.04300  Biso   1.000  C
  C44      1.0000 0.85600  0.00680  0.02300  Biso   1.000  C
  H21      1.0000 0.75910  0.01200  0.03450  Biso   1.000  H
  C45      1.0000 0.93000  0.08050  0.08300  Biso   1.000  C
  C46      1.0000 0.88600  0.96750  0.98400  Biso   1.000  C
  H22      1.0000 0.81470  0.94590  0.97710  Biso   1.000  H
  C47      1.0000 0.37200  0.02630  0.45400  Biso   1.000  C
  H23      1.0000 0.28260  0.04350  0.41610  Biso   1.000  H
  C48      1.0000 0.37400  0.99980  0.55800  Biso   1.000  C
  H24      1.0000 0.29690  0.00060  0.59770  Biso   1.000  H
  Sc5      1.0000 0.73010  0.38563  0.74460  Biso   1.000  Sc
  Sc6      1.0000 0.22810  0.36260  0.74440  Biso   1.000  Sc
  O25      1.0000 0.64000  0.35670  0.87200  Biso   1.000  O
  O26      1.0000 0.60100  0.43590  0.76100  Biso   1.000  O
  O27      1.0000 0.54300  0.36080  0.57700  Biso   1.000  O
  O28      1.0000 0.36500  0.41560  0.76200  Biso   1.000  O
  O29      1.0000 0.08200  0.18890  0.21200  Biso   1.000  O
  O30      1.0000 0.81800  0.41560  0.61900  Biso   1.000  O
  O31      1.0000 0.42400  0.33240  0.89600  Biso   1.000  O
  C49      1.0000 0.56000  0.33120  0.91900  Biso   1.000  C
  C50      1.0000 0.48900  0.44030  0.79800  Biso   1.000  C
  O32      1.0000 0.04100  0.39220  0.59600  Biso   1.000  O
  O33      1.0000 0.15700  0.38680  0.88600  Biso   1.000  O
  O34      1.0000 0.86700  0.16520  0.24400  Biso   1.000  O
  O35      1.0000 0.31000  0.34260  0.60000  Biso   1.000  O
  C51      1.0000 0.38900  0.35500  0.53100  Biso   1.000  C
  O36      1.0000 0.92700  0.40300  0.92100  Biso   1.000  O
  C52      1.0000 0.06400  0.38040  0.19300  Biso   1.000  C
  H25      1.0000 0.95310  0.38610  0.15750  Biso   1.000  H
  C53      1.0000 0.14000  0.37050  0.33000  Biso   1.000  C
  H26      1.0000 0.08030  0.36960  0.38500  Biso   1.000  H
  C54      1.0000 0.30500  0.36210  0.38330  Biso   1.000  C
  C55      1.0000 0.39500  0.36350  0.30100  Biso   1.000  C
  H27      1.0000 0.50530  0.35780  0.33640  Biso   1.000  H
  C56      1.0000 0.31800  0.37330  0.16400  Biso   1.000  C
  H28      1.0000 0.37810  0.37430  0.10900  Biso   1.000  H
  C57      1.0000 0.15300  0.38180  0.11070  Biso   1.000  C
  C58      1.0000 0.07300  0.39060  0.96300  Biso   1.000  C
  C59      1.0000 0.84500  0.23050  0.14900  Biso   1.000  C
  C60      1.0000 0.92480  0.26110  0.10700  Biso   1.000  C
  H29      1.0000 0.03590  0.25910  0.12710  Biso   1.000  H
  C61      1.0000 0.83900  0.29470  0.03400  Biso   1.000  C
  H30      1.0000 0.89210  0.31510  0.00540  Biso   1.000  H
  C62      1.0000 0.67300  0.29770  0.00300  Biso   1.000  C
  C63      1.0000 0.59260  0.26710  0.04500  Biso   1.000  C
  H31      1.0000 0.48150  0.26920  0.02470  Biso   1.000  H
  C64      1.0000 0.67900  0.23360  0.11800  Biso   1.000  C
  H32      1.0000 0.62530  0.21310  0.14640  Biso   1.000  H
  C65      1.0000 0.94900  0.19370  0.21000  Biso   1.000  C
  C66      1.0000 0.49500  0.47110  0.90400  Biso   1.000  C
  C67      1.0000 0.97000  0.46140  0.54300  Biso   1.000  C
  C68      1.0000 0.85600  0.49320  0.52300  Biso   1.000  C
  H33      1.0000 0.75910  0.48800  0.53450  Biso   1.000  H
  C69      1.0000 0.93000  0.41950  0.58300  Biso   1.000  C
  C70      1.0000 0.88600  0.53250  0.48400  Biso   1.000  C
  H34      1.0000 0.81470  0.55410  0.47710  Biso   1.000  H
  C71      1.0000 0.37200  0.47370  0.95400  Biso   1.000  C
  H35      1.0000 0.28260  0.45650  0.91610  Biso   1.000  H
  C72      1.0000 0.37400  0.50020  0.05800  Biso   1.000  C
  H36      1.0000 0.29690  0.49940  0.09770  Biso   1.000  H
  Sc7      1.0000 0.26990  0.88563  0.75540  Biso   1.000  Sc
  Sc8      1.0000 0.77190  0.86260  0.75560  Biso   1.000  Sc
  O37      1.0000 0.36000  0.85670  0.62800  Biso   1.000  O
  O38      1.0000 0.39900  0.93590  0.73900  Biso   1.000  O
  O39      1.0000 0.45700  0.86080  0.92300  Biso   1.000  O
  O40      1.0000 0.63500  0.91560  0.73800  Biso   1.000  O
  O41      1.0000 0.91800  0.68890  0.28800  Biso   1.000  O
  O42      1.0000 0.18200  0.91560  0.88100  Biso   1.000  O
  O43      1.0000 0.57600  0.83240  0.60400  Biso   1.000  O
  C73      1.0000 0.44000  0.83120  0.58100  Biso   1.000  C
  C74      1.0000 0.51100  0.94030  0.70200  Biso   1.000  C
  O44      1.0000 0.95900  0.89220  0.90400  Biso   1.000  O
  O45      1.0000 0.84300  0.88680  0.61400  Biso   1.000  O
  O46      1.0000 0.13300  0.66520  0.25600  Biso   1.000  O
  O47      1.0000 0.69000  0.84260  0.90000  Biso   1.000  O
  C75      1.0000 0.61100  0.85500  0.96900  Biso   1.000  C
  O48      1.0000 0.07300  0.90300  0.57900  Biso   1.000  O
  C76      1.0000 0.93600  0.88040  0.30700  Biso   1.000  C
  H37      1.0000 0.04690  0.88610  0.34250  Biso   1.000  H
  C77      1.0000 0.86000  0.87050  0.17000  Biso   1.000  C
  H38      1.0000 0.91970  0.86960  0.11500  Biso   1.000  H
  C78      1.0000 0.69500  0.86210  0.11670  Biso   1.000  C
  C79      1.0000 0.60500  0.86350  0.19900  Biso   1.000  C
  H39      1.0000 0.49470  0.85780  0.16360  Biso   1.000  H
  C80      1.0000 0.68200  0.87330  0.33600  Biso   1.000  C
  H40      1.0000 0.62190  0.87430  0.39100  Biso   1.000  H
  C81      1.0000 0.84700  0.88180  0.38930  Biso   1.000  C
  C82      1.0000 0.92700  0.89060  0.53700  Biso   1.000  C
  C83      1.0000 0.15500  0.73050  0.35100  Biso   1.000  C
  C84      1.0000 0.07520  0.76110  0.39300  Biso   1.000  C
  H41      1.0000 0.96410  0.75910  0.37290  Biso   1.000  H
  C85      1.0000 0.16100  0.79470  0.46600  Biso   1.000  C
  H42      1.0000 0.10790  0.81510  0.49460  Biso   1.000  H
  C86      1.0000 0.32700  0.79770  0.49700  Biso   1.000  C
  C87      1.0000 0.40740  0.76710  0.45500  Biso   1.000  C
  H43      1.0000 0.51850  0.76920  0.47530  Biso   1.000  H
  C88      1.0000 0.32100  0.73360  0.38200  Biso   1.000  C
  H44      1.0000 0.37470  0.71310  0.35360  Biso   1.000  H
  C89      1.0000 0.05100  0.69370  0.29000  Biso   1.000  C
  C90      1.0000 0.50500  0.97110  0.59600  Biso   1.000  C
  C91      1.0000 0.03000  0.96140  0.95700  Biso   1.000  C
  C92      1.0000 0.14400  0.99320  0.97700  Biso   1.000  C
  H45      1.0000 0.24090  0.98800  0.96550  Biso   1.000  H
  C93      1.0000 0.07000  0.91950  0.91700  Biso   1.000  C
  C94      1.0000 0.11400  0.03250  0.01600  Biso   1.000  C
  H46      1.0000 0.18530  0.05410  0.02290  Biso   1.000  H
  C95      1.0000 0.62800  0.97370  0.54600  Biso   1.000  C
  H47      1.0000 0.71740  0.95650  0.58390  Biso   1.000  H
  C96      1.0000 0.62600  0.00020  0.44200  Biso   1.000  C
  H48      1.0000 0.70310  0.99940  0.40230  Biso   1.000  H
