data_image0
_cell_length_a       30.621
_cell_length_b       19.8556
_cell_length_c       14.592
_cell_angle_alpha    90
_cell_angle_beta     102.385
_cell_angle_gamma    90

_symmetry_space_group_name_H-M    "P 1"
_symmetry_int_tables_number       1

loop_
  _symmetry_equiv_pos_as_xyz
  'x, y, z'

loop_
  _atom_site_label
  _atom_site_occupancy
  _atom_site_fract_x
  _atom_site_fract_y
  _atom_site_fract_z
  _atom_site_thermal_displace_type
  _atom_site_B_iso_or_equiv
  _atom_site_type_symbol
  C1       1.0000 0.20690  0.85530  0.94970  Biso   1.000  C
  C2       1.0000 0.17260  0.90590  0.96720  Biso   1.000  C
  C3       1.0000 0.13810  0.92540  0.89830  Biso   1.000  C
  H1       1.0000 0.13440  0.90440  0.84010  Biso   1.000  H
  C4       1.0000 0.10790  0.97520  0.90980  Biso   1.000  C
  H2       1.0000 0.08930  0.99480  0.85800  Biso   1.000  H
  C5       1.0000 0.10620  0.99590  0.00450  Biso   1.000  C
  C6       1.0000 0.14070  0.97640  0.07830  Biso   1.000  C
  H3       1.0000 0.14260  0.99230  0.13900  Biso   1.000  H
  C7       1.0000 0.17300  0.93110  0.05670  Biso   1.000  C
  H4       1.0000 0.19600  0.91720  0.10550  Biso   1.000  H
  C8       1.0000 0.06180  0.06560  0.08870  Biso   1.000  C
  C9       1.0000 0.07120  0.08320  0.24500  Biso   1.000  C
  C10      1.0000 0.01540  0.13830  0.14280  Biso   1.000  C
  C11      1.0000 0.94460  0.18810  0.05410  Biso   1.000  C
  C12      1.0000 0.94460  0.16690  0.96760  Biso   1.000  C
  H5       1.0000 0.96650  0.13780  0.95560  Biso   1.000  H
  C13      1.0000 0.90890  0.19110  0.89280  Biso   1.000  C
  H6       1.0000 0.90990  0.18220  0.83070  Biso   1.000  H
  C14      1.0000 0.87400  0.22640  0.91200  Biso   1.000  C
  C15      1.0000 0.87580  0.24960  0.00550  Biso   1.000  C
  H7       1.0000 0.85300  0.27540  0.02060  Biso   1.000  H
  C16      1.0000 0.91050  0.23310  0.06720  Biso   1.000  C
  H8       1.0000 0.91360  0.25230  0.12640  Biso   1.000  H
  C17      1.0000 0.83470  0.23910  0.83320  Biso   1.000  C
  C18      1.0000 0.21750  0.86560  0.48330  Biso   1.000  C
  C19      1.0000 0.18960  0.92080  0.43820  Biso   1.000  C
  C20      1.0000 0.15530  0.91300  0.36080  Biso   1.000  C
  H9       1.0000 0.15380  0.87150  0.33080  Biso   1.000  H
  C21      1.0000 0.12360  0.95840  0.32290  Biso   1.000  C
  H10      1.0000 0.10040  0.94810  0.27230  Biso   1.000  H
  C22      1.0000 0.12840  0.02420  0.36720  Biso   1.000  C
  C23      1.0000 0.16330  0.03700  0.44640  Biso   1.000  C
  H11      1.0000 0.16660  0.07970  0.47320  Biso   1.000  H
  C24      1.0000 0.19160  0.98730  0.48280  Biso   1.000  C
  H12      1.0000 0.21300  0.99520  0.53750  Biso   1.000  H
  C25      1.0000 0.27580  0.86930  0.25020  Biso   1.000  C
  C26      1.0000 0.30340  0.92420  0.24060  Biso   1.000  C
  C27      1.0000 0.34180  0.91770  0.19740  Biso   1.000  C
  H13      1.0000 0.34610  0.87720  0.16860  Biso   1.000  H
  C28      1.0000 0.37070  0.96680  0.19730  Biso   1.000  C
  H14      1.0000 0.39740  0.95790  0.17900  Biso   1.000  H
  C29      1.0000 0.36120  0.03660  0.22600  Biso   1.000  C
  C30      1.0000 0.32500  0.04080  0.26830  Biso   1.000  C
  H15      1.0000 0.32010  0.08140  0.29620  Biso   1.000  H
  C31      1.0000 0.29690  0.99090  0.27160  Biso   1.000  C
  H16      1.0000 0.27160  0.99970  0.29530  Biso   1.000  H
  C32      1.0000 0.41610  0.10000  0.16020  Biso   1.000  C
  C33      1.0000 0.47460  0.15570  0.12360  Biso   1.000  C
  C34      1.0000 0.54720  0.20940  0.11100  Biso   1.000  C
  C35      1.0000 0.58120  0.25780  0.16000  Biso   1.000  C
  H17      1.0000 0.57700  0.28110  0.21270  Biso   1.000  H
  C36      1.0000 0.61590  0.26630  0.12780  Biso   1.000  C
  H18      1.0000 0.63690  0.29750  0.15730  Biso   1.000  H
  C37      1.0000 0.62430  0.23270  0.05350  Biso   1.000  C
  C38      1.0000 0.59250  0.18670  0.00120  Biso   1.000  C
  H19      1.0000 0.59760  0.16420  0.94850  Biso   1.000  H
  C39      1.0000 0.55430  0.17790  0.03360  Biso   1.000  C
  H20      1.0000 0.53240  0.14910  0.00130  Biso   1.000  H
  C40      1.0000 0.66520  0.24390  0.01540  Biso   1.000  C
  C41      1.0000 0.43760  0.07520  0.02950  Biso   1.000  C
  C42      1.0000 0.40170  0.99480  0.90040  Biso   1.000  C
  C43      1.0000 0.40960  0.96720  0.81480  Biso   1.000  C
  H21      1.0000 0.43350  0.98280  0.79070  Biso   1.000  H
  C44      1.0000 0.38300  0.91950  0.76960  Biso   1.000  C
  H22      1.0000 0.38950  0.90020  0.71600  Biso   1.000  H
  C45      1.0000 0.34640  0.89820  0.80050  Biso   1.000  C
  C46      1.0000 0.33700  0.92660  0.88140  Biso   1.000  C
  H23      1.0000 0.31180  0.91340  0.90260  Biso   1.000  H
  C47      1.0000 0.36520  0.97350  0.92900  Biso   1.000  C
  H24      1.0000 0.35890  0.99180  0.98350  Biso   1.000  H
  C48      1.0000 0.31430  0.84630  0.74380  Biso   1.000  C
  N1       1.0000 0.07130  0.03750  0.01110  Biso   1.000  N
  H25      1.0000 0.05300  0.04680  0.95920  Biso   1.000  H
  N2       1.0000 0.08900  0.05450  0.17200  Biso   1.000  N
  N3       1.0000 0.03990  0.12450  0.23960  Biso   1.000  N
  N4       1.0000 0.02430  0.10600  0.06870  Biso   1.000  N
  N5       1.0000 0.97860  0.17360  0.13950  Biso   1.000  N
  H26      1.0000 0.97410  0.18940  0.19160  Biso   1.000  H
  N6       1.0000 0.09490  0.07470  0.33460  Biso   1.000  N
  H27      1.0000 0.08930  0.10240  0.37590  Biso   1.000  H
  N7       1.0000 0.38980  0.08820  0.22400  Biso   1.000  N
  H28      1.0000 0.39190  0.11740  0.26830  Biso   1.000  H
  N8       1.0000 0.45070  0.14660  0.19020  Biso   1.000  N
  N9       1.0000 0.46990  0.12280  0.03870  Biso   1.000  N
  N10      1.0000 0.40780  0.06590  0.08250  Biso   1.000  N
  N11      1.0000 0.43360  0.04040  0.94270  Biso   1.000  N
  H29      1.0000 0.45420  0.04900  0.91240  Biso   1.000  H
  N12      1.0000 0.50730  0.20180  0.14840  Biso   1.000  N
  H30      1.0000 0.50420  0.22980  0.19150  Biso   1.000  H
  O1       1.0000 0.23520  0.83700  0.01910  Biso   1.000  O
  O2       1.0000 0.80050  0.26540  0.85180  Biso   1.000  O
  O3       1.0000 0.28300  0.81000  0.22030  Biso   1.000  O
  O4       1.0000 0.32570  0.82640  0.66990  Biso   1.000  O
  O5       1.0000 0.66790  0.20800  0.93920  Biso   1.000  O
  O6       1.0000 0.24420  0.87990  0.56060  Biso   1.000  O
  O7       1.0000 0.21510  0.80680  0.44830  Biso   1.000  O
  O8       1.0000 0.20380  0.83760  0.86890  Biso   1.000  O
  O9       1.0000 0.69810  0.27120  0.05630  Biso   1.000  O
  O10      1.0000 0.24330  0.87550  0.29530  Biso   1.000  O
  O11      1.0000 0.28010  0.82460  0.77050  Biso   1.000  O
  O12      1.0000 0.83730  0.22670  0.75300  Biso   1.000  O
  Tb1      1.0000 0.76213  0.24580  0.67979  Biso   1.000  Tb
  Tb2      1.0000 0.73366  0.26186  0.91297  Biso   1.000  Tb
  C49      1.0000 0.79310  0.35530  0.55030  Biso   1.000  C
  C50      1.0000 0.82740  0.40590  0.53280  Biso   1.000  C
  C51      1.0000 0.86190  0.42540  0.60170  Biso   1.000  C
  H31      1.0000 0.86560  0.40440  0.65990  Biso   1.000  H
  C52      1.0000 0.89210  0.47520  0.59020  Biso   1.000  C
  H32      1.0000 0.91070  0.49480  0.64200  Biso   1.000  H
  C53      1.0000 0.89380  0.49590  0.49550  Biso   1.000  C
  C54      1.0000 0.85930  0.47640  0.42170  Biso   1.000  C
  H33      1.0000 0.85740  0.49230  0.36100  Biso   1.000  H
  C55      1.0000 0.82700  0.43110  0.44330  Biso   1.000  C
  H34      1.0000 0.80400  0.41720  0.39450  Biso   1.000  H
  C56      1.0000 0.93820  0.56560  0.41130  Biso   1.000  C
  C57      1.0000 0.92880  0.58320  0.25500  Biso   1.000  C
  C58      1.0000 0.98460  0.63830  0.35720  Biso   1.000  C
  C59      1.0000 0.05540  0.68810  0.44590  Biso   1.000  C
  C60      1.0000 0.05540  0.66690  0.53240  Biso   1.000  C
  H35      1.0000 0.03350  0.63780  0.54440  Biso   1.000  H
  C61      1.0000 0.09110  0.69110  0.60720  Biso   1.000  C
  H36      1.0000 0.09010  0.68220  0.66930  Biso   1.000  H
  C62      1.0000 0.12600  0.72640  0.58800  Biso   1.000  C
  C63      1.0000 0.12420  0.74960  0.49450  Biso   1.000  C
  H37      1.0000 0.14700  0.77540  0.47940  Biso   1.000  H
  C64      1.0000 0.08950  0.73310  0.43280  Biso   1.000  C
  H38      1.0000 0.08640  0.75230  0.37360  Biso   1.000  H
  C65      1.0000 0.16530  0.73910  0.66680  Biso   1.000  C
  C66      1.0000 0.78250  0.36560  0.01670  Biso   1.000  C
  C67      1.0000 0.81040  0.42080  0.06180  Biso   1.000  C
  C68      1.0000 0.84470  0.41300  0.13920  Biso   1.000  C
  H39      1.0000 0.84620  0.37150  0.16920  Biso   1.000  H
  C69      1.0000 0.87640  0.45840  0.17710  Biso   1.000  C
  H40      1.0000 0.89960  0.44810  0.22770  Biso   1.000  H
  C70      1.0000 0.87160  0.52420  0.13280  Biso   1.000  C
  C71      1.0000 0.83670  0.53700  0.05360  Biso   1.000  C
  H41      1.0000 0.83340  0.57970  0.02680  Biso   1.000  H
  C72      1.0000 0.80840  0.48730  0.01720  Biso   1.000  C
  H42      1.0000 0.78700  0.49520  0.96250  Biso   1.000  H
  C73      1.0000 0.72420  0.36930  0.24980  Biso   1.000  C
  C74      1.0000 0.69660  0.42420  0.25940  Biso   1.000  C
  C75      1.0000 0.65820  0.41770  0.30260  Biso   1.000  C
  H43      1.0000 0.65390  0.37720  0.33140  Biso   1.000  H
  C76      1.0000 0.62930  0.46680  0.30270  Biso   1.000  C
  H44      1.0000 0.60260  0.45790  0.32100  Biso   1.000  H
  C77      1.0000 0.63880  0.53660  0.27400  Biso   1.000  C
  C78      1.0000 0.67500  0.54080  0.23170  Biso   1.000  C
  H45      1.0000 0.67990  0.58140  0.20380  Biso   1.000  H
  C79      1.0000 0.70310  0.49090  0.22840  Biso   1.000  C
  H46      1.0000 0.72840  0.49970  0.20470  Biso   1.000  H
  C80      1.0000 0.58390  0.60000  0.33980  Biso   1.000  C
  C81      1.0000 0.52540  0.65570  0.37640  Biso   1.000  C
  C82      1.0000 0.45280  0.70940  0.38900  Biso   1.000  C
  C83      1.0000 0.41880  0.75780  0.34000  Biso   1.000  C
  H47      1.0000 0.42300  0.78110  0.28730  Biso   1.000  H
  C84      1.0000 0.38410  0.76630  0.37220  Biso   1.000  C
  H48      1.0000 0.36310  0.79750  0.34270  Biso   1.000  H
  C85      1.0000 0.37570  0.73270  0.44650  Biso   1.000  C
  C86      1.0000 0.40750  0.68670  0.49880  Biso   1.000  C
  H49      1.0000 0.40240  0.66420  0.55150  Biso   1.000  H
  C87      1.0000 0.44570  0.67790  0.46640  Biso   1.000  C
  H50      1.0000 0.46760  0.64910  0.49870  Biso   1.000  H
  C88      1.0000 0.33480  0.74390  0.48460  Biso   1.000  C
  C89      1.0000 0.56240  0.57520  0.47050  Biso   1.000  C
  C90      1.0000 0.59830  0.49480  0.59960  Biso   1.000  C
  C91      1.0000 0.59040  0.46720  0.68520  Biso   1.000  C
  H51      1.0000 0.56650  0.48280  0.70930  Biso   1.000  H
  C92      1.0000 0.61700  0.41950  0.73040  Biso   1.000  C
  H52      1.0000 0.61050  0.40020  0.78400  Biso   1.000  H
  C93      1.0000 0.65360  0.39820  0.69950  Biso   1.000  C
  C94      1.0000 0.66300  0.42660  0.61860  Biso   1.000  C
  H53      1.0000 0.68820  0.41340  0.59740  Biso   1.000  H
  C95      1.0000 0.63480  0.47350  0.57100  Biso   1.000  C
  H54      1.0000 0.64110  0.49180  0.51650  Biso   1.000  H
  C96      1.0000 0.68570  0.34630  0.75620  Biso   1.000  C
  N13      1.0000 0.92870  0.53750  0.48890  Biso   1.000  N
  H55      1.0000 0.94700  0.54680  0.54080  Biso   1.000  H
  N14      1.0000 0.91100  0.55450  0.32800  Biso   1.000  N
  N15      1.0000 0.96010  0.62450  0.26040  Biso   1.000  N
  N16      1.0000 0.97570  0.60600  0.43130  Biso   1.000  N
  N17      1.0000 0.02140  0.67360  0.36050  Biso   1.000  N
  H56      1.0000 0.02590  0.68940  0.30840  Biso   1.000  H
  N18      1.0000 0.90510  0.57470  0.16540  Biso   1.000  N
  H57      1.0000 0.91070  0.60240  0.12410  Biso   1.000  H
  N19      1.0000 0.61020  0.58820  0.27600  Biso   1.000  N
  H58      1.0000 0.60810  0.61740  0.23170  Biso   1.000  H
  N20      1.0000 0.54930  0.64660  0.30980  Biso   1.000  N
  N21      1.0000 0.53010  0.62280  0.46130  Biso   1.000  N
  N22      1.0000 0.59220  0.56590  0.41750  Biso   1.000  N
  N23      1.0000 0.56640  0.54040  0.55730  Biso   1.000  N
  H59      1.0000 0.54580  0.54900  0.58760  Biso   1.000  H
  N24      1.0000 0.49270  0.70180  0.35160  Biso   1.000  N
  H60      1.0000 0.49580  0.72980  0.30850  Biso   1.000  H
  O13      1.0000 0.76480  0.33700  0.48090  Biso   1.000  O
  O14      1.0000 0.19950  0.76540  0.64820  Biso   1.000  O
  O15      1.0000 0.71700  0.31000  0.27970  Biso   1.000  O
  O16      1.0000 0.67430  0.32640  0.83010  Biso   1.000  O
  O17      1.0000 0.33210  0.70800  0.56080  Biso   1.000  O
  O18      1.0000 0.75580  0.37990  0.93940  Biso   1.000  O
  O19      1.0000 0.78490  0.30680  0.05170  Biso   1.000  O
  O20      1.0000 0.79620  0.33760  0.63110  Biso   1.000  O
  O21      1.0000 0.30190  0.77120  0.44370  Biso   1.000  O
  O22      1.0000 0.75670  0.37550  0.20470  Biso   1.000  O
  O23      1.0000 0.71990  0.32460  0.72950  Biso   1.000  O
  O24      1.0000 0.16270  0.72670  0.74700  Biso   1.000  O
  Tb3      1.0000 0.23787  0.74580  0.82021  Biso   1.000  Tb
  Tb4      1.0000 0.26634  0.76186  0.58703  Biso   1.000  Tb
  C97      1.0000 0.79310  0.14470  0.05030  Biso   1.000  C
  C98      1.0000 0.82740  0.09410  0.03280  Biso   1.000  C
  C99      1.0000 0.86190  0.07460  0.10170  Biso   1.000  C
  H61      1.0000 0.86560  0.09560  0.15990  Biso   1.000  H
  C100     1.0000 0.89210  0.02480  0.09020  Biso   1.000  C
  H62      1.0000 0.91070  0.00520  0.14200  Biso   1.000  H
  C101     1.0000 0.89380  0.00410  0.99550  Biso   1.000  C
  C102     1.0000 0.85930  0.02360  0.92170  Biso   1.000  C
  H63      1.0000 0.85740  0.00770  0.86100  Biso   1.000  H
  C103     1.0000 0.82700  0.06890  0.94330  Biso   1.000  C
  H64      1.0000 0.80400  0.08280  0.89450  Biso   1.000  H
  C104     1.0000 0.93820  0.93440  0.91130  Biso   1.000  C
  C105     1.0000 0.92880  0.91680  0.75500  Biso   1.000  C
  C106     1.0000 0.98460  0.86170  0.85720  Biso   1.000  C
  C107     1.0000 0.05540  0.81190  0.94590  Biso   1.000  C
  C108     1.0000 0.05540  0.83310  0.03240  Biso   1.000  C
  H65      1.0000 0.03350  0.86220  0.04440  Biso   1.000  H
  C109     1.0000 0.09110  0.80890  0.10720  Biso   1.000  C
  H66      1.0000 0.09010  0.81780  0.16930  Biso   1.000  H
  C110     1.0000 0.12600  0.77360  0.08800  Biso   1.000  C
  C111     1.0000 0.12420  0.75040  0.99450  Biso   1.000  C
  H67      1.0000 0.14700  0.72460  0.97940  Biso   1.000  H
  C112     1.0000 0.08950  0.76690  0.93280  Biso   1.000  C
  H68      1.0000 0.08640  0.74770  0.87360  Biso   1.000  H
  C113     1.0000 0.16530  0.76090  0.16680  Biso   1.000  C
  C114     1.0000 0.78250  0.13440  0.51670  Biso   1.000  C
  C115     1.0000 0.81040  0.07920  0.56180  Biso   1.000  C
  C116     1.0000 0.84470  0.08700  0.63920  Biso   1.000  C
  H69      1.0000 0.84620  0.12850  0.66920  Biso   1.000  H
  C117     1.0000 0.87640  0.04160  0.67710  Biso   1.000  C
  H70      1.0000 0.89960  0.05190  0.72770  Biso   1.000  H
  C118     1.0000 0.87160  0.97580  0.63280  Biso   1.000  C
  C119     1.0000 0.83670  0.96300  0.55360  Biso   1.000  C
  H71      1.0000 0.83340  0.92030  0.52680  Biso   1.000  H
  C120     1.0000 0.80840  0.01270  0.51720  Biso   1.000  C
  H72      1.0000 0.78700  0.00480  0.46250  Biso   1.000  H
  C121     1.0000 0.72420  0.13070  0.74980  Biso   1.000  C
  C122     1.0000 0.69660  0.07580  0.75940  Biso   1.000  C
  C123     1.0000 0.65820  0.08230  0.80260  Biso   1.000  C
  H73      1.0000 0.65390  0.12280  0.83140  Biso   1.000  H
  C124     1.0000 0.62930  0.03320  0.80270  Biso   1.000  C
  H74      1.0000 0.60260  0.04210  0.82100  Biso   1.000  H
  C125     1.0000 0.63880  0.96340  0.77400  Biso   1.000  C
  C126     1.0000 0.67500  0.95920  0.73170  Biso   1.000  C
  H75      1.0000 0.67990  0.91860  0.70380  Biso   1.000  H
  C127     1.0000 0.70310  0.00910  0.72840  Biso   1.000  C
  H76      1.0000 0.72840  0.00030  0.70470  Biso   1.000  H
  C128     1.0000 0.58390  0.90000  0.83980  Biso   1.000  C
  C129     1.0000 0.52540  0.84430  0.87640  Biso   1.000  C
  C130     1.0000 0.45280  0.79060  0.88900  Biso   1.000  C
  C131     1.0000 0.41880  0.74220  0.84000  Biso   1.000  C
  H77      1.0000 0.42300  0.71890  0.78730  Biso   1.000  H
  C132     1.0000 0.38410  0.73370  0.87220  Biso   1.000  C
  H78      1.0000 0.36310  0.70250  0.84270  Biso   1.000  H
  C133     1.0000 0.37570  0.76730  0.94650  Biso   1.000  C
  C134     1.0000 0.40750  0.81330  0.99880  Biso   1.000  C
  H79      1.0000 0.40240  0.83580  0.05150  Biso   1.000  H
  C135     1.0000 0.44570  0.82210  0.96640  Biso   1.000  C
  H80      1.0000 0.46760  0.85090  0.99870  Biso   1.000  H
  C136     1.0000 0.33480  0.75610  0.98460  Biso   1.000  C
  C137     1.0000 0.56240  0.92480  0.97050  Biso   1.000  C
  C138     1.0000 0.59830  0.00520  0.09960  Biso   1.000  C
  C139     1.0000 0.59040  0.03280  0.18520  Biso   1.000  C
  H81      1.0000 0.56650  0.01720  0.20930  Biso   1.000  H
  C140     1.0000 0.61700  0.08050  0.23040  Biso   1.000  C
  H82      1.0000 0.61050  0.09980  0.28400  Biso   1.000  H
  C141     1.0000 0.65360  0.10180  0.19950  Biso   1.000  C
  C142     1.0000 0.66300  0.07340  0.11860  Biso   1.000  C
  H83      1.0000 0.68820  0.08660  0.09740  Biso   1.000  H
  C143     1.0000 0.63480  0.02650  0.07100  Biso   1.000  C
  H84      1.0000 0.64110  0.00820  0.01650  Biso   1.000  H
  C144     1.0000 0.68570  0.15370  0.25620  Biso   1.000  C
  N25      1.0000 0.92870  0.96250  0.98890  Biso   1.000  N
  H85      1.0000 0.94700  0.95320  0.04080  Biso   1.000  H
  N26      1.0000 0.91100  0.94550  0.82800  Biso   1.000  N
  N27      1.0000 0.96010  0.87550  0.76040  Biso   1.000  N
  N28      1.0000 0.97570  0.89400  0.93130  Biso   1.000  N
  N29      1.0000 0.02140  0.82640  0.86050  Biso   1.000  N
  H86      1.0000 0.02590  0.81060  0.80840  Biso   1.000  H
  N30      1.0000 0.90510  0.92530  0.66540  Biso   1.000  N
  H87      1.0000 0.91070  0.89760  0.62410  Biso   1.000  H
  N31      1.0000 0.61020  0.91180  0.77600  Biso   1.000  N
  H88      1.0000 0.60810  0.88260  0.73170  Biso   1.000  H
  N32      1.0000 0.54930  0.85340  0.80980  Biso   1.000  N
  N33      1.0000 0.53010  0.87720  0.96130  Biso   1.000  N
  N34      1.0000 0.59220  0.93410  0.91750  Biso   1.000  N
  N35      1.0000 0.56640  0.95960  0.05730  Biso   1.000  N
  H89      1.0000 0.54580  0.95100  0.08760  Biso   1.000  H
  N36      1.0000 0.49270  0.79820  0.85160  Biso   1.000  N
  H90      1.0000 0.49580  0.77020  0.80850  Biso   1.000  H
  O25      1.0000 0.76480  0.16300  0.98090  Biso   1.000  O
  O26      1.0000 0.19950  0.73460  0.14820  Biso   1.000  O
  O27      1.0000 0.71700  0.19000  0.77970  Biso   1.000  O
  O28      1.0000 0.67430  0.17360  0.33010  Biso   1.000  O
  O29      1.0000 0.33210  0.79200  0.06080  Biso   1.000  O
  O30      1.0000 0.75580  0.12010  0.43940  Biso   1.000  O
  O31      1.0000 0.78490  0.19320  0.55170  Biso   1.000  O
  O32      1.0000 0.79620  0.16240  0.13110  Biso   1.000  O
  O33      1.0000 0.30190  0.72880  0.94370  Biso   1.000  O
  O34      1.0000 0.75670  0.12450  0.70470  Biso   1.000  O
  O35      1.0000 0.71990  0.17540  0.22950  Biso   1.000  O
  O36      1.0000 0.16270  0.77330  0.24700  Biso   1.000  O
  Tb5      1.0000 0.23787  0.75420  0.32021  Biso   1.000  Tb
  Tb6      1.0000 0.26634  0.73814  0.08703  Biso   1.000  Tb
  C145     1.0000 0.20690  0.64470  0.44970  Biso   1.000  C
  C146     1.0000 0.17260  0.59410  0.46720  Biso   1.000  C
  C147     1.0000 0.13810  0.57460  0.39830  Biso   1.000  C
  H91      1.0000 0.13440  0.59560  0.34010  Biso   1.000  H
  C148     1.0000 0.10790  0.52480  0.40980  Biso   1.000  C
  H92      1.0000 0.08930  0.50520  0.35800  Biso   1.000  H
  C149     1.0000 0.10620  0.50410  0.50450  Biso   1.000  C
  C150     1.0000 0.14070  0.52360  0.57830  Biso   1.000  C
  H93      1.0000 0.14260  0.50770  0.63900  Biso   1.000  H
  C151     1.0000 0.17300  0.56890  0.55670  Biso   1.000  C
  H94      1.0000 0.19600  0.58280  0.60550  Biso   1.000  H
  C152     1.0000 0.06180  0.43440  0.58870  Biso   1.000  C
  C153     1.0000 0.07120  0.41680  0.74500  Biso   1.000  C
  C154     1.0000 0.01540  0.36170  0.64280  Biso   1.000  C
  C155     1.0000 0.94460  0.31190  0.55410  Biso   1.000  C
  C156     1.0000 0.94460  0.33310  0.46760  Biso   1.000  C
  H95      1.0000 0.96650  0.36220  0.45560  Biso   1.000  H
  C157     1.0000 0.90890  0.30890  0.39280  Biso   1.000  C
  H96      1.0000 0.90990  0.31780  0.33070  Biso   1.000  H
  C158     1.0000 0.87400  0.27360  0.41200  Biso   1.000  C
  C159     1.0000 0.87580  0.25040  0.50550  Biso   1.000  C
  H97      1.0000 0.85300  0.22460  0.52060  Biso   1.000  H
  C160     1.0000 0.91050  0.26690  0.56720  Biso   1.000  C
  H98      1.0000 0.91360  0.24770  0.62640  Biso   1.000  H
  C161     1.0000 0.83470  0.26090  0.33320  Biso   1.000  C
  C162     1.0000 0.21750  0.63440  0.98330  Biso   1.000  C
  C163     1.0000 0.18960  0.57920  0.93820  Biso   1.000  C
  C164     1.0000 0.15530  0.58700  0.86080  Biso   1.000  C
  H99      1.0000 0.15380  0.62850  0.83080  Biso   1.000  H
  C165     1.0000 0.12360  0.54160  0.82290  Biso   1.000  C
  H100     1.0000 0.10040  0.55190  0.77230  Biso   1.000  H
  C166     1.0000 0.12840  0.47580  0.86720  Biso   1.000  C
  C167     1.0000 0.16330  0.46300  0.94640  Biso   1.000  C
  H101     1.0000 0.16660  0.42030  0.97320  Biso   1.000  H
  C168     1.0000 0.19160  0.51270  0.98280  Biso   1.000  C
  H102     1.0000 0.21300  0.50480  0.03750  Biso   1.000  H
  C169     1.0000 0.27580  0.63070  0.75020  Biso   1.000  C
  C170     1.0000 0.30340  0.57580  0.74060  Biso   1.000  C
  C171     1.0000 0.34180  0.58230  0.69740  Biso   1.000  C
  H103     1.0000 0.34610  0.62280  0.66860  Biso   1.000  H
  C172     1.0000 0.37070  0.53320  0.69730  Biso   1.000  C
  H104     1.0000 0.39740  0.54210  0.67900  Biso   1.000  H
  C173     1.0000 0.36120  0.46340  0.72600  Biso   1.000  C
  C174     1.0000 0.32500  0.45920  0.76830  Biso   1.000  C
  H105     1.0000 0.32010  0.41860  0.79620  Biso   1.000  H
  C175     1.0000 0.29690  0.50910  0.77160  Biso   1.000  C
  H106     1.0000 0.27160  0.50030  0.79530  Biso   1.000  H
  C176     1.0000 0.41610  0.40000  0.66020  Biso   1.000  C
  C177     1.0000 0.47460  0.34430  0.62360  Biso   1.000  C
  C178     1.0000 0.54720  0.29060  0.61100  Biso   1.000  C
  C179     1.0000 0.58120  0.24220  0.66000  Biso   1.000  C
  H107     1.0000 0.57700  0.21890  0.71270  Biso   1.000  H
  C180     1.0000 0.61590  0.23370  0.62780  Biso   1.000  C
  H108     1.0000 0.63690  0.20250  0.65730  Biso   1.000  H
  C181     1.0000 0.62430  0.26730  0.55350  Biso   1.000  C
  C182     1.0000 0.59250  0.31330  0.50120  Biso   1.000  C
  H109     1.0000 0.59760  0.33580  0.44850  Biso   1.000  H
  C183     1.0000 0.55430  0.32210  0.53360  Biso   1.000  C
  H110     1.0000 0.53240  0.35090  0.50130  Biso   1.000  H
  C184     1.0000 0.66520  0.25610  0.51540  Biso   1.000  C
  C185     1.0000 0.43760  0.42480  0.52950  Biso   1.000  C
  C186     1.0000 0.40170  0.50520  0.40040  Biso   1.000  C
  C187     1.0000 0.40960  0.53280  0.31480  Biso   1.000  C
  H111     1.0000 0.43350  0.51720  0.29070  Biso   1.000  H
  C188     1.0000 0.38300  0.58050  0.26960  Biso   1.000  C
  H112     1.0000 0.38950  0.59980  0.21600  Biso   1.000  H
  C189     1.0000 0.34640  0.60180  0.30050  Biso   1.000  C
  C190     1.0000 0.33700  0.57340  0.38140  Biso   1.000  C
  H113     1.0000 0.31180  0.58660  0.40260  Biso   1.000  H
  C191     1.0000 0.36520  0.52650  0.42900  Biso   1.000  C
  H114     1.0000 0.35890  0.50820  0.48350  Biso   1.000  H
  C192     1.0000 0.31430  0.65370  0.24380  Biso   1.000  C
  N37      1.0000 0.07130  0.46250  0.51110  Biso   1.000  N
  H115     1.0000 0.05300  0.45320  0.45920  Biso   1.000  H
  N38      1.0000 0.08900  0.44550  0.67200  Biso   1.000  N
  N39      1.0000 0.03990  0.37550  0.73960  Biso   1.000  N
  N40      1.0000 0.02430  0.39400  0.56870  Biso   1.000  N
  N41      1.0000 0.97860  0.32640  0.63950  Biso   1.000  N
  H116     1.0000 0.97410  0.31060  0.69160  Biso   1.000  H
  N42      1.0000 0.09490  0.42530  0.83460  Biso   1.000  N
  H117     1.0000 0.08930  0.39760  0.87590  Biso   1.000  H
  N43      1.0000 0.38980  0.41180  0.72400  Biso   1.000  N
  H118     1.0000 0.39190  0.38260  0.76830  Biso   1.000  H
  N44      1.0000 0.45070  0.35340  0.69020  Biso   1.000  N
  N45      1.0000 0.46990  0.37720  0.53870  Biso   1.000  N
  N46      1.0000 0.40780  0.43410  0.58250  Biso   1.000  N
  N47      1.0000 0.43360  0.45960  0.44270  Biso   1.000  N
  H119     1.0000 0.45420  0.45100  0.41240  Biso   1.000  H
  N48      1.0000 0.50730  0.29820  0.64840  Biso   1.000  N
  H120     1.0000 0.50420  0.27020  0.69150  Biso   1.000  H
  O37      1.0000 0.23520  0.66300  0.51910  Biso   1.000  O
  O38      1.0000 0.80050  0.23460  0.35180  Biso   1.000  O
  O39      1.0000 0.28300  0.69000  0.72030  Biso   1.000  O
  O40      1.0000 0.32570  0.67360  0.16990  Biso   1.000  O
  O41      1.0000 0.66790  0.29200  0.43920  Biso   1.000  O
  O42      1.0000 0.24420  0.62010  0.06060  Biso   1.000  O
  O43      1.0000 0.21510  0.69320  0.94830  Biso   1.000  O
  O44      1.0000 0.20380  0.66240  0.36890  Biso   1.000  O
  O45      1.0000 0.69810  0.22880  0.55630  Biso   1.000  O
  O46      1.0000 0.24330  0.62450  0.79530  Biso   1.000  O
  O47      1.0000 0.28010  0.67540  0.27050  Biso   1.000  O
  O48      1.0000 0.83730  0.27330  0.25300  Biso   1.000  O
  Tb7      1.0000 0.76213  0.25420  0.17979  Biso   1.000  Tb
  Tb8      1.0000 0.73366  0.23814  0.41297  Biso   1.000  Tb
