data_BAEDTA01_clean
_audit_creation_date              2014-07-02
_audit_creation_method            'Materials Studio'
_symmetry_space_group_name_H-M    'P1'
_symmetry_Int_Tables_number       1
_symmetry_cell_setting            triclinic
loop_
_symmetry_equiv_pos_as_xyz
  x,y,z
_cell_length_a                    8.9813
_cell_length_b                    19.7126
_cell_length_c                    19.7126
_cell_angle_alpha                 90.0000
_cell_angle_beta                  90.0000
_cell_angle_gamma                 90.0000
loop_
_atom_site_label
_atom_site_type_symbol
_atom_site_fract_x
_atom_site_fract_y
_atom_site_fract_z
_atom_site_U_iso_or_equiv
_atom_site_adp_type
_atom_site_occupancy
Ba1    Ba    0.77256   0.81713   0.64536   0.01267  Uiso   1.00
Ba2    Ba    0.76630   0.69162   0.86647   0.01267  Uiso   1.00
Ba3    Ba    0.77256   0.18287   0.35464   0.01267  Uiso   1.00
Ba4    Ba    0.76630   0.30838   0.13353   0.01267  Uiso   1.00
Ba5    Ba    0.77256   0.35464   0.81713   0.01267  Uiso   1.00
Ba6    Ba    0.76630   0.13353   0.69162   0.01267  Uiso   1.00
Ba7    Ba    0.77256   0.64536   0.18287   0.01267  Uiso   1.00
Ba8    Ba    0.76630   0.86647   0.30838   0.01267  Uiso   1.00
Ba9    Ba    0.27256   0.31713   0.85464   0.01267  Uiso   1.00
Ba10   Ba    0.26630   0.19162   0.63353   0.01267  Uiso   1.00
Ba11   Ba    0.27256   0.68287   0.14536   0.01267  Uiso   1.00
Ba12   Ba    0.26630   0.80838   0.36647   0.01267  Uiso   1.00
Ba13   Ba    0.27256   0.85464   0.68287   0.01267  Uiso   1.00
Ba14   Ba    0.26630   0.63353   0.80838   0.01267  Uiso   1.00
Ba15   Ba    0.27256   0.14536   0.31713   0.01267  Uiso   1.00
Ba16   Ba    0.26630   0.36647   0.19162   0.01267  Uiso   1.00
H1     H     0.66700   0.88700   0.00100   0.01267  Uiso   1.00
H2     H     0.75700   0.82600   0.01600   0.01267  Uiso   1.00
H3     H     0.47800   0.79700   0.02700   0.01267  Uiso   1.00
H4     H     0.44800   0.74200   0.96800   0.01267  Uiso   1.00
H5     H     0.44500   0.86700   0.91700   0.01267  Uiso   1.00
H6     H     0.57200   0.87100   0.87500   0.01267  Uiso   1.00
H7     H     0.89900   0.90000   0.96600   0.01267  Uiso   1.00
H8     H     0.82400   0.89000   0.89900   0.01267  Uiso   1.00
H9     H     0.10200   0.79700   0.84600   0.01267  Uiso   1.00
H10    H     0.06600   0.87000   0.86300   0.01267  Uiso   1.00
H11    H     0.00200   0.79500   0.01700   0.01267  Uiso   1.00
H12    H     0.11800   0.82300   0.97800   0.01267  Uiso   1.00
H13    H     0.66700   0.11300   0.99900   0.01267  Uiso   1.00
H14    H     0.75700   0.17400   0.98400   0.01267  Uiso   1.00
H15    H     0.47800   0.20300   0.97300   0.01267  Uiso   1.00
H16    H     0.44800   0.25800   0.03200   0.01267  Uiso   1.00
H17    H     0.44500   0.13300   0.08300   0.01267  Uiso   1.00
H18    H     0.57200   0.12900   0.12500   0.01267  Uiso   1.00
H19    H     0.89900   0.10000   0.03400   0.01267  Uiso   1.00
H20    H     0.82400   0.11000   0.10100   0.01267  Uiso   1.00
H21    H     0.10200   0.20300   0.15400   0.01267  Uiso   1.00
H22    H     0.06600   0.13000   0.13700   0.01267  Uiso   1.00
H23    H     0.00200   0.20500   0.98300   0.01267  Uiso   1.00
H24    H     0.11800   0.17700   0.02200   0.01267  Uiso   1.00
H25    H     0.66700   0.99900   0.88700   0.01267  Uiso   1.00
H26    H     0.75700   0.98400   0.82600   0.01267  Uiso   1.00
H27    H     0.47800   0.97300   0.79700   0.01267  Uiso   1.00
H28    H     0.44800   0.03200   0.74200   0.01267  Uiso   1.00
H29    H     0.44500   0.08300   0.86700   0.01267  Uiso   1.00
H30    H     0.57200   0.12500   0.87100   0.01267  Uiso   1.00
H31    H     0.89900   0.03400   0.90000   0.01267  Uiso   1.00
H32    H     0.82400   0.10100   0.89000   0.01267  Uiso   1.00
H33    H     0.10200   0.15400   0.79700   0.01267  Uiso   1.00
H34    H     0.06600   0.13700   0.87000   0.01267  Uiso   1.00
H35    H     0.00200   0.98300   0.79500   0.01267  Uiso   1.00
H36    H     0.11800   0.02200   0.82300   0.01267  Uiso   1.00
H37    H     0.66700   0.00100   0.11300   0.01267  Uiso   1.00
H38    H     0.75700   0.01600   0.17400   0.01267  Uiso   1.00
H39    H     0.47800   0.02700   0.20300   0.01267  Uiso   1.00
H40    H     0.44800   0.96800   0.25800   0.01267  Uiso   1.00
H41    H     0.44500   0.91700   0.13300   0.01267  Uiso   1.00
H42    H     0.57200   0.87500   0.12900   0.01267  Uiso   1.00
H43    H     0.89900   0.96600   0.10000   0.01267  Uiso   1.00
H44    H     0.82400   0.89900   0.11000   0.01267  Uiso   1.00
H45    H     0.10200   0.84600   0.20300   0.01267  Uiso   1.00
H46    H     0.06600   0.86300   0.13000   0.01267  Uiso   1.00
H47    H     0.00200   0.01700   0.20500   0.01267  Uiso   1.00
H48    H     0.11800   0.97800   0.17700   0.01267  Uiso   1.00
H49    H     0.16700   0.38700   0.49900   0.01267  Uiso   1.00
H50    H     0.25700   0.32600   0.48400   0.01267  Uiso   1.00
H51    H     0.97800   0.29700   0.47300   0.01267  Uiso   1.00
H52    H     0.94800   0.24200   0.53200   0.01267  Uiso   1.00
H53    H     0.94500   0.36700   0.58300   0.01267  Uiso   1.00
H54    H     0.07200   0.37100   0.62500   0.01267  Uiso   1.00
H55    H     0.39900   0.40000   0.53400   0.01267  Uiso   1.00
H56    H     0.32400   0.39000   0.60100   0.01267  Uiso   1.00
H57    H     0.60200   0.29700   0.65400   0.01267  Uiso   1.00
H58    H     0.56600   0.37000   0.63700   0.01267  Uiso   1.00
H59    H     0.50200   0.29500   0.48300   0.01267  Uiso   1.00
H60    H     0.61800   0.32300   0.52200   0.01267  Uiso   1.00
H61    H     0.16700   0.61300   0.50100   0.01267  Uiso   1.00
H62    H     0.25700   0.67400   0.51600   0.01267  Uiso   1.00
H63    H     0.97800   0.70300   0.52700   0.01267  Uiso   1.00
H64    H     0.94800   0.75800   0.46800   0.01267  Uiso   1.00
H65    H     0.94500   0.63300   0.41700   0.01267  Uiso   1.00
H66    H     0.07200   0.62900   0.37500   0.01267  Uiso   1.00
H67    H     0.39900   0.60000   0.46600   0.01267  Uiso   1.00
H68    H     0.32400   0.61000   0.39900   0.01267  Uiso   1.00
H69    H     0.60200   0.70300   0.34600   0.01267  Uiso   1.00
H70    H     0.56600   0.63000   0.36300   0.01267  Uiso   1.00
H71    H     0.50200   0.70500   0.51700   0.01267  Uiso   1.00
H72    H     0.61800   0.67700   0.47800   0.01267  Uiso   1.00
H73    H     0.16700   0.49900   0.61300   0.01267  Uiso   1.00
H74    H     0.25700   0.48400   0.67400   0.01267  Uiso   1.00
H75    H     0.97800   0.47300   0.70300   0.01267  Uiso   1.00
H76    H     0.94800   0.53200   0.75800   0.01267  Uiso   1.00
H77    H     0.94500   0.58300   0.63300   0.01267  Uiso   1.00
H78    H     0.07200   0.62500   0.62900   0.01267  Uiso   1.00
H79    H     0.39900   0.53400   0.60000   0.01267  Uiso   1.00
H80    H     0.32400   0.60100   0.61000   0.01267  Uiso   1.00
H81    H     0.60200   0.65400   0.70300   0.01267  Uiso   1.00
H82    H     0.56600   0.63700   0.63000   0.01267  Uiso   1.00
H83    H     0.50200   0.48300   0.70500   0.01267  Uiso   1.00
H84    H     0.61800   0.52200   0.67700   0.01267  Uiso   1.00
H85    H     0.16700   0.50100   0.38700   0.01267  Uiso   1.00
H86    H     0.25700   0.51600   0.32600   0.01267  Uiso   1.00
H87    H     0.97800   0.52700   0.29700   0.01267  Uiso   1.00
H88    H     0.94800   0.46800   0.24200   0.01267  Uiso   1.00
H89    H     0.94500   0.41700   0.36700   0.01267  Uiso   1.00
H90    H     0.07200   0.37500   0.37100   0.01267  Uiso   1.00
H91    H     0.39900   0.46600   0.40000   0.01267  Uiso   1.00
H92    H     0.32400   0.39900   0.39000   0.01267  Uiso   1.00
H93    H     0.60200   0.34600   0.29700   0.01267  Uiso   1.00
H94    H     0.56600   0.36300   0.37000   0.01267  Uiso   1.00
H95    H     0.50200   0.51700   0.29500   0.01267  Uiso   1.00
H96    H     0.61800   0.47800   0.32300   0.01267  Uiso   1.00
C1     C     0.71360   0.84580   0.98180   0.01267  Uiso   1.00
C2     C     0.51860   0.76430   0.99390   0.01267  Uiso   1.00
C3     C     0.60440   0.70970   0.03210   0.01267  Uiso   1.00
C4     C     0.52010   0.83830   0.89670   0.01267  Uiso   1.00
C5     C     0.44290   0.79450   0.84430   0.01267  Uiso   1.00
C6     C     0.84670   0.86630   0.94010   0.01267  Uiso   1.00
C7     C     0.02560   0.82850   0.85810   0.01267  Uiso   1.00
C8     C     0.93310   0.83010   0.79300   0.01267  Uiso   1.00
C9     C     0.03730   0.78680   0.97360   0.01267  Uiso   1.00
C10    C     0.10450   0.71570   0.96460   0.01267  Uiso   1.00
C11    C     0.71360   0.15420   0.01820   0.01267  Uiso   1.00
C12    C     0.51860   0.23570   0.00610   0.01267  Uiso   1.00
C13    C     0.60440   0.29030   0.96790   0.01267  Uiso   1.00
C14    C     0.52010   0.16170   0.10330   0.01267  Uiso   1.00
C15    C     0.44290   0.20550   0.15570   0.01267  Uiso   1.00
C16    C     0.84670   0.13370   0.05990   0.01267  Uiso   1.00
C17    C     0.02560   0.17150   0.14190   0.01267  Uiso   1.00
C18    C     0.93310   0.16990   0.20700   0.01267  Uiso   1.00
C19    C     0.03730   0.21320   0.02640   0.01267  Uiso   1.00
C20    C     0.10450   0.28430   0.03540   0.01267  Uiso   1.00
C21    C     0.71360   0.01820   0.84580   0.01267  Uiso   1.00
C22    C     0.51860   0.00610   0.76430   0.01267  Uiso   1.00
C23    C     0.60440   0.96790   0.70970   0.01267  Uiso   1.00
C24    C     0.52010   0.10330   0.83830   0.01267  Uiso   1.00
C25    C     0.44290   0.15570   0.79450   0.01267  Uiso   1.00
C26    C     0.84670   0.05990   0.86630   0.01267  Uiso   1.00
C27    C     0.02560   0.14190   0.82850   0.01267  Uiso   1.00
C28    C     0.93310   0.20700   0.83010   0.01267  Uiso   1.00
C29    C     0.03730   0.02640   0.78680   0.01267  Uiso   1.00
C30    C     0.10450   0.03540   0.71570   0.01267  Uiso   1.00
C31    C     0.71360   0.98180   0.15420   0.01267  Uiso   1.00
C32    C     0.51860   0.99390   0.23570   0.01267  Uiso   1.00
C33    C     0.60440   0.03210   0.29030   0.01267  Uiso   1.00
C34    C     0.52010   0.89670   0.16170   0.01267  Uiso   1.00
C35    C     0.44290   0.84430   0.20550   0.01267  Uiso   1.00
C36    C     0.84670   0.94010   0.13370   0.01267  Uiso   1.00
C37    C     0.02560   0.85810   0.17150   0.01267  Uiso   1.00
C38    C     0.93310   0.79300   0.16990   0.01267  Uiso   1.00
C39    C     0.03730   0.97360   0.21320   0.01267  Uiso   1.00
C40    C     0.10450   0.96460   0.28430   0.01267  Uiso   1.00
C41    C     0.21360   0.34580   0.51820   0.01267  Uiso   1.00
C42    C     0.01860   0.26430   0.50610   0.01267  Uiso   1.00
C43    C     0.10440   0.20970   0.46790   0.01267  Uiso   1.00
C44    C     0.02010   0.33830   0.60330   0.01267  Uiso   1.00
C45    C     0.94290   0.29450   0.65570   0.01267  Uiso   1.00
C46    C     0.34670   0.36630   0.55990   0.01267  Uiso   1.00
C47    C     0.52560   0.32850   0.64190   0.01267  Uiso   1.00
C48    C     0.43310   0.33010   0.70700   0.01267  Uiso   1.00
C49    C     0.53730   0.28680   0.52640   0.01267  Uiso   1.00
C50    C     0.60450   0.21570   0.53540   0.01267  Uiso   1.00
C51    C     0.21360   0.65420   0.48180   0.01267  Uiso   1.00
C52    C     0.01860   0.73570   0.49390   0.01267  Uiso   1.00
C53    C     0.10440   0.79030   0.53210   0.01267  Uiso   1.00
C54    C     0.02010   0.66170   0.39670   0.01267  Uiso   1.00
C55    C     0.94290   0.70550   0.34430   0.01267  Uiso   1.00
C56    C     0.34670   0.63370   0.44010   0.01267  Uiso   1.00
C57    C     0.52560   0.67150   0.35810   0.01267  Uiso   1.00
C58    C     0.43310   0.66990   0.29300   0.01267  Uiso   1.00
C59    C     0.53730   0.71320   0.47360   0.01267  Uiso   1.00
C60    C     0.60450   0.78430   0.46460   0.01267  Uiso   1.00
C61    C     0.21360   0.51820   0.65420   0.01267  Uiso   1.00
C62    C     0.01860   0.50610   0.73570   0.01267  Uiso   1.00
C63    C     0.10440   0.46790   0.79030   0.01267  Uiso   1.00
C64    C     0.02010   0.60330   0.66170   0.01267  Uiso   1.00
C65    C     0.94290   0.65570   0.70550   0.01267  Uiso   1.00
C66    C     0.34670   0.55990   0.63370   0.01267  Uiso   1.00
C67    C     0.52560   0.64190   0.67150   0.01267  Uiso   1.00
C68    C     0.43310   0.70700   0.66990   0.01267  Uiso   1.00
C69    C     0.53730   0.52640   0.71320   0.01267  Uiso   1.00
C70    C     0.60450   0.53540   0.78430   0.01267  Uiso   1.00
C71    C     0.21360   0.48180   0.34580   0.01267  Uiso   1.00
C72    C     0.01860   0.49390   0.26430   0.01267  Uiso   1.00
C73    C     0.10440   0.53210   0.20970   0.01267  Uiso   1.00
C74    C     0.02010   0.39670   0.33830   0.01267  Uiso   1.00
C75    C     0.94290   0.34430   0.29450   0.01267  Uiso   1.00
C76    C     0.34670   0.44010   0.36630   0.01267  Uiso   1.00
C77    C     0.52560   0.35810   0.32850   0.01267  Uiso   1.00
C78    C     0.43310   0.29300   0.33010   0.01267  Uiso   1.00
C79    C     0.53730   0.47360   0.28680   0.01267  Uiso   1.00
C80    C     0.60450   0.46460   0.21570   0.01267  Uiso   1.00
N1     N     0.61060   0.80050   0.94560   0.01267  Uiso   1.00
N2     N     0.93860   0.80920   0.91880   0.01267  Uiso   1.00
N3     N     0.61060   0.19950   0.05440   0.01267  Uiso   1.00
N4     N     0.93860   0.19080   0.08120   0.01267  Uiso   1.00
N5     N     0.61060   0.05440   0.80050   0.01267  Uiso   1.00
N6     N     0.93860   0.08120   0.80920   0.01267  Uiso   1.00
N7     N     0.61060   0.94560   0.19950   0.01267  Uiso   1.00
N8     N     0.93860   0.91880   0.19080   0.01267  Uiso   1.00
N9     N     0.11060   0.30050   0.55440   0.01267  Uiso   1.00
N10    N     0.43860   0.30920   0.58120   0.01267  Uiso   1.00
N11    N     0.11060   0.69950   0.44560   0.01267  Uiso   1.00
N12    N     0.43860   0.69080   0.41880   0.01267  Uiso   1.00
N13    N     0.11060   0.55440   0.69950   0.01267  Uiso   1.00
N14    N     0.43860   0.58120   0.69080   0.01267  Uiso   1.00
N15    N     0.11060   0.44560   0.30050   0.01267  Uiso   1.00
N16    N     0.43860   0.41880   0.30920   0.01267  Uiso   1.00
O1     O     0.71470   0.68440   0.00200   0.01267  Uiso   1.00
O2     O     0.55970   0.69220   0.08890   0.01267  Uiso   1.00
O3     O     0.47650   0.73290   0.84000   0.01267  Uiso   1.00
O4     O     0.35000   0.82430   0.80790   0.01267  Uiso   1.00
O5     O     0.80050   0.81055   0.79331   0.01267  Uiso   1.00
O6     O     0.99890   0.85180   0.74151   0.01267  Uiso   1.00
O7     O     0.18830   0.69560   0.01090   0.01267  Uiso   1.00
O8     O     0.07140   0.68370   0.91170   0.01267  Uiso   1.00
O9     O     0.71470   0.31560   0.99800   0.01267  Uiso   1.00
O10    O     0.55970   0.30780   0.91110   0.01267  Uiso   1.00
O11    O     0.47650   0.26710   0.16000   0.01267  Uiso   1.00
O12    O     0.35000   0.17570   0.19210   0.01267  Uiso   1.00
O13    O     0.80050   0.18945   0.20669   0.01267  Uiso   1.00
O14    O     0.99890   0.14820   0.25849   0.01267  Uiso   1.00
O15    O     0.18830   0.30440   0.98910   0.01267  Uiso   1.00
O16    O     0.07140   0.31630   0.08830   0.01267  Uiso   1.00
O17    O     0.71470   0.99800   0.68440   0.01267  Uiso   1.00
O18    O     0.55970   0.91110   0.69220   0.01267  Uiso   1.00
O19    O     0.47650   0.16000   0.73290   0.01267  Uiso   1.00
O20    O     0.35000   0.19210   0.82430   0.01267  Uiso   1.00
O21    O     0.80050   0.20669   0.81055   0.01267  Uiso   1.00
O22    O     0.99890   0.25849   0.85180   0.01267  Uiso   1.00
O23    O     0.18830   0.98910   0.69560   0.01267  Uiso   1.00
O24    O     0.07140   0.08830   0.68370   0.01267  Uiso   1.00
O25    O     0.71470   0.00200   0.31560   0.01267  Uiso   1.00
O26    O     0.55970   0.08890   0.30780   0.01267  Uiso   1.00
O27    O     0.47650   0.84000   0.26710   0.01267  Uiso   1.00
O28    O     0.35000   0.80790   0.17570   0.01267  Uiso   1.00
O29    O     0.80050   0.79331   0.18945   0.01267  Uiso   1.00
O30    O     0.99890   0.74151   0.14820   0.01267  Uiso   1.00
O31    O     0.18830   0.01090   0.30440   0.01267  Uiso   1.00
O32    O     0.07140   0.91170   0.31630   0.01267  Uiso   1.00
O33    O     0.21470   0.18440   0.49800   0.01267  Uiso   1.00
O34    O     0.05970   0.19220   0.41110   0.01267  Uiso   1.00
O35    O     0.97650   0.23290   0.66000   0.01267  Uiso   1.00
O36    O     0.85000   0.32430   0.69210   0.01267  Uiso   1.00
O37    O     0.30050   0.31055   0.70669   0.01267  Uiso   1.00
O38    O     0.49890   0.35180   0.75849   0.01267  Uiso   1.00
O39    O     0.68830   0.19560   0.48910   0.01267  Uiso   1.00
O40    O     0.57140   0.18370   0.58830   0.01267  Uiso   1.00
O41    O     0.21470   0.81560   0.50200   0.01267  Uiso   1.00
O42    O     0.05970   0.80780   0.58890   0.01267  Uiso   1.00
O43    O     0.97650   0.76710   0.34000   0.01267  Uiso   1.00
O44    O     0.85000   0.67570   0.30790   0.01267  Uiso   1.00
O45    O     0.30050   0.68945   0.29331   0.01267  Uiso   1.00
O46    O     0.49890   0.64820   0.24151   0.01267  Uiso   1.00
O47    O     0.68830   0.80440   0.51090   0.01267  Uiso   1.00
O48    O     0.57140   0.81630   0.41170   0.01267  Uiso   1.00
O49    O     0.21470   0.49800   0.81560   0.01267  Uiso   1.00
O50    O     0.05970   0.41110   0.80780   0.01267  Uiso   1.00
O51    O     0.97650   0.66000   0.76710   0.01267  Uiso   1.00
O52    O     0.85000   0.69210   0.67570   0.01267  Uiso   1.00
O53    O     0.30050   0.70669   0.68945   0.01267  Uiso   1.00
O54    O     0.49890   0.75849   0.64820   0.01267  Uiso   1.00
O55    O     0.68830   0.48910   0.80440   0.01267  Uiso   1.00
O56    O     0.57140   0.58830   0.81630   0.01267  Uiso   1.00
O57    O     0.21470   0.50200   0.18440   0.01267  Uiso   1.00
O58    O     0.05970   0.58890   0.19220   0.01267  Uiso   1.00
O59    O     0.97650   0.34000   0.23290   0.01267  Uiso   1.00
O60    O     0.85000   0.30790   0.32430   0.01267  Uiso   1.00
O61    O     0.30050   0.29331   0.31055   0.01267  Uiso   1.00
O62    O     0.49890   0.24151   0.35180   0.01267  Uiso   1.00
O63    O     0.68830   0.51090   0.19560   0.01267  Uiso   1.00
O64    O     0.57140   0.41170   0.18370   0.01267  Uiso   1.00
