data_image0
_cell_length_a       12.0432
_cell_length_b       15.9322
_cell_length_c       16.642
_cell_angle_alpha    76.77
_cell_angle_beta     70.172
_cell_angle_gamma    85.481

_symmetry_space_group_name_H-M    "P 1"
_symmetry_int_tables_number       1

loop_
  _symmetry_equiv_pos_as_xyz
  'x, y, z'

loop_
  _atom_site_label
  _atom_site_occupancy
  _atom_site_fract_x
  _atom_site_fract_y
  _atom_site_fract_z
  _atom_site_thermal_displace_type
  _atom_site_B_iso_or_equiv
  _atom_site_type_symbol
  Zn1      1.0000 0.67807  0.84075  0.36224  Biso   1.000  Zn
  C1       1.0000 0.74980  0.13570  0.13700  Biso   1.000  C
  H1       1.0000 0.76430  0.09590  0.18270  Biso   1.000  H
  C2       1.0000 0.63670  0.14310  0.12670  Biso   1.000  C
  C3       1.0000 0.61690  0.19500  0.05890  Biso   1.000  C
  C4       1.0000 0.71010  0.24830  0.99920  Biso   1.000  C
  H2       1.0000 0.69720  0.28650  0.95190  Biso   1.000  H
  C5       1.0000 0.81900  0.24600  0.00820  Biso   1.000  C
  C6       1.0000 0.83540  0.18910  0.07730  Biso   1.000  C
  C7       1.0000 0.91980  0.30480  0.94360  Biso   1.000  C
  H3       1.0000 0.99320  0.27130  0.93490  Biso   1.000  H
  C8       1.0000 0.92960  0.38070  0.98880  Biso   1.000  C
  C9       1.0000 0.92820  0.35980  0.08220  Biso   1.000  C
  C10      1.0000 0.90640  0.33930  0.85590  Biso   1.000  C
  C11      1.0000 0.87910  0.42500  0.82420  Biso   1.000  C
  H4       1.0000 0.86220  0.46250  0.86220  Biso   1.000  H
  C12      1.0000 0.87550  0.45690  0.74310  Biso   1.000  C
  C13      1.0000 0.90060  0.39970  0.68510  Biso   1.000  C
  C14      1.0000 0.92610  0.31490  0.71390  Biso   1.000  C
  H5       1.0000 0.94180  0.27720  0.67620  Biso   1.000  H
  C15      1.0000 0.92880  0.28480  0.79730  Biso   1.000  C
  C16      1.0000 0.84800  0.55070  0.71140  Biso   1.000  C
  H6       1.0000 0.89660  0.56600  0.64960  Biso   1.000  H
  C17      1.0000 0.87970  0.61460  0.75460  Biso   1.000  C
  H7       1.0000 0.85370  0.67140  0.73180  Biso   1.000  H
  H8       1.0000 0.83660  0.59970  0.81680  Biso   1.000  H
  C18      1.0000 0.01080  0.61900  0.74160  Biso   1.000  C
  H9       1.0000 0.02310  0.66010  0.77190  Biso   1.000  H
  H10      1.0000 0.05420  0.63630  0.68040  Biso   1.000  H
  H11      1.0000 0.03760  0.56320  0.76450  Biso   1.000  H
  C19      1.0000 0.72120  0.56720  0.71360  Biso   1.000  C
  C20      1.0000 0.68380  0.64390  0.67010  Biso   1.000  C
  C21      1.0000 0.56600  0.66130  0.67260  Biso   1.000  C
  H12      1.0000 0.54470  0.71250  0.64140  Biso   1.000  H
  C22      1.0000 0.48390  0.59780  0.72430  Biso   1.000  C
  C23      1.0000 0.51330  0.52130  0.77000  Biso   1.000  C
  C24      1.0000 0.63270  0.50690  0.76570  Biso   1.000  C
  H13      1.0000 0.65280  0.45610  0.79820  Biso   1.000  H
  C25      1.0000 0.41990  0.45590  0.83010  Biso   1.000  C
  H14      1.0000 0.36690  0.45280  0.79730  Biso   1.000  H
  C26      1.0000 0.34390  0.49110  0.91010  Biso   1.000  C
  C27      1.0000 0.46670  0.36550  0.84950  Biso   1.000  C
  C28      1.0000 0.46340  0.32040  0.93330  Biso   1.000  C
  H15      1.0000 0.43350  0.35030  0.97810  Biso   1.000  H
  C29      1.0000 0.49880  0.23860  0.95600  Biso   1.000  C
  C30      1.0000 0.53960  0.19620  0.88870  Biso   1.000  C
  C31      1.0000 0.54630  0.23520  0.80390  Biso   1.000  C
  H16      1.0000 0.57560  0.20400  0.76020  Biso   1.000  H
  C32      1.0000 0.51070  0.31880  0.78270  Biso   1.000  C
  C33      1.0000 0.49450  0.20040  0.04620  Biso   1.000  C
  H17      1.0000 0.47240  0.14010  0.05550  Biso   1.000  H
  C34      1.0000 0.40330  0.23320  0.11910  Biso   1.000  C
  H18      1.0000 0.41130  0.29510  0.10910  Biso   1.000  H
  H19      1.0000 0.41630  0.20740  0.17400  Biso   1.000  H
  C35      1.0000 0.27860  0.21200  0.12580  Biso   1.000  C
  H20      1.0000 0.22220  0.23430  0.17250  Biso   1.000  H
  H21      1.0000 0.26970  0.15060  0.13740  Biso   1.000  H
  H22      1.0000 0.26540  0.23770  0.07170  Biso   1.000  H
  C36      1.0000 0.53710  0.06600  0.27200  Biso   1.000  C
  H23      1.0000 0.45380  0.06460  0.30620  Biso   1.000  H
  H24      1.0000 0.57260  0.11220  0.28400  Biso   1.000  H
  C37      1.0000 0.58890  0.98640  0.30210  Biso   1.000  C
  C38      1.0000 0.97070  0.13570  0.15320  Biso   1.000  C
  H25      1.0000 0.05270  0.13890  0.14660  Biso   1.000  H
  H26      1.0000 0.95000  0.07680  0.16020  Biso   1.000  H
  H27      1.0000 0.92350  0.15680  0.20380  Biso   1.000  H
  C39      1.0000 0.96500  0.13770  0.77950  Biso   1.000  C
  H28      1.0000 0.91000  0.15170  0.74730  Biso   1.000  H
  H29      1.0000 0.94220  0.08190  0.81860  Biso   1.000  H
  C40      1.0000 0.08200  0.12870  0.71700  Biso   1.000  C
  C41      1.0000 0.93610  0.37380  0.54350  Biso   1.000  C
  H30      1.0000 0.93370  0.40190  0.48650  Biso   1.000  H
  H31      1.0000 0.88320  0.32550  0.56670  Biso   1.000  H
  H32      1.0000 0.01490  0.35410  0.53900  Biso   1.000  H
  C42      1.0000 0.74060  0.78820  0.60230  Biso   1.000  C
  H33      1.0000 0.81190  0.81970  0.59120  Biso   1.000  H
  H34      1.0000 0.68810  0.79620  0.65890  Biso   1.000  H
  C43      1.0000 0.68430  0.84040  0.53740  Biso   1.000  C
  C44      1.0000 0.34340  0.68670  0.68310  Biso   1.000  C
  H35      1.0000 0.26070  0.68920  0.69040  Biso   1.000  H
  H36      1.0000 0.38840  0.69140  0.62240  Biso   1.000  H
  H37      1.0000 0.36350  0.73330  0.70330  Biso   1.000  H
  C45      1.0000 0.58230  0.32560  0.63420  Biso   1.000  C
  H38      1.0000 0.65410  0.30310  0.64540  Biso   1.000  H
  H39      1.0000 0.60460  0.37130  0.58200  Biso   1.000  H
  C46      1.0000 0.52270  0.25330  0.61650  Biso   1.000  C
  C47      1.0000 0.61240  0.06090  0.84550  Biso   1.000  C
  H40      1.0000 0.63380  0.00400  0.87000  Biso   1.000  H
  H41      1.0000 0.67940  0.08820  0.79860  Biso   1.000  H
  H42      1.0000 0.54930  0.05740  0.82350  Biso   1.000  H
  O1       1.0000 0.54730  0.08680  0.18270  Biso   1.000  O
  O2       1.0000 0.64050  0.94110  0.24960  Biso   1.000  O
  O3       1.0000 0.58090  0.96360  0.37940  Biso   1.000  O
  O4       1.0000 0.95050  0.18460  0.08060  Biso   1.000  O
  O5       1.0000 0.95030  0.20010  0.83200  Biso   1.000  O
  O6       1.0000 0.09560  0.08000  0.67010  Biso   1.000  O
  O7       1.0000 0.16170  0.17830  0.71380  Biso   1.000  O
  O8       1.0000 0.89920  0.43600  0.60280  Biso   1.000  O
  O9       1.0000 0.77420  0.70100  0.61750  Biso   1.000  O
  O10      1.0000 0.68670  0.80190  0.48370  Biso   1.000  O
  O11      1.0000 0.64530  0.92280  0.53980  Biso   1.000  O
  O12      1.0000 0.36880  0.60900  0.73100  Biso   1.000  O
  O13      1.0000 0.51430  0.36000  0.70270  Biso   1.000  O
  O14      1.0000 0.58700  0.20820  0.56960  Biso   1.000  O
  H43      1.0000 0.54740  0.17210  0.56360  Biso   1.000  H
  O15      1.0000 0.41330  0.24970  0.64750  Biso   1.000  O
  O16      1.0000 0.57540  0.10990  0.91080  Biso   1.000  O
  Zn2      1.0000 0.32193  0.15925  0.63776  Biso   1.000  Zn
  C48      1.0000 0.25020  0.86430  0.86300  Biso   1.000  C
  H44      1.0000 0.23570  0.90410  0.81730  Biso   1.000  H
  C49      1.0000 0.36330  0.85690  0.87330  Biso   1.000  C
  C50      1.0000 0.38310  0.80500  0.94110  Biso   1.000  C
  C51      1.0000 0.28990  0.75170  0.00080  Biso   1.000  C
  H45      1.0000 0.30280  0.71350  0.04810  Biso   1.000  H
  C52      1.0000 0.18100  0.75400  0.99180  Biso   1.000  C
  C53      1.0000 0.16460  0.81090  0.92270  Biso   1.000  C
  C54      1.0000 0.08020  0.69520  0.05640  Biso   1.000  C
  H46      1.0000 0.00680  0.72870  0.06510  Biso   1.000  H
  C55      1.0000 0.07040  0.61930  0.01120  Biso   1.000  C
  C56      1.0000 0.07180  0.64020  0.91780  Biso   1.000  C
  C57      1.0000 0.09360  0.66070  0.14410  Biso   1.000  C
  C58      1.0000 0.12090  0.57500  0.17580  Biso   1.000  C
  H47      1.0000 0.13780  0.53750  0.13780  Biso   1.000  H
  C59      1.0000 0.12450  0.54310  0.25690  Biso   1.000  C
  C60      1.0000 0.09940  0.60030  0.31490  Biso   1.000  C
  C61      1.0000 0.07390  0.68510  0.28610  Biso   1.000  C
  H48      1.0000 0.05820  0.72280  0.32380  Biso   1.000  H
  C62      1.0000 0.07120  0.71520  0.20270  Biso   1.000  C
  C63      1.0000 0.15200  0.44930  0.28860  Biso   1.000  C
  H49      1.0000 0.10340  0.43400  0.35040  Biso   1.000  H
  C64      1.0000 0.12030  0.38540  0.24540  Biso   1.000  C
  H50      1.0000 0.14630  0.32860  0.26820  Biso   1.000  H
  H51      1.0000 0.16340  0.40030  0.18320  Biso   1.000  H
  C65      1.0000 0.98920  0.38100  0.25840  Biso   1.000  C
  H52      1.0000 0.97690  0.33990  0.22810  Biso   1.000  H
  H53      1.0000 0.94580  0.36370  0.31960  Biso   1.000  H
  H54      1.0000 0.96240  0.43680  0.23550  Biso   1.000  H
  C66      1.0000 0.27880  0.43280  0.28640  Biso   1.000  C
  C67      1.0000 0.31620  0.35610  0.32990  Biso   1.000  C
  C68      1.0000 0.43400  0.33870  0.32740  Biso   1.000  C
  H55      1.0000 0.45530  0.28750  0.35860  Biso   1.000  H
  C69      1.0000 0.51610  0.40220  0.27570  Biso   1.000  C
  C70      1.0000 0.48670  0.47870  0.23000  Biso   1.000  C
  C71      1.0000 0.36730  0.49310  0.23430  Biso   1.000  C
  H56      1.0000 0.34720  0.54390  0.20180  Biso   1.000  H
  C72      1.0000 0.58010  0.54410  0.16990  Biso   1.000  C
  H57      1.0000 0.63310  0.54720  0.20270  Biso   1.000  H
  C73      1.0000 0.65610  0.50890  0.08990  Biso   1.000  C
  C74      1.0000 0.53330  0.63450  0.15050  Biso   1.000  C
  C75      1.0000 0.53660  0.67960  0.06670  Biso   1.000  C
  H58      1.0000 0.56650  0.64970  0.02190  Biso   1.000  H
  C76      1.0000 0.50120  0.76140  0.04400  Biso   1.000  C
  C77      1.0000 0.46040  0.80380  0.11130  Biso   1.000  C
  C78      1.0000 0.45370  0.76480  0.19610  Biso   1.000  C
  H59      1.0000 0.42440  0.79600  0.23980  Biso   1.000  H
  C79      1.0000 0.48930  0.68120  0.21730  Biso   1.000  C
  C80      1.0000 0.50550  0.79960  0.95380  Biso   1.000  C
  H60      1.0000 0.52760  0.85990  0.94450  Biso   1.000  H
  C81      1.0000 0.59670  0.76680  0.88090  Biso   1.000  C
  H61      1.0000 0.58870  0.70490  0.89090  Biso   1.000  H
  H62      1.0000 0.58370  0.79260  0.82600  Biso   1.000  H
  C82      1.0000 0.72140  0.78800  0.87420  Biso   1.000  C
  H63      1.0000 0.77780  0.76570  0.82750  Biso   1.000  H
  H64      1.0000 0.73030  0.84940  0.86260  Biso   1.000  H
  H65      1.0000 0.73460  0.76230  0.92830  Biso   1.000  H
  C83      1.0000 0.46290  0.93400  0.72800  Biso   1.000  C
  H66      1.0000 0.54620  0.93540  0.69380  Biso   1.000  H
  H67      1.0000 0.42740  0.88780  0.71600  Biso   1.000  H
  C84      1.0000 0.41110  0.01360  0.69790  Biso   1.000  C
  C85      1.0000 0.02930  0.86430  0.84680  Biso   1.000  C
  H68      1.0000 0.94730  0.86110  0.85340  Biso   1.000  H
  H69      1.0000 0.05000  0.92320  0.83980  Biso   1.000  H
  H70      1.0000 0.07650  0.84320  0.79620  Biso   1.000  H
  C86      1.0000 0.03500  0.86230  0.22050  Biso   1.000  C
  H71      1.0000 0.09000  0.84830  0.25270  Biso   1.000  H
  H72      1.0000 0.05780  0.91810  0.18140  Biso   1.000  H
  C87      1.0000 0.91800  0.87130  0.28300  Biso   1.000  C
  C88      1.0000 0.06390  0.62620  0.45650  Biso   1.000  C
  H73      1.0000 0.06630  0.59810  0.51350  Biso   1.000  H
  H74      1.0000 0.11680  0.67450  0.43330  Biso   1.000  H
  H75      1.0000 0.98510  0.64590  0.46100  Biso   1.000  H
  C89      1.0000 0.25940  0.21180  0.39770  Biso   1.000  C
  H76      1.0000 0.18810  0.18030  0.40880  Biso   1.000  H
  H77      1.0000 0.31190  0.20380  0.34110  Biso   1.000  H
  C90      1.0000 0.31570  0.15960  0.46260  Biso   1.000  C
  C91      1.0000 0.65660  0.31330  0.31690  Biso   1.000  C
  H78      1.0000 0.73930  0.31080  0.30960  Biso   1.000  H
  H79      1.0000 0.61160  0.30860  0.37760  Biso   1.000  H
  H80      1.0000 0.63650  0.26670  0.29670  Biso   1.000  H
  C92      1.0000 0.41770  0.67440  0.36580  Biso   1.000  C
  H81      1.0000 0.34590  0.69690  0.35460  Biso   1.000  H
  H82      1.0000 0.39540  0.62870  0.41800  Biso   1.000  H
  C93      1.0000 0.47730  0.74670  0.38350  Biso   1.000  C
  C94      1.0000 0.38760  0.93910  0.15450  Biso   1.000  C
  H83      1.0000 0.36620  0.99600  0.13000  Biso   1.000  H
  H84      1.0000 0.32060  0.91180  0.20140  Biso   1.000  H
  H85      1.0000 0.45070  0.94260  0.17650  Biso   1.000  H
  O17      1.0000 0.45270  0.91320  0.81730  Biso   1.000  O
  O18      1.0000 0.35950  0.05890  0.75040  Biso   1.000  O
  O19      1.0000 0.41910  0.03640  0.62060  Biso   1.000  O
  O20      1.0000 0.04950  0.81540  0.91940  Biso   1.000  O
  O21      1.0000 0.04970  0.79990  0.16800  Biso   1.000  O
  O22      1.0000 0.90440  0.92000  0.32990  Biso   1.000  O
  O23      1.0000 0.83830  0.82170  0.28620  Biso   1.000  O
  O24      1.0000 0.10080  0.56400  0.39720  Biso   1.000  O
  O25      1.0000 0.22580  0.29900  0.38250  Biso   1.000  O
  O26      1.0000 0.31330  0.19810  0.51630  Biso   1.000  O
  O27      1.0000 0.35470  0.07720  0.46020  Biso   1.000  O
  O28      1.0000 0.63120  0.39100  0.26900  Biso   1.000  O
  O29      1.0000 0.48570  0.64000  0.29730  Biso   1.000  O
  O30      1.0000 0.41300  0.79180  0.43040  Biso   1.000  O
  H86      1.0000 0.45260  0.82790  0.43640  Biso   1.000  H
  O31      1.0000 0.58670  0.75030  0.35250  Biso   1.000  O
  O32      1.0000 0.42460  0.89010  0.08920  Biso   1.000  O
  Zn3      1.0000 0.50000  0.00000  0.50000  Biso   1.000  Zn
