data_image0
_cell_length_a       16.16
_cell_length_b       16.16
_cell_length_c       13.46
_cell_angle_alpha    90
_cell_angle_beta     90
_cell_angle_gamma    90

_symmetry_space_group_name_H-M    "P 1"
_symmetry_int_tables_number       1

loop_
  _symmetry_equiv_pos_as_xyz
  'x, y, z'

loop_
  _atom_site_label
  _atom_site_occupancy
  _atom_site_fract_x
  _atom_site_fract_y
  _atom_site_fract_z
  _atom_site_thermal_displace_type
  _atom_site_B_iso_or_equiv
  _atom_site_type_symbol
  C1       1.0000 0.33140  0.03280  0.23630  Biso   1.000  C
  N1       1.0000 0.46720  0.16860  0.23630  Biso   1.000  N
  C2       1.0000 0.83140  0.53280  0.73630  Biso   1.000  C
  N2       1.0000 0.96720  0.66860  0.73630  Biso   1.000  N
  C3       1.0000 0.66860  0.96720  0.23630  Biso   1.000  C
  N3       1.0000 0.53280  0.83140  0.23630  Biso   1.000  N
  C4       1.0000 0.16860  0.46720  0.73630  Biso   1.000  C
  N4       1.0000 0.03280  0.33140  0.73630  Biso   1.000  N
  C5       1.0000 0.96720  0.33140  0.23630  Biso   1.000  C
  N5       1.0000 0.83140  0.46720  0.23630  Biso   1.000  N
  C6       1.0000 0.46720  0.83140  0.73630  Biso   1.000  C
  N6       1.0000 0.33140  0.96720  0.73630  Biso   1.000  N
  C7       1.0000 0.03280  0.66860  0.23630  Biso   1.000  C
  N7       1.0000 0.16860  0.53280  0.23630  Biso   1.000  N
  C8       1.0000 0.53280  0.16860  0.73630  Biso   1.000  C
  N8       1.0000 0.66860  0.03280  0.73630  Biso   1.000  N
  C9       1.0000 0.66860  0.03280  0.26370  Biso   1.000  C
  N9       1.0000 0.53280  0.16860  0.26370  Biso   1.000  N
  C10      1.0000 0.16860  0.53280  0.76370  Biso   1.000  C
  N10      1.0000 0.03280  0.66860  0.76370  Biso   1.000  N
  C11      1.0000 0.33140  0.96720  0.26370  Biso   1.000  C
  N11      1.0000 0.46720  0.83140  0.26370  Biso   1.000  N
  C12      1.0000 0.83140  0.46720  0.76370  Biso   1.000  C
  N12      1.0000 0.96720  0.33140  0.76370  Biso   1.000  N
  C13      1.0000 0.03280  0.33140  0.26370  Biso   1.000  C
  N13      1.0000 0.16860  0.46720  0.26370  Biso   1.000  N
  C14      1.0000 0.53280  0.83140  0.76370  Biso   1.000  C
  N14      1.0000 0.66860  0.96720  0.76370  Biso   1.000  N
  C15      1.0000 0.96720  0.66860  0.26370  Biso   1.000  C
  N15      1.0000 0.83140  0.53280  0.26370  Biso   1.000  N
  C16      1.0000 0.46720  0.16860  0.76370  Biso   1.000  C
  N16      1.0000 0.33140  0.03280  0.76370  Biso   1.000  N
  Cu1      1.0000 0.35424  0.14576  0.18818  Biso   1.000  Cu
  C17      1.0000 0.35290  0.14710  0.04230  Biso   1.000  C
  C18      1.0000 0.27350  0.22650  0.23800  Biso   1.000  C
  Cu2      1.0000 0.64576  0.85424  0.18818  Biso   1.000  Cu
  C19      1.0000 0.64710  0.85290  0.04230  Biso   1.000  C
  C20      1.0000 0.72650  0.77350  0.23800  Biso   1.000  C
  Cu3      1.0000 0.14576  0.35424  0.68818  Biso   1.000  Cu
  C21      1.0000 0.14710  0.35290  0.54230  Biso   1.000  C
  C22      1.0000 0.22650  0.27350  0.73800  Biso   1.000  C
  Cu4      1.0000 0.85424  0.35424  0.18818  Biso   1.000  Cu
  C23      1.0000 0.85290  0.35290  0.04230  Biso   1.000  C
  C24      1.0000 0.77350  0.27350  0.23800  Biso   1.000  C
  Cu5      1.0000 0.14576  0.64576  0.18818  Biso   1.000  Cu
  C25      1.0000 0.14710  0.64710  0.04230  Biso   1.000  C
  C26      1.0000 0.22650  0.72650  0.23800  Biso   1.000  C
  Cu6      1.0000 0.64576  0.14576  0.31182  Biso   1.000  Cu
  C27      1.0000 0.64710  0.14710  0.45770  Biso   1.000  C
  C28      1.0000 0.72650  0.22650  0.26200  Biso   1.000  C
  Cu7      1.0000 0.35424  0.85424  0.31182  Biso   1.000  Cu
  C29      1.0000 0.35290  0.85290  0.45770  Biso   1.000  C
  C30      1.0000 0.27350  0.77350  0.26200  Biso   1.000  C
  Cu8      1.0000 0.14576  0.35424  0.31182  Biso   1.000  Cu
  C31      1.0000 0.14710  0.35290  0.45770  Biso   1.000  C
  C32      1.0000 0.22650  0.27350  0.26200  Biso   1.000  C
  Cu9      1.0000 0.85424  0.64576  0.31182  Biso   1.000  Cu
  C33      1.0000 0.85290  0.64710  0.45770  Biso   1.000  C
  C34      1.0000 0.77350  0.72650  0.26200  Biso   1.000  C
  Cu10     1.0000 0.64576  0.85424  0.81182  Biso   1.000  Cu
  C35      1.0000 0.64710  0.85290  0.95770  Biso   1.000  C
  C36      1.0000 0.72650  0.77350  0.76200  Biso   1.000  C
  Cu11     1.0000 0.35424  0.14576  0.81182  Biso   1.000  Cu
  C37      1.0000 0.35290  0.14710  0.95770  Biso   1.000  C
  C38      1.0000 0.27350  0.22650  0.76200  Biso   1.000  C
  Cu12     1.0000 0.14576  0.64576  0.81182  Biso   1.000  Cu
  C39      1.0000 0.14710  0.64710  0.95770  Biso   1.000  C
  C40      1.0000 0.22650  0.72650  0.76200  Biso   1.000  C
  Cu13     1.0000 0.85424  0.35424  0.81182  Biso   1.000  Cu
  C41      1.0000 0.85290  0.35290  0.95770  Biso   1.000  C
  C42      1.0000 0.77350  0.27350  0.76200  Biso   1.000  C
  Cu14     1.0000 0.35424  0.85424  0.68818  Biso   1.000  Cu
  C43      1.0000 0.35290  0.85290  0.54230  Biso   1.000  C
  C44      1.0000 0.27350  0.77350  0.73800  Biso   1.000  C
  Cu15     1.0000 0.64576  0.14576  0.68818  Biso   1.000  Cu
  C45      1.0000 0.64710  0.14710  0.54230  Biso   1.000  C
  C46      1.0000 0.72650  0.22650  0.73800  Biso   1.000  C
  Cu16     1.0000 0.85424  0.64576  0.68818  Biso   1.000  Cu
  C47      1.0000 0.85290  0.64710  0.54230  Biso   1.000  C
  C48      1.0000 0.77350  0.72650  0.73800  Biso   1.000  C
