data_image0
_cell_length_a       9.666
_cell_length_b       11.358
_cell_length_c       13.671
_cell_angle_alpha    69.701
_cell_angle_beta     70.792
_cell_angle_gamma    81.668

_symmetry_space_group_name_H-M    "P 1"
_symmetry_int_tables_number       1

loop_
  _symmetry_equiv_pos_as_xyz
  'x, y, z'

loop_
  _atom_site_label
  _atom_site_occupancy
  _atom_site_fract_x
  _atom_site_fract_y
  _atom_site_fract_z
  _atom_site_thermal_displace_type
  _atom_site_B_iso_or_equiv
  _atom_site_type_symbol
  O1       1.0000 0.30040  0.42392  0.61810  Biso   1.000  O
  O2       1.0000 0.15870  0.11630  0.97996  Biso   1.000  O
  N1       1.0000 0.95870  0.16440  0.87735  Biso   1.000  N
  N2       1.0000 0.29900  0.92250  0.71050  Biso   1.000  N
  N3       1.0000 0.74880  0.14930  0.56260  Biso   1.000  N
  O3       1.0000 0.27950  0.28740  0.86748  Biso   1.000  O
  C1       1.0000 0.06580  0.24740  0.83700  Biso   1.000  C
  N4       1.0000 0.41780  0.45880  0.22551  Biso   1.000  N
  C2       1.0000 0.07460  0.35140  0.74340  Biso   1.000  C
  N5       1.0000 0.59370  0.31280  0.55405  Biso   1.000  N
  C3       1.0000 0.17840  0.21690  0.89860  Biso   1.000  C
  C4       1.0000 0.87570  0.07370  0.53060  Biso   1.000  C
  N6       1.0000 0.42660  0.46020  0.38416  Biso   1.000  N
  O4       1.0000 0.17470  0.54000  0.72330  Biso   1.000  O
  C5       1.0000 0.40050  0.96210  0.60340  Biso   1.000  C
  C6       1.0000 0.49250  0.49480  0.27770  Biso   1.000  C
  H1       1.0000 0.57900  0.53840  0.24310  Biso   1.000  H
  C7       1.0000 0.54580  0.22230  0.65480  Biso   1.000  C
  H2       1.0000 0.46160  0.22970  0.71050  Biso   1.000  H
  C8       1.0000 0.19490  0.44600  0.69260  Biso   1.000  C
  C9       1.0000 0.29600  0.39880  0.30320  Biso   1.000  C
  H3       1.0000 0.22380  0.36410  0.29150  Biso   1.000  H
  N7       1.0000 0.14570  0.93240  0.86850  Biso   1.000  N
  C10      1.0000 0.45950  0.48070  0.11050  Biso   1.000  C
  C11      1.0000 0.63970  0.12140  0.66030  Biso   1.000  C
  H4       1.0000 0.63170  0.04750  0.71900  Biso   1.000  H
  C12      1.0000 0.30240  0.40060  0.40090  Biso   1.000  C
  H5       1.0000 0.23360  0.36680  0.46840  Biso   1.000  H
  C13      1.0000 0.22870  0.99610  0.77180  Biso   1.000  C
  H6       1.0000 0.23800  0.08260  0.74830  Biso   1.000  H
  C14      1.0000 0.25510  0.80220  0.77230  Biso   1.000  C
  H7       1.0000 0.28380  0.73010  0.75200  Biso   1.000  H
  C15      1.0000 0.96670  0.36820  0.69290  Biso   1.000  C
  H8       1.0000 0.97030  0.43530  0.62930  Biso   1.000  H
  C16      1.0000 0.71550  0.26610  0.50110  Biso   1.000  C
  H9       1.0000 0.77200  0.30760  0.43050  Biso   1.000  H
  C17      1.0000 0.16200  0.80980  0.86830  Biso   1.000  C
  H10      1.0000 0.11530  0.74200  0.92610  Biso   1.000  H
  C18      1.0000 0.85380  0.18340  0.82890  Biso   1.000  C
  H11      1.0000 0.77900  0.12660  0.85780  Biso   1.000  H
  C19      1.0000 0.85400  0.28540  0.73690  Biso   1.000  C
  H12      1.0000 0.77920  0.29810  0.70510  Biso   1.000  H
  C20      1.0000 0.91520  0.97130  0.60770  Biso   1.000  C
  H13      1.0000 0.85910  0.95160  0.68070  Biso   1.000  H
  C21      1.0000 0.48250  0.11550  0.42680  Biso   1.000  C
  H14      1.0000 0.47030  0.19390  0.37770  Biso   1.000  H
  C22      1.0000 0.38270  0.07770  0.53020  Biso   1.000  C
  H15      1.0000 0.30350  0.13050  0.55020  Biso   1.000  H
  C23      1.0000 0.64710  0.50140  0.94050  Biso   1.000  C
  H16      1.0000 0.74570  0.50200  0.90030  Biso   1.000  H
  C24      1.0000 0.60670  0.48240  0.05200  Biso   1.000  C
  H17      1.0000 0.67770  0.47110  0.08700  Biso   1.000  H
  C25      1.0000 0.03840  0.89730  0.57710  Biso   1.000  C
  H18      1.0000 0.06320  0.82760  0.62970  Biso   1.000  H
  O5       1.0000 0.69960  0.57608  0.38190  Biso   1.000  O
  O6       1.0000 0.84130  0.88370  0.02004  Biso   1.000  O
  N8       1.0000 0.04130  0.83560  0.12265  Biso   1.000  N
  N9       1.0000 0.70100  0.07750  0.28950  Biso   1.000  N
  N10      1.0000 0.25120  0.85070  0.43740  Biso   1.000  N
  O7       1.0000 0.72050  0.71260  0.13252  Biso   1.000  O
  C26      1.0000 0.93420  0.75260  0.16300  Biso   1.000  C
  N11      1.0000 0.58220  0.54120  0.77449  Biso   1.000  N
  C27      1.0000 0.92540  0.64860  0.25660  Biso   1.000  C
  N12      1.0000 0.40630  0.68720  0.44595  Biso   1.000  N
  C28      1.0000 0.82160  0.78310  0.10140  Biso   1.000  C
  C29      1.0000 0.12430  0.92630  0.46940  Biso   1.000  C
  N13      1.0000 0.57340  0.53980  0.61584  Biso   1.000  N
  O8       1.0000 0.82530  0.46000  0.27670  Biso   1.000  O
  C30      1.0000 0.59950  0.03790  0.39660  Biso   1.000  C
  C31      1.0000 0.50750  0.50520  0.72230  Biso   1.000  C
  H19      1.0000 0.42100  0.46160  0.75690  Biso   1.000  H
  C32      1.0000 0.45420  0.77770  0.34520  Biso   1.000  C
  H20      1.0000 0.53840  0.77030  0.28950  Biso   1.000  H
  C33      1.0000 0.80510  0.55400  0.30740  Biso   1.000  C
  C34      1.0000 0.70400  0.60120  0.69680  Biso   1.000  C
  H21      1.0000 0.77620  0.63590  0.70850  Biso   1.000  H
  N14      1.0000 0.85430  0.06760  0.13150  Biso   1.000  N
  C35      1.0000 0.54050  0.51930  0.88950  Biso   1.000  C
  C36      1.0000 0.36030  0.87860  0.33970  Biso   1.000  C
  H22      1.0000 0.36830  0.95250  0.28100  Biso   1.000  H
  C37      1.0000 0.69760  0.59940  0.59910  Biso   1.000  C
  H23      1.0000 0.76640  0.63320  0.53160  Biso   1.000  H
  C38      1.0000 0.77130  0.00390  0.22820  Biso   1.000  C
  H24      1.0000 0.76200  0.91740  0.25170  Biso   1.000  H
  C39      1.0000 0.74490  0.19780  0.22770  Biso   1.000  C
  H25      1.0000 0.71620  0.26990  0.24800  Biso   1.000  H
  C40      1.0000 0.03330  0.63180  0.30710  Biso   1.000  C
  H26      1.0000 0.02970  0.56470  0.37070  Biso   1.000  H
  C41      1.0000 0.28450  0.73390  0.49890  Biso   1.000  C
  H27      1.0000 0.22800  0.69240  0.56950  Biso   1.000  H
  C42      1.0000 0.83800  0.19020  0.13170  Biso   1.000  C
  H28      1.0000 0.88470  0.25800  0.07390  Biso   1.000  H
  C43      1.0000 0.14620  0.81660  0.17110  Biso   1.000  C
  H29      1.0000 0.22100  0.87340  0.14220  Biso   1.000  H
  C44      1.0000 0.14600  0.71460  0.26310  Biso   1.000  C
  H30      1.0000 0.22080  0.70190  0.29490  Biso   1.000  H
  C45      1.0000 0.08480  0.02870  0.39230  Biso   1.000  C
  H31      1.0000 0.14090  0.04840  0.31930  Biso   1.000  H
  C46      1.0000 0.51750  0.88450  0.57320  Biso   1.000  C
  H32      1.0000 0.52970  0.80610  0.62230  Biso   1.000  H
  C47      1.0000 0.61730  0.92230  0.46980  Biso   1.000  C
  H33      1.0000 0.69650  0.86950  0.44980  Biso   1.000  H
  C48      1.0000 0.35290  0.49860  0.05950  Biso   1.000  C
  H34      1.0000 0.25430  0.49800  0.09970  Biso   1.000  H
  C49      1.0000 0.39330  0.51760  0.94800  Biso   1.000  C
  H35      1.0000 0.32230  0.52890  0.91300  Biso   1.000  H
  C50      1.0000 0.96160  0.10270  0.42290  Biso   1.000  C
  H36      1.0000 0.93680  0.17240  0.37030  Biso   1.000  H
  Co1      1.0000 0.50000  0.50000  0.50000  Biso   1.000  Co
  Co2      1.0000 0.00000  0.00000  0.00000  Biso   1.000  Co
