data_BAHGUN01_clean
_audit_creation_date              2014-07-02
_audit_creation_method            'Materials Studio'
_symmetry_space_group_name_H-M    'P1'
_symmetry_Int_Tables_number       1
_symmetry_cell_setting            triclinic
loop_
_symmetry_equiv_pos_as_xyz
  x,y,z
_cell_length_a                    4.9579
_cell_length_b                    10.9881
_cell_length_c                    12.7819
_cell_angle_alpha                 91.5597
_cell_angle_beta                  101.1830
_cell_angle_gamma                 81.9322
loop_
_atom_site_label
_atom_site_type_symbol
_atom_site_fract_x
_atom_site_fract_y
_atom_site_fract_z
_atom_site_U_iso_or_equiv
_atom_site_adp_type
_atom_site_occupancy
Cu1    Cu    0.05648   0.78373   0.22654   0.01267  Uiso   1.00
Cu2    Cu    0.82994   0.28373   0.77346   0.01267  Uiso   1.00
H1     H     0.86140   0.52070   0.66300   0.01267  Uiso   1.00
H2     H     0.64440   0.62850   0.51120   0.01267  Uiso   1.00
H3     H     0.09680   0.38370   0.45540   0.01267  Uiso   1.00
H4     H     0.32790   0.28250   0.61040   0.01267  Uiso   1.00
H5     H     0.31950   0.09260   0.80420   0.01267  Uiso   1.00
H6     H     0.58430   0.95790   0.93160   0.01267  Uiso   1.00
H7     H     0.06190   0.07810   0.13000   0.01267  Uiso   1.00
H8     H     0.82520   0.21610  -0.00000   0.01267  Uiso   1.00
H9     H     0.19840   0.02070   0.33700   0.01267  Uiso   1.00
H10    H     0.13320   0.12850   0.48880   0.01267  Uiso   1.00
H11    H     0.64140   0.88370   0.54460   0.01267  Uiso   1.00
H12    H     0.71750   0.78250   0.38960   0.01267  Uiso   1.00
H13    H     0.51530   0.59260   0.19580   0.01267  Uiso   1.00
H14    H     0.65270   0.45790   0.06840   0.01267  Uiso   1.00
H15    H     0.93190   0.57810   0.87000   0.01267  Uiso   1.00
H16    H     0.82520   0.71610   0.00000   0.01267  Uiso   1.00
C1     C     0.70536   0.49290   0.62032   0.01267  Uiso   1.00
C2     C     0.57681   0.55790   0.52962   0.01267  Uiso   1.00
C3     C     0.34556   0.51780   0.46552   0.01267  Uiso   1.00
C4     C     0.25267   0.41310   0.49674   0.01267  Uiso   1.00
C5     C     0.39239   0.35280   0.58938   0.01267  Uiso   1.00
C6     C     0.19095   0.58790   0.36570   0.01267  Uiso   1.00
C7     C     0.26879   0.09020   0.87118   0.01267  Uiso   1.00
C8     C     0.42737   0.00850   0.94694   0.01267  Uiso   1.00
C9     C     0.35247   0.00190   0.04594   0.01267  Uiso   1.00
C10    C     0.12052   0.08040   0.06444   0.01267  Uiso   1.00
C11    C     0.97740   0.16150   0.98560   0.01267  Uiso   1.00
C12    C     0.51829   0.91560   0.13218   0.01267  Uiso   1.00
C13    C     0.08504   0.99290   0.37968   0.01267  Uiso   1.00
C14    C     0.04719   0.05790   0.47038   0.01267  Uiso   1.00
C15    C     0.88004   0.01780   0.53448   0.01267  Uiso   1.00
C16    C     0.75593   0.91310   0.50326   0.01267  Uiso   1.00
C17    C     0.80301   0.85280   0.41062   0.01267  Uiso   1.00
C18    C     0.82525   0.08790   0.63430   0.01267  Uiso   1.00
C19    C     0.39761   0.59020   0.12882   0.01267  Uiso   1.00
C20    C     0.48043   0.50850   0.05306   0.01267  Uiso   1.00
C21    C     0.30653   0.50190   0.95406   0.01267  Uiso   1.00
C22    C     0.05608   0.58040   0.93556   0.01267  Uiso   1.00
C23    C     0.99180   0.66150   0.01440   0.01267  Uiso   1.00
C24    C     0.38611   0.41560   0.86782   0.01267  Uiso   1.00
N1     N     0.61809   0.39150   0.65058   0.01267  Uiso   1.00
N2     N     0.04585   0.16610   0.88910   0.01267  Uiso   1.00
N3     N     0.96751   0.89150   0.34942   0.01267  Uiso   1.00
N4     N     0.15675   0.66610   0.11090   0.01267  Uiso   1.00
O1     O     0.29852   0.67850   0.34124   0.01267  Uiso   1.00
O2     O     0.97020   0.55510   0.31720   0.01267  Uiso   1.00
O3     O     0.76689   0.87844   0.12138   0.01267  Uiso   1.00
O4     O     0.40853   0.88772   0.20606   0.01267  Uiso   1.00
O5     O     0.95728   0.17850   0.65876   0.01267  Uiso   1.00
O6     O     0.65300   0.05510   0.68280   0.01267  Uiso   1.00
O7     O     0.64551   0.37844   0.87862   0.01267  Uiso   1.00
O8     O     0.20247   0.38772   0.79394   0.01267  Uiso   1.00
