data_BAHGUN_clean
_audit_creation_date              2014-07-02
_audit_creation_method            'Materials Studio'
_symmetry_space_group_name_H-M    'P1'
_symmetry_Int_Tables_number       1
_symmetry_cell_setting            triclinic
loop_
_symmetry_equiv_pos_as_xyz
  x,y,z
_cell_length_a                    4.9967
_cell_length_b                    11.1001
_cell_length_c                    12.7330
_cell_angle_alpha                 91.7322
_cell_angle_beta                  101.3150
_cell_angle_gamma                 81.1378
loop_
_atom_site_label
_atom_site_type_symbol
_atom_site_fract_x
_atom_site_fract_y
_atom_site_fract_z
_atom_site_U_iso_or_equiv
_atom_site_adp_type
_atom_site_occupancy
Cu1    Cu    0.35076   0.10480   0.22704   0.01267  Uiso   1.00
Cu2    Cu    0.12372   0.60480   0.77296   0.01267  Uiso   1.00
H1     H     0.98410   0.37260   0.66180   0.01267  Uiso   1.00
H2     H     0.05820   0.26210   0.51240   0.01267  Uiso   1.00
H3     H     0.53620   0.50080   0.45460   0.01267  Uiso   1.00
H4     H     0.45890   0.60260   0.60880   0.01267  Uiso   1.00
H5     H     0.35720   0.17570   0.00160   0.01267  Uiso   1.00
H6     H     0.11670   0.31250   0.87140   0.01267  Uiso   1.00
H7     H     0.58830   0.42420   0.06620   0.01267  Uiso   1.00
H8     H     0.85490   0.29060   0.19440   0.01267  Uiso   1.00
H9     H     0.32230   0.87260   0.33820   0.01267  Uiso   1.00
H10    H     0.54580   0.76210   0.48760   0.01267  Uiso   1.00
H11    H     0.08160   0.00080   0.54540   0.01267  Uiso   1.00
H12    H     0.85010   0.10260   0.39120   0.01267  Uiso   1.00
H13    H     0.35560   0.67570   0.99840   0.01267  Uiso   1.00
H14    H     0.24530   0.81250   0.12860   0.01267  Uiso   1.00
H15    H     0.52210   0.92420   0.93380   0.01267  Uiso   1.00
H16    H     0.66050   0.79060   0.80560   0.01267  Uiso   1.00
C1     C     0.09763   0.39820   0.61986   0.01267  Uiso   1.00
C2     C     0.13887   0.33200   0.52954   0.01267  Uiso   1.00
C3     C     0.30035   0.37030   0.46510   0.01267  Uiso   1.00
C4     C     0.42334   0.47310   0.49568   0.01267  Uiso   1.00
C5     C     0.37567   0.53390   0.58834   0.01267  Uiso   1.00
C6     C     0.35412   0.30040   0.36504   0.01267  Uiso   1.00
C7     C     0.20320   0.22770   0.01520   0.01267  Uiso   1.00
C8     C     0.05778   0.30930   0.93596   0.01267  Uiso   1.00
C9     C     0.82577   0.38560   0.95374   0.01267  Uiso   1.00
C10    C     0.74666   0.37610   0.05192   0.01267  Uiso   1.00
C11    C     0.66030   0.47330   0.86800   0.01267  Uiso   1.00
C12    C     0.90626   0.29430   0.12832   0.01267  Uiso   1.00
C13    C     0.47777   0.89820   0.38014   0.01267  Uiso   1.00
C14    C     0.60933   0.83200   0.47046   0.01267  Uiso   1.00
C15    C     0.83525   0.87030   0.53490   0.01267  Uiso   1.00
C16    C     0.92766   0.97310   0.50432   0.01267  Uiso   1.00
C17    C     0.78733   0.03390   0.41166   0.01267  Uiso   1.00
C18    C     0.98908   0.80040   0.63496   0.01267  Uiso   1.00
C19    C     0.18800   0.72770   0.98480   0.01267  Uiso   1.00
C20    C     0.12182   0.80930   0.06404   0.01267  Uiso   1.00
C21    C     0.87203   0.88560   0.04626   0.01267  Uiso   1.00
C22    C     0.69474   0.87610   0.94808   0.01267  Uiso   1.00
C23    C     0.79230   0.97330   0.13200   0.01267  Uiso   1.00
C24    C     0.77794   0.79430   0.87168   0.01267  Uiso   1.00
N1     N     0.21357   0.49730   0.64954   0.01267  Uiso   1.00
N2     N     0.13083   0.22070   0.11026   0.01267  Uiso   1.00
N3     N     0.56403   0.99730   0.35046   0.01267  Uiso   1.00
N4     N     0.02057   0.72070   0.88974   0.01267  Uiso   1.00
O1     O     0.22428   0.21010   0.34116   0.01267  Uiso   1.00
O2     O     0.52088   0.33120   0.31576   0.01267  Uiso   1.00
O3     O     0.41395   0.51016   0.87850   0.01267  Uiso   1.00
O4     O     0.77188   0.50175   0.79556   0.01267  Uiso   1.00
O5     O     0.88312   0.71010   0.65884   0.01267  Uiso   1.00
O6     O     0.20512   0.83120   0.68424   0.01267  Uiso   1.00
O7     O     0.53545   0.01016   0.12150   0.01267  Uiso   1.00
O8     O     0.97632   0.00175   0.20444   0.01267  Uiso   1.00
