data_BAHGUN04_clean
_audit_creation_date              2014-07-02
_audit_creation_method            'Materials Studio'
_symmetry_space_group_name_H-M    'P1'
_symmetry_Int_Tables_number       1
_symmetry_cell_setting            triclinic
loop_
_symmetry_equiv_pos_as_xyz
  x,y,z
_cell_length_a                    5.0060
_cell_length_b                    11.0520
_cell_length_c                    12.8251
_cell_angle_alpha                 91.6839
_cell_angle_beta                  101.2540
_cell_angle_gamma                 81.3402
loop_
_atom_site_label
_atom_site_type_symbol
_atom_site_fract_x
_atom_site_fract_y
_atom_site_fract_z
_atom_site_U_iso_or_equiv
_atom_site_adp_type
_atom_site_occupancy
Cu1    Cu    0.82600   0.30453   0.22675   0.01267  Uiso   1.00
Cu2    Cu    0.59925   0.80453   0.77325   0.01267  Uiso   1.00
H1     H     0.59460   0.51040   0.87220   0.01267  Uiso   1.00
H2     H     0.83050   0.37460   0.00120   0.01267  Uiso   1.00
H3     H     0.33400   0.49450   0.19360   0.01267  Uiso   1.00
H4     H     0.07410   0.62910   0.06800   0.01267  Uiso   1.00
H5     H     0.01430   0.96010   0.48740   0.01267  Uiso   1.00
H6     H     0.79650   0.06940   0.33800   0.01267  Uiso   1.00
H7     H     0.32530   0.30240   0.38980   0.01267  Uiso   1.00
H8     H     0.55470   0.20140   0.54380   0.01267  Uiso   1.00
H9     H     0.72240   0.01040   0.12780   0.01267  Uiso   1.00
H10    H     0.82930   0.87460   0.99880   0.01267  Uiso   1.00
H11    H     0.14040   0.99450   0.80640   0.01267  Uiso   1.00
H12    H     0.00610   0.12910   0.93200   0.01267  Uiso   1.00
H13    H     0.52690   0.46010   0.51260   0.01267  Uiso   1.00
H14    H     0.45850   0.56940   0.66200   0.01267  Uiso   1.00
H15    H     0.93550   0.80240   0.61020   0.01267  Uiso   1.00
H16    H     0.01090   0.70140   0.45620   0.01267  Uiso   1.00
C1     C     0.13818   0.67280   0.86856   0.01267  Uiso   1.00
C2     C     0.30408   0.58700   0.95436   0.01267  Uiso   1.00
C3     C     0.53648   0.50840   0.93656   0.01267  Uiso   1.00
C4     C     0.67915   0.42790   0.01510   0.01267  Uiso   1.00
C5     C     0.38585   0.49780   0.12810   0.01267  Uiso   1.00
C6     C     0.22910   0.57940   0.05300   0.01267  Uiso   1.00
C7     C     0.46253   0.99880   0.63426   0.01267  Uiso   1.00
C8     C     0.30902   0.06810   0.53424   0.01267  Uiso   1.00
C9     C     0.07992   0.02970   0.46984   0.01267  Uiso   1.00
C10    C     0.95097   0.09570   0.37974   0.01267  Uiso   1.00
C11    C     0.26189   0.23360   0.41038   0.01267  Uiso   1.00
C12    C     0.40180   0.17300   0.50300   0.01267  Uiso   1.00
C13    C     0.26962   0.17280   0.13144   0.01267  Uiso   1.00
C14    C     0.34972   0.08700   0.04564   0.01267  Uiso   1.00
C15    C     0.59992   0.00840   0.06344   0.01267  Uiso   1.00
C16    C     0.66405   0.92790   0.98490   0.01267  Uiso   1.00
C17    C     0.25775   0.99780   0.87190   0.01267  Uiso   1.00
C18    C     0.17610   0.07940   0.94700   0.01267  Uiso   1.00
C19    C     0.82827   0.49880   0.36574   0.01267  Uiso   1.00
C20    C     0.77478   0.56810   0.46576   0.01267  Uiso   1.00
C21    C     0.61008   0.52970   0.53016   0.01267  Uiso   1.00
C22    C     0.57123   0.59570   0.62026   0.01267  Uiso   1.00
C23    C     0.85151   0.73360   0.58962   0.01267  Uiso   1.00
C24    C     0.89880   0.67300   0.49700   0.01267  Uiso   1.00
N1     N     0.61003   0.42270   0.11086   0.01267  Uiso   1.00
N2     N     0.03695   0.19640   0.34890   0.01267  Uiso   1.00
N3     N     0.49917   0.92270   0.88914   0.01267  Uiso   1.00
N4     N     0.68805   0.69640   0.65110   0.01267  Uiso   1.00
O1     O     0.88973   0.70990   0.87806   0.01267  Uiso   1.00
O2     O     0.24827   0.70120   0.79494   0.01267  Uiso   1.00
O3     O     0.35508   0.90950   0.65836   0.01267  Uiso   1.00
O4     O     0.68256   0.03050   0.68232   0.01267  Uiso   1.00
O5     O     0.01167   0.20990   0.12194   0.01267  Uiso   1.00
O6     O     0.45333   0.20120   0.20506   0.01267  Uiso   1.00
O7     O     0.69672   0.40950   0.34164   0.01267  Uiso   1.00
O8     O     0.00024   0.53050   0.31768   0.01267  Uiso   1.00
