data_BAHGUN02_clean
_audit_creation_date              2014-07-02
_audit_creation_method            'Materials Studio'
_symmetry_space_group_name_H-M    'P1'
_symmetry_Int_Tables_number       1
_symmetry_cell_setting            triclinic
loop_
_symmetry_equiv_pos_as_xyz
  x,y,z
_cell_length_a                    4.9410
_cell_length_b                    10.9600
_cell_length_c                    12.7560
_cell_angle_alpha                 91.5127
_cell_angle_beta                  101.1670
_cell_angle_gamma                 82.1660
loop_
_atom_site_label
_atom_site_type_symbol
_atom_site_fract_x
_atom_site_fract_y
_atom_site_fract_z
_atom_site_U_iso_or_equiv
_atom_site_adp_type
_atom_site_occupancy
Cu1    Cu    0.61059   0.44296   0.22642   0.01267  Uiso   1.00
Cu2    Cu    0.38417   0.94296   0.77358   0.01267  Uiso   1.00
H1     H     0.74760   0.67990   0.33520   0.01267  Uiso   1.00
H2     H     0.68540   0.78600   0.48960   0.01267  Uiso   1.00
H3     H     0.18970   0.54280   0.54460   0.01267  Uiso   1.00
H4     H     0.27050   0.44050   0.39140   0.01267  Uiso   1.00
H5     H     0.06670   0.25040   0.19540   0.01267  Uiso   1.00
H6     H     0.20150   0.11790   0.06780   0.01267  Uiso   1.00
H7     H     0.48620   0.23680   0.87040   0.01267  Uiso   1.00
H8     H     0.37720   0.37540   0.99880   0.01267  Uiso   1.00
H9     H     0.41240   0.17990   0.66480   0.01267  Uiso   1.00
H10    H     0.19580   0.28600   0.51040   0.01267  Uiso   1.00
H11    H     0.64510   0.04280   0.45540   0.01267  Uiso   1.00
H12    H     0.87910   0.94050   0.60860   0.01267  Uiso   1.00
H13    H     0.87130   0.75040   0.80460   0.01267  Uiso   1.00
H14    H     0.13370   0.61790   0.93220   0.01267  Uiso   1.00
H15    H     0.61580   0.73680   0.12960   0.01267  Uiso   1.00
H16    H     0.37840   0.87540   0.00120   0.01267  Uiso   1.00
C1     C     0.37580   0.74650   0.63340   0.01267  Uiso   1.00
C2     C     0.63630   0.65190   0.37800   0.01267  Uiso   1.00
C3     C     0.59890   0.71630   0.47060   0.01267  Uiso   1.00
C4     C     0.43220   0.67590   0.53440   0.01267  Uiso   1.00
C5     C     0.30480   0.57140   0.50380   0.01267  Uiso   1.00
C6     C     0.35340   0.51100   0.41120   0.01267  Uiso   1.00
C7     C     0.93920   0.07440   0.86740   0.01267  Uiso   1.00
C8     C     0.94970   0.24880   0.12900   0.01267  Uiso   1.00
C9     C     0.03100   0.16800   0.05280   0.01267  Uiso   1.00
C10    C     0.85890   0.16130   0.95360   0.01267  Uiso   1.00
C11    C     0.60900   0.23940   0.93540   0.01267  Uiso   1.00
C12    C     0.54200   0.32120   0.01360   0.01267  Uiso   1.00
C13    C     0.74240   0.24650   0.36660   0.01267  Uiso   1.00
C14    C     0.25830   0.15190   0.62200   0.01267  Uiso   1.00
C15    C     0.12830   0.21630   0.52940   0.01267  Uiso   1.00
C16    C     0.89780   0.17590   0.46560   0.01267  Uiso   1.00
C17    C     0.80100   0.07140   0.49620   0.01267  Uiso   1.00
C18    C     0.94220   0.01100   0.58880   0.01267  Uiso   1.00
C19    C     0.07180   0.57440   0.13260   0.01267  Uiso   1.00
C20    C     0.82070   0.74880   0.87100   0.01267  Uiso   1.00
C21    C     0.97820   0.66800   0.94720   0.01267  Uiso   1.00
C22    C     0.90530   0.66130   0.04640   0.01267  Uiso   1.00
C23    C     0.67360   0.73940   0.06460   0.01267  Uiso   1.00
C24    C     0.52840   0.82120   0.98640   0.01267  Uiso   1.00
N1     N     0.51550   0.54970   0.34820   0.01267  Uiso   1.00
N2     N     0.70900   0.32530   0.11160   0.01267  Uiso   1.00
N3     N     0.16730   0.04970   0.65180   0.01267  Uiso   1.00
N4     N     0.59740   0.82530   0.88840   0.01267  Uiso   1.00
O1     O     0.50790   0.83750   0.65860   0.01267  Uiso   1.00
O2     O     0.20127   0.71450   0.68294   0.01267  Uiso   1.00
O3     O     0.19940   0.03690   0.87960   0.01267  Uiso   1.00
O4     O     0.75173   0.04830   0.79326   0.01267  Uiso   1.00
O5     O     0.84930   0.33750   0.34140   0.01267  Uiso   1.00
O6     O     0.51833   0.21450   0.31706   0.01267  Uiso   1.00
O7     O     0.31980   0.53690   0.12040   0.01267  Uiso   1.00
O8     O     0.95847   0.54830   0.20674   0.01267  Uiso   1.00
