data_image0
_cell_length_a       7.5121
_cell_length_b       8.9927
_cell_length_c       15.153
_cell_angle_alpha    90.256
_cell_angle_beta     93.391
_cell_angle_gamma    111.091

_symmetry_space_group_name_H-M    "P 1"
_symmetry_int_tables_number       1

loop_
  _symmetry_equiv_pos_as_xyz
  'x, y, z'

loop_
  _atom_site_label
  _atom_site_occupancy
  _atom_site_fract_x
  _atom_site_fract_y
  _atom_site_fract_z
  _atom_site_thermal_displace_type
  _atom_site_B_iso_or_equiv
  _atom_site_type_symbol
  Zn1      1.0000 0.71013  0.55275  0.39358  Biso   1.000  Zn
  Zn2      1.0000 0.05751  0.20090  0.25163  Biso   1.000  Zn
  Zn3      1.0000 0.65745  0.58168  0.12443  Biso   1.000  Zn
  P1       1.0000 0.68142  0.28896  0.24210  Biso   1.000  P
  H1       1.0000 0.49740  0.20110  0.23810  Biso   1.000  H
  P2       1.0000 0.94959  0.81271  0.26678  Biso   1.000  P
  H2       1.0000 0.06360  0.74970  0.23140  Biso   1.000  H
  P3       1.0000 0.73099  0.50873  0.60678  Biso   1.000  P
  H3       1.0000 0.83460  0.43350  0.64590  Biso   1.000  H
  P4       1.0000 0.21545  0.39577  0.07689  Biso   1.000  P
  H4       1.0000 0.06450  0.43840  0.07430  Biso   1.000  H
  O1       1.0000 0.72760  0.37180  0.33167  Biso   1.000  O
  O2       1.0000 0.71190  0.39780  0.16459  Biso   1.000  O
  O3       1.0000 0.78760  0.17380  0.23301  Biso   1.000  O
  O4       1.0000 0.05830  0.98970  0.27443  Biso   1.000  O
  O5       1.0000 0.91330  0.74420  0.35820  Biso   1.000  O
  O6       1.0000 0.76930  0.76650  0.20520  Biso   1.000  O
  O7       1.0000 0.78160  0.66500  0.65640  Biso   1.000  O
  O8       1.0000 0.78820  0.53290  0.51450  Biso   1.000  O
  O9       1.0000 0.52310  0.40210  0.61330  Biso   1.000  O
  O10      1.0000 0.17630  0.25930  0.13988  Biso   1.000  O
  O11      1.0000 0.22740  0.33650  0.98467  Biso   1.000  O
  O12      1.0000 0.38590  0.54200  0.10710  Biso   1.000  O
  Zn4      1.0000 0.28987  0.44725  0.60642  Biso   1.000  Zn
  Zn5      1.0000 0.94249  0.79910  0.74837  Biso   1.000  Zn
  Zn6      1.0000 0.34255  0.41832  0.87557  Biso   1.000  Zn
  P5       1.0000 0.31858  0.71104  0.75790  Biso   1.000  P
  H5       1.0000 0.50260  0.79890  0.76190  Biso   1.000  H
  P6       1.0000 0.05041  0.18729  0.73322  Biso   1.000  P
  H6       1.0000 0.93640  0.25030  0.76860  Biso   1.000  H
  P7       1.0000 0.26901  0.49127  0.39322  Biso   1.000  P
  H7       1.0000 0.16540  0.56650  0.35410  Biso   1.000  H
  P8       1.0000 0.78455  0.60423  0.92311  Biso   1.000  P
  H8       1.0000 0.93550  0.56160  0.92570  Biso   1.000  H
  O13      1.0000 0.27240  0.62820  0.66833  Biso   1.000  O
  O14      1.0000 0.28810  0.60220  0.83541  Biso   1.000  O
  O15      1.0000 0.21240  0.82620  0.76699  Biso   1.000  O
  O16      1.0000 0.94170  0.01030  0.72557  Biso   1.000  O
  O17      1.0000 0.08670  0.25580  0.64180  Biso   1.000  O
  O18      1.0000 0.23070  0.23350  0.79480  Biso   1.000  O
  O19      1.0000 0.21840  0.33500  0.34360  Biso   1.000  O
  O20      1.0000 0.21180  0.46710  0.48550  Biso   1.000  O
  O21      1.0000 0.47690  0.59790  0.38670  Biso   1.000  O
  O22      1.0000 0.82370  0.74070  0.86012  Biso   1.000  O
  O23      1.0000 0.77260  0.66350  0.01533  Biso   1.000  O
  O24      1.0000 0.61410  0.45800  0.89290  Biso   1.000  O
