data_BAKJOO_clean
_audit_creation_date              2014-07-02
_audit_creation_method            'Materials Studio'
_symmetry_space_group_name_H-M    'P1'
_symmetry_Int_Tables_number       1
_symmetry_cell_setting            triclinic
loop_
_symmetry_equiv_pos_as_xyz
  x,y,z
_cell_length_a                    10.1640
_cell_length_b                    13.3630
_cell_length_c                    22.3950
_cell_angle_alpha                 86.8330
_cell_angle_beta                  80.3460
_cell_angle_gamma                 83.2240
loop_
_atom_site_label
_atom_site_type_symbol
_atom_site_fract_x
_atom_site_fract_y
_atom_site_fract_z
_atom_site_U_iso_or_equiv
_atom_site_adp_type
_atom_site_occupancy
Co1    Co    0.07110   0.79027   0.72354   0.01267  Uiso   1.00
Co2    Co    0.67677   0.99821   0.27860   0.01267  Uiso   1.00
Co3    Co    0.56525   0.04840   0.83562   0.01267  Uiso   1.00
Co4    Co    0.92890   0.20973   0.27646   0.01267  Uiso   1.00
Co5    Co    0.32323   0.00179   0.72140   0.01267  Uiso   1.00
Co6    Co    0.43475   0.95160   0.16438   0.01267  Uiso   1.00
H1     H     0.28290   0.83150   0.61310   0.01267  Uiso   1.00
H2     H     0.31110   0.88200   0.51230   0.01267  Uiso   1.00
H3     H     0.93200   0.82240   0.51340   0.01267  Uiso   1.00
H4     H     0.91450   0.78000   0.61150   0.01267  Uiso   1.00
H5     H     0.93650   0.91090   0.42560   0.01267  Uiso   1.00
H6     H     0.16920   0.00850   0.27400   0.01267  Uiso   1.00
H7     H     0.34120   0.89490   0.41770   0.01267  Uiso   1.00
H8     H     0.74100   0.18680   0.75160   0.01267  Uiso   1.00
H9     H     0.75770   0.35500   0.72120   0.01267  Uiso   1.00
H10    H     0.39770   0.42580   0.82570   0.01267  Uiso   1.00
H11    H     0.38760   0.26210   0.85210   0.01267  Uiso   1.00
H12    H     0.40150   0.56230   0.74460   0.01267  Uiso   1.00
H13    H     0.63230   0.79560   0.71640   0.01267  Uiso   1.00
H14    H     0.80000   0.51420   0.74950   0.01267  Uiso   1.00
H15    H     0.22720   0.73770   0.83320   0.01267  Uiso   1.00
H16    H     0.20900   0.76920   0.93470   0.01267  Uiso   1.00
H17    H     0.81910   0.86280   0.93500   0.01267  Uiso   1.00
H18    H     0.84810   0.83490   0.83360   0.01267  Uiso   1.00
H19    H     0.20260   0.85860   0.00920   0.01267  Uiso   1.00
H20    H     0.98390   0.95290   0.16790   0.01267  Uiso   1.00
H21    H     0.80050   0.86810   0.03240   0.01267  Uiso   1.00
H22    H     0.71710   0.16850   0.38690   0.01267  Uiso   1.00
H23    H     0.68890   0.11800   0.48770   0.01267  Uiso   1.00
H24    H     0.06800   0.17760   0.48660   0.01267  Uiso   1.00
H25    H     0.08550   0.22000   0.38850   0.01267  Uiso   1.00
H26    H     0.06350   0.08910   0.57440   0.01267  Uiso   1.00
H27    H     0.83080   0.99150   0.72600   0.01267  Uiso   1.00
H28    H     0.65880   0.10510   0.58230   0.01267  Uiso   1.00
H29    H     0.25900   0.81320   0.24840   0.01267  Uiso   1.00
H30    H     0.24230   0.64500   0.27880   0.01267  Uiso   1.00
H31    H     0.60230   0.57420   0.17430   0.01267  Uiso   1.00
H32    H     0.61240   0.73790   0.14790   0.01267  Uiso   1.00
H33    H     0.59850   0.43770   0.25540   0.01267  Uiso   1.00
H34    H     0.36770   0.20440   0.28360   0.01267  Uiso   1.00
H35    H     0.20000   0.48580   0.25050   0.01267  Uiso   1.00
H36    H     0.77280   0.26230   0.16680   0.01267  Uiso   1.00
H37    H     0.79100   0.23080   0.06530   0.01267  Uiso   1.00
H38    H     0.18090   0.13720   0.06500   0.01267  Uiso   1.00
H39    H     0.15190   0.16510   0.16640   0.01267  Uiso   1.00
H40    H     0.79740   0.14140   0.99080   0.01267  Uiso   1.00
H41    H     0.01610   0.04710   0.83210   0.01267  Uiso   1.00
H42    H     0.19950   0.13190   0.96760   0.01267  Uiso   1.00
C1     C     0.20870   0.83030   0.59250   0.01267  Uiso   1.00
C2     C     0.22810   0.86030   0.53150   0.01267  Uiso   1.00
C3     C     0.12290   0.85760   0.49930   0.01267  Uiso   1.00
C4     C     0.00730   0.82590   0.53290   0.01267  Uiso   1.00
C5     C     0.99780   0.80010   0.59140   0.01267  Uiso   1.00
C6     C     0.13660   0.89500   0.43440   0.01267  Uiso   1.00
C7     C     0.02330   0.92140   0.40460   0.01267  Uiso   1.00
C8     C     0.03560   0.96120   0.34690   0.01267  Uiso   1.00
C9     C     0.16120   0.97870   0.31380   0.01267  Uiso   1.00
C10    C     0.27430   0.95050   0.34140   0.01267  Uiso   1.00
C11    C     0.26250   0.91140   0.40000   0.01267  Uiso   1.00
C12    C     0.91160   0.99150   0.31630   0.01267  Uiso   1.00
C13    C     0.41370   0.96510   0.30530   0.01267  Uiso   1.00
C14    C     0.66970   0.23570   0.76720   0.01267  Uiso   1.00
C15    C     0.68130   0.33790   0.74880   0.01267  Uiso   1.00
C16    C     0.57990   0.41420   0.77120   0.01267  Uiso   1.00
C17    C     0.47090   0.37860   0.80980   0.01267  Uiso   1.00
C18    C     0.46550   0.27900   0.82550   0.01267  Uiso   1.00
C19    C     0.59210   0.51960   0.75340   0.01267  Uiso   1.00
C20    C     0.48600   0.58700   0.74280   0.01267  Uiso   1.00
C21    C     0.49300   0.69010   0.72950   0.01267  Uiso   1.00
C22    C     0.62210   0.72620   0.72480   0.01267  Uiso   1.00
C23    C     0.73000   0.65850   0.73270   0.01267  Uiso   1.00
C24    C     0.72140   0.55850   0.74560   0.01267  Uiso   1.00
C25    C     0.37340   0.76250   0.71920   0.01267  Uiso   1.00
C26    C     0.86550   0.70320   0.72870   0.01267  Uiso   1.00
C27    C     0.14330   0.76730   0.85360   0.01267  Uiso   1.00
C28    C     0.13350   0.78600   0.91470   0.01267  Uiso   1.00
C29    C     0.01280   0.82920   0.94640   0.01267  Uiso   1.00
C30    C     0.90650   0.84120   0.91440   0.01267  Uiso   1.00
C31    C     0.92360   0.82280   0.85400   0.01267  Uiso   1.00
C32    C     0.00180   0.85910   0.01140   0.01267  Uiso   1.00
C33    C     0.11730   0.87320   0.03370   0.01267  Uiso   1.00
C34    C     0.10940   0.90890   0.09220   0.01267  Uiso   1.00
C35    C     0.98800   0.92960   0.12830   0.01267  Uiso   1.00
C36    C     0.86570   0.91610   0.10640   0.01267  Uiso   1.00
C37    C     0.87910   0.87930   0.04760   0.01267  Uiso   1.00
C38    C     0.23680   0.93050   0.11530   0.01267  Uiso   1.00
C39    C     0.73340   0.94470   0.14590   0.01267  Uiso   1.00
C40    C     0.79130   0.16970   0.40750   0.01267  Uiso   1.00
C41    C     0.77190   0.13970   0.46850   0.01267  Uiso   1.00
C42    C     0.87710   0.14240   0.50070   0.01267  Uiso   1.00
C43    C     0.99270   0.17410   0.46710   0.01267  Uiso   1.00
C44    C     0.00220   0.19990   0.40860   0.01267  Uiso   1.00
C45    C     0.86340   0.10500   0.56560   0.01267  Uiso   1.00
C46    C     0.97670   0.07860   0.59540   0.01267  Uiso   1.00
C47    C     0.96440   0.03880   0.65310   0.01267  Uiso   1.00
C48    C     0.83880   0.02130   0.68620   0.01267  Uiso   1.00
C49    C     0.72570   0.04950   0.65860   0.01267  Uiso   1.00
C50    C     0.73750   0.08860   0.60000   0.01267  Uiso   1.00
C51    C     0.08840   0.00850   0.68370   0.01267  Uiso   1.00
C52    C     0.58630   0.03490   0.69470   0.01267  Uiso   1.00
C53    C     0.33030   0.76430   0.23280   0.01267  Uiso   1.00
C54    C     0.31870   0.66210   0.25120   0.01267  Uiso   1.00
C55    C     0.42010   0.58580   0.22880   0.01267  Uiso   1.00
C56    C     0.52910   0.62140   0.19020   0.01267  Uiso   1.00
C57    C     0.53450   0.72100   0.17450   0.01267  Uiso   1.00
C58    C     0.40790   0.48040   0.24660   0.01267  Uiso   1.00
C59    C     0.51400   0.41300   0.25720   0.01267  Uiso   1.00
C60    C     0.50700   0.30990   0.27050   0.01267  Uiso   1.00
C61    C     0.37790   0.27380   0.27520   0.01267  Uiso   1.00
C62    C     0.27000   0.34150   0.26730   0.01267  Uiso   1.00
C63    C     0.27860   0.44150   0.25440   0.01267  Uiso   1.00
C64    C     0.62660   0.23750   0.28080   0.01267  Uiso   1.00
C65    C     0.13450   0.29680   0.27130   0.01267  Uiso   1.00
C66    C     0.85670   0.23270   0.14640   0.01267  Uiso   1.00
C67    C     0.86650   0.21400   0.08530   0.01267  Uiso   1.00
C68    C     0.98720   0.17080   0.05360   0.01267  Uiso   1.00
C69    C     0.09350   0.15880   0.08560   0.01267  Uiso   1.00
C70    C     0.07640   0.17720   0.14600   0.01267  Uiso   1.00
C71    C     0.99820   0.14090   0.98860   0.01267  Uiso   1.00
C72    C     0.88270   0.12680   0.96630   0.01267  Uiso   1.00
C73    C     0.89060   0.09110   0.90780   0.01267  Uiso   1.00
C74    C     0.01200   0.07040   0.87170   0.01267  Uiso   1.00
C75    C     0.13430   0.08390   0.89360   0.01267  Uiso   1.00
C76    C     0.12090   0.12070   0.95240   0.01267  Uiso   1.00
C77    C     0.76320   0.06950   0.88470   0.01267  Uiso   1.00
C78    C     0.26660   0.05530   0.85410   0.01267  Uiso   1.00
N1     N     0.09790   0.80010   0.62510   0.01267  Uiso   1.00
N2     N     0.56030   0.20090   0.80710   0.01267  Uiso   1.00
N3     N     0.04470   0.78780   0.82190   0.01267  Uiso   1.00
N4     N     0.90210   0.19990   0.37490   0.01267  Uiso   1.00
N5     N     0.43970   0.79910   0.19290   0.01267  Uiso   1.00
N6     N     0.95530   0.21220   0.17810   0.01267  Uiso   1.00
O1     O     0.80620   0.94610   0.33880   0.01267  Uiso   1.00
O2     O     0.91220   0.05620   0.27430   0.01267  Uiso   1.00
O3     O     0.51540   0.94720   0.33200   0.01267  Uiso   1.00
O4     O     0.42430   0.99870   0.25020   0.01267  Uiso   1.00
O5     O     0.38890   0.85480   0.70980   0.01267  Uiso   1.00
O6     O     0.26260   0.72450   0.72080   0.01267  Uiso   1.00
O7     O     0.97350   0.64140   0.72800   0.01267  Uiso   1.00
O8     O     0.86550   0.79610   0.72630   0.01267  Uiso   1.00
O9     O     0.34860   0.91860   0.08150   0.01267  Uiso   1.00
O10    O     0.22420   0.95490   0.17020   0.01267  Uiso   1.00
O11    O     0.74280   0.94730   0.20320   0.01267  Uiso   1.00
O12    O     0.62940   0.92780   0.12520   0.01267  Uiso   1.00
O13    O     0.19380   0.05390   0.66120   0.01267  Uiso   1.00
O14    O     0.08780   0.94380   0.72570   0.01267  Uiso   1.00
O15    O     0.48460   0.05280   0.66800   0.01267  Uiso   1.00
O16    O     0.57570   0.00130   0.74980   0.01267  Uiso   1.00
O17    O     0.61110   0.14520   0.29020   0.01267  Uiso   1.00
O18    O     0.73740   0.27550   0.27920   0.01267  Uiso   1.00
O19    O     0.02650   0.35860   0.27200   0.01267  Uiso   1.00
O20    O     0.13450   0.20390   0.27370   0.01267  Uiso   1.00
O21    O     0.65140   0.08140   0.91850   0.01267  Uiso   1.00
O22    O     0.77580   0.04510   0.82980   0.01267  Uiso   1.00
O23    O     0.25720   0.05270   0.79680   0.01267  Uiso   1.00
O24    O     0.37060   0.07220   0.87480   0.01267  Uiso   1.00
