data_BAKJEE_clean
_audit_creation_date              2014-07-02
_audit_creation_method            'Materials Studio'
_symmetry_space_group_name_H-M    'P1'
_symmetry_Int_Tables_number       1
_symmetry_cell_setting            triclinic
loop_
_symmetry_equiv_pos_as_xyz
  x,y,z
_cell_length_a                    9.2870
_cell_length_b                    16.6670
_cell_length_c                    28.2420
_cell_angle_alpha                 90.0000
_cell_angle_beta                  90.0000
_cell_angle_gamma                 97.0300
loop_
_atom_site_label
_atom_site_type_symbol
_atom_site_fract_x
_atom_site_fract_y
_atom_site_fract_z
_atom_site_U_iso_or_equiv
_atom_site_adp_type
_atom_site_occupancy
Co1    Co    0.80722   0.71979   0.69522   0.01267  Uiso   1.00
Co2    Co    0.75545   0.73061   0.57543   0.01267  Uiso   1.00
Co3    Co    0.19278   0.78021   0.19522   0.01267  Uiso   1.00
Co4    Co    0.24455   0.76939   0.07543   0.01267  Uiso   1.00
Co5    Co    0.19278   0.28021   0.30478   0.01267  Uiso   1.00
Co6    Co    0.24455   0.26939   0.42457   0.01267  Uiso   1.00
Co7    Co    0.80722   0.21979   0.80478   0.01267  Uiso   1.00
Co8    Co    0.75545   0.23061   0.92457   0.01267  Uiso   1.00
H1     H     0.04930   0.30000   0.51010   0.01267  Uiso   1.00
H2     H     0.93900   0.23670   0.57580   0.01267  Uiso   1.00
H3     H     0.13400   0.04080   0.54280   0.01267  Uiso   1.00
H4     H     0.23470   0.10940   0.47730   0.01267  Uiso   1.00
H5     H     0.95180   0.18850   0.65060   0.01267  Uiso   1.00
H6     H     0.80840   0.98090   0.71860   0.01267  Uiso   1.00
H7     H     0.93550   0.97530   0.58150   0.01267  Uiso   1.00
H8     H     0.41790   0.32510   0.51450   0.01267  Uiso   1.00
H9     H     0.43020   0.42520   0.57150   0.01267  Uiso   1.00
H10    H     0.19050   0.55080   0.48540   0.01267  Uiso   1.00
H11    H     0.19000   0.44870   0.43040   0.01267  Uiso   1.00
H12    H     0.51150   0.56270   0.59570   0.01267  Uiso   1.00
H13    H     0.28430   0.71080   0.67120   0.01267  Uiso   1.00
H14    H     0.09570   0.58430   0.56040   0.01267  Uiso   1.00
H15    H     0.95070   0.20000   0.01010   0.01267  Uiso   1.00
H16    H     0.06100   0.26330   0.07580   0.01267  Uiso   1.00
H17    H     0.86600   0.45920   0.04280   0.01267  Uiso   1.00
H18    H     0.76530   0.39060   0.97730   0.01267  Uiso   1.00
H19    H     0.04820   0.31150   0.15060   0.01267  Uiso   1.00
H20    H     0.19160   0.51910   0.21860   0.01267  Uiso   1.00
H21    H     0.06450   0.52470   0.08150   0.01267  Uiso   1.00
H22    H     0.58210   0.17490   0.01450   0.01267  Uiso   1.00
H23    H     0.56980   0.07480   0.07150   0.01267  Uiso   1.00
H24    H     0.80950   0.94920   0.98540   0.01267  Uiso   1.00
H25    H     0.81000   0.05130   0.93040   0.01267  Uiso   1.00
H26    H     0.48850   0.93730   0.09570   0.01267  Uiso   1.00
H27    H     0.71570   0.78920   0.17120   0.01267  Uiso   1.00
H28    H     0.90430   0.91570   0.06040   0.01267  Uiso   1.00
H29    H     0.95070   0.70000   0.48990   0.01267  Uiso   1.00
H30    H     0.06100   0.76330   0.42420   0.01267  Uiso   1.00
H31    H     0.86600   0.95920   0.45720   0.01267  Uiso   1.00
H32    H     0.76530   0.89060   0.52270   0.01267  Uiso   1.00
H33    H     0.04820   0.81150   0.34940   0.01267  Uiso   1.00
H34    H     0.19160   0.01910   0.28140   0.01267  Uiso   1.00
H35    H     0.06450   0.02470   0.41850   0.01267  Uiso   1.00
H36    H     0.58210   0.67490   0.48550   0.01267  Uiso   1.00
H37    H     0.56980   0.57480   0.42850   0.01267  Uiso   1.00
H38    H     0.80950   0.44920   0.51460   0.01267  Uiso   1.00
H39    H     0.81000   0.55130   0.56960   0.01267  Uiso   1.00
H40    H     0.48850   0.43730   0.40430   0.01267  Uiso   1.00
H41    H     0.71570   0.28920   0.32880   0.01267  Uiso   1.00
H42    H     0.90430   0.41570   0.43960   0.01267  Uiso   1.00
H43    H     0.04930   0.80000   0.98990   0.01267  Uiso   1.00
H44    H     0.93900   0.73670   0.92420   0.01267  Uiso   1.00
H45    H     0.13400   0.54080   0.95720   0.01267  Uiso   1.00
H46    H     0.23470   0.60940   0.02270   0.01267  Uiso   1.00
H47    H     0.95180   0.68850   0.84940   0.01267  Uiso   1.00
H48    H     0.80840   0.48090   0.78140   0.01267  Uiso   1.00
H49    H     0.93550   0.47530   0.91850   0.01267  Uiso   1.00
H50    H     0.41790   0.82510   0.98550   0.01267  Uiso   1.00
H51    H     0.43020   0.92520   0.92850   0.01267  Uiso   1.00
H52    H     0.19050   0.05080   0.01460   0.01267  Uiso   1.00
H53    H     0.19000   0.94870   0.06960   0.01267  Uiso   1.00
H54    H     0.51150   0.06270   0.90430   0.01267  Uiso   1.00
H55    H     0.28430   0.21080   0.82880   0.01267  Uiso   1.00
H56    H     0.09570   0.08430   0.93960   0.01267  Uiso   1.00
C1     C     0.06630   0.24610   0.51672   0.01267  Uiso   1.00
C2     C     0.00030   0.20900   0.55644   0.01267  Uiso   1.00
C3     C     0.02530   0.13100   0.56737   0.01267  Uiso   1.00
C4     C     0.11420   0.09450   0.53686   0.01267  Uiso   1.00
C5     C     0.17440   0.13610   0.49769   0.01267  Uiso   1.00
C6     C     0.95930   0.08850   0.60977   0.01267  Uiso   1.00
C7     C     0.93240   0.13120   0.65053   0.01267  Uiso   1.00
C8     C     0.87740   0.09120   0.69130   0.01267  Uiso   1.00
C9     C     0.84470   0.00820   0.69077   0.01267  Uiso   1.00
C10    C     0.86430   0.96350   0.64963   0.01267  Uiso   1.00
C11    C     0.92170   0.00490   0.60960   0.01267  Uiso   1.00
C12    C     0.84890   0.13800   0.73472   0.01267  Uiso   1.00
C13    C     0.82510   0.87410   0.64856   0.01267  Uiso   1.00
C14    C     0.36990   0.37130   0.50883   0.01267  Uiso   1.00
C15    C     0.37720   0.43070   0.54310   0.01267  Uiso   1.00
C16    C     0.30660   0.49840   0.53590   0.01267  Uiso   1.00
C17    C     0.23710   0.50450   0.49245   0.01267  Uiso   1.00
C18    C     0.23660   0.44300   0.45996   0.01267  Uiso   1.00
C19    C     0.30240   0.56100   0.57299   0.01267  Uiso   1.00
C20    C     0.42400   0.58560   0.60094   0.01267  Uiso   1.00
C21    C     0.41830   0.64300   0.63622   0.01267  Uiso   1.00
C22    C     0.29010   0.67450   0.64551   0.01267  Uiso   1.00
C23    C     0.17000   0.65260   0.61690   0.01267  Uiso   1.00
C24    C     0.17720   0.59740   0.58048   0.01267  Uiso   1.00
C25    C     0.55500   0.67370   0.66235   0.01267  Uiso   1.00
C26    C     0.02850   0.68730   0.62501   0.01267  Uiso   1.00
C27    C     0.93370   0.25390   0.01672   0.01267  Uiso   1.00
C28    C     0.99970   0.29100   0.05644   0.01267  Uiso   1.00
C29    C     0.97470   0.36900   0.06737   0.01267  Uiso   1.00
C30    C     0.88580   0.40550   0.03686   0.01267  Uiso   1.00
C31    C     0.82560   0.36390   0.99769   0.01267  Uiso   1.00
C32    C     0.04070   0.41150   0.10977   0.01267  Uiso   1.00
C33    C     0.06760   0.36880   0.15053   0.01267  Uiso   1.00
C34    C     0.12260   0.40880   0.19130   0.01267  Uiso   1.00
C35    C     0.15530   0.49180   0.19077   0.01267  Uiso   1.00
C36    C     0.13570   0.53650   0.14963   0.01267  Uiso   1.00
C37    C     0.07830   0.49510   0.10960   0.01267  Uiso   1.00
C38    C     0.15110   0.36200   0.23472   0.01267  Uiso   1.00
C39    C     0.17490   0.62590   0.14856   0.01267  Uiso   1.00
C40    C     0.63010   0.12870   0.00883   0.01267  Uiso   1.00
C41    C     0.62280   0.06930   0.04310   0.01267  Uiso   1.00
C42    C     0.69340   0.00160   0.03590   0.01267  Uiso   1.00
C43    C     0.76290   0.99550   0.99245   0.01267  Uiso   1.00
C44    C     0.76340   0.05700   0.95996   0.01267  Uiso   1.00
C45    C     0.69760   0.93900   0.07299   0.01267  Uiso   1.00
C46    C     0.57600   0.91440   0.10094   0.01267  Uiso   1.00
C47    C     0.58170   0.85700   0.13622   0.01267  Uiso   1.00
C48    C     0.70990   0.82550   0.14551   0.01267  Uiso   1.00
C49    C     0.83000   0.84740   0.11690   0.01267  Uiso   1.00
C50    C     0.82280   0.90260   0.08048   0.01267  Uiso   1.00
C51    C     0.44500   0.82630   0.16235   0.01267  Uiso   1.00
C52    C     0.97150   0.81270   0.12501   0.01267  Uiso   1.00
C53    C     0.93370   0.75390   0.48328   0.01267  Uiso   1.00
C54    C     0.99970   0.79100   0.44356   0.01267  Uiso   1.00
C55    C     0.97470   0.86900   0.43263   0.01267  Uiso   1.00
C56    C     0.88580   0.90550   0.46314   0.01267  Uiso   1.00
C57    C     0.82560   0.86390   0.50231   0.01267  Uiso   1.00
C58    C     0.04070   0.91150   0.39023   0.01267  Uiso   1.00
C59    C     0.06760   0.86880   0.34947   0.01267  Uiso   1.00
C60    C     0.12260   0.90880   0.30870   0.01267  Uiso   1.00
C61    C     0.15530   0.99180   0.30923   0.01267  Uiso   1.00
C62    C     0.13570   0.03650   0.35037   0.01267  Uiso   1.00
C63    C     0.07830   0.99510   0.39040   0.01267  Uiso   1.00
C64    C     0.15110   0.86200   0.26528   0.01267  Uiso   1.00
C65    C     0.17490   0.12590   0.35144   0.01267  Uiso   1.00
C66    C     0.63010   0.62870   0.49117   0.01267  Uiso   1.00
C67    C     0.62280   0.56930   0.45690   0.01267  Uiso   1.00
C68    C     0.69340   0.50160   0.46410   0.01267  Uiso   1.00
C69    C     0.76290   0.49550   0.50755   0.01267  Uiso   1.00
C70    C     0.76340   0.55700   0.54004   0.01267  Uiso   1.00
C71    C     0.69760   0.43900   0.42701   0.01267  Uiso   1.00
C72    C     0.57600   0.41440   0.39906   0.01267  Uiso   1.00
C73    C     0.58170   0.35700   0.36378   0.01267  Uiso   1.00
C74    C     0.70990   0.32550   0.35449   0.01267  Uiso   1.00
C75    C     0.83000   0.34740   0.38310   0.01267  Uiso   1.00
C76    C     0.82280   0.40260   0.41952   0.01267  Uiso   1.00
C77    C     0.44500   0.32630   0.33765   0.01267  Uiso   1.00
C78    C     0.97150   0.31270   0.37499   0.01267  Uiso   1.00
C79    C     0.06630   0.74610   0.98328   0.01267  Uiso   1.00
C80    C     0.00030   0.70900   0.94356   0.01267  Uiso   1.00
C81    C     0.02530   0.63100   0.93263   0.01267  Uiso   1.00
C82    C     0.11420   0.59450   0.96314   0.01267  Uiso   1.00
C83    C     0.17440   0.63610   0.00231   0.01267  Uiso   1.00
C84    C     0.95930   0.58850   0.89023   0.01267  Uiso   1.00
C85    C     0.93240   0.63120   0.84947   0.01267  Uiso   1.00
C86    C     0.87740   0.59120   0.80870   0.01267  Uiso   1.00
C87    C     0.84470   0.50820   0.80923   0.01267  Uiso   1.00
C88    C     0.86430   0.46350   0.85037   0.01267  Uiso   1.00
C89    C     0.92170   0.50490   0.89040   0.01267  Uiso   1.00
C90    C     0.84890   0.63800   0.76528   0.01267  Uiso   1.00
C91    C     0.82510   0.37410   0.85144   0.01267  Uiso   1.00
C92    C     0.36990   0.87130   0.99117   0.01267  Uiso   1.00
C93    C     0.37720   0.93070   0.95690   0.01267  Uiso   1.00
C94    C     0.30660   0.99840   0.96410   0.01267  Uiso   1.00
C95    C     0.23710   0.00450   0.00755   0.01267  Uiso   1.00
C96    C     0.23660   0.94300   0.04004   0.01267  Uiso   1.00
C97    C     0.30240   0.06100   0.92701   0.01267  Uiso   1.00
C98    C     0.42400   0.08560   0.89906   0.01267  Uiso   1.00
C99    C     0.41830   0.14300   0.86378   0.01267  Uiso   1.00
C100   C     0.29010   0.17450   0.85449   0.01267  Uiso   1.00
C101   C     0.17000   0.15260   0.88310   0.01267  Uiso   1.00
C102   C     0.17720   0.09740   0.91952   0.01267  Uiso   1.00
C103   C     0.55500   0.17370   0.83765   0.01267  Uiso   1.00
C104   C     0.02850   0.18730   0.87499   0.01267  Uiso   1.00
N1     N     0.15220   0.21107   0.48717   0.01267  Uiso   1.00
N2     N     0.29810   0.37573   0.46763   0.01267  Uiso   1.00
N3     N     0.84780   0.28893   0.98717   0.01267  Uiso   1.00
N4     N     0.70190   0.12427   0.96763   0.01267  Uiso   1.00
N5     N     0.84780   0.78893   0.51283   0.01267  Uiso   1.00
N6     N     0.70190   0.62427   0.53237   0.01267  Uiso   1.00
N7     N     0.15220   0.71107   0.01283   0.01267  Uiso   1.00
N8     N     0.29810   0.87573   0.03237   0.01267  Uiso   1.00
O1     O     0.80540   0.83874   0.68794   0.01267  Uiso   1.00
O2     O     0.81500   0.84106   0.60877   0.01267  Uiso   1.00
O3     O     0.81140   0.10105   0.77209   0.01267  Uiso   1.00
O4     O     0.86450   0.21439   0.73331   0.01267  Uiso   1.00
O5     O     0.67550   0.67392   0.64001   0.01267  Uiso   1.00
O6     O     0.55260   0.69916   0.70352   0.01267  Uiso   1.00
O7     O     0.00580   0.71284   0.66649   0.01267  Uiso   1.00
O8     O     0.94710   0.68776   0.58982   0.01267  Uiso   1.00
O9     O     0.19460   0.66126   0.18794   0.01267  Uiso   1.00
O10    O     0.18500   0.65894   0.10877   0.01267  Uiso   1.00
O11    O     0.18860   0.39895   0.27209   0.01267  Uiso   1.00
O12    O     0.13550   0.28561   0.23331   0.01267  Uiso   1.00
O13    O     0.32450   0.82608   0.14001   0.01267  Uiso   1.00
O14    O     0.44740   0.80084   0.20352   0.01267  Uiso   1.00
O15    O     0.99420   0.78716   0.16649   0.01267  Uiso   1.00
O16    O     0.05290   0.81224   0.08982   0.01267  Uiso   1.00
O17    O     0.19460   0.16126   0.31206   0.01267  Uiso   1.00
O18    O     0.18500   0.15894   0.39123   0.01267  Uiso   1.00
O19    O     0.18860   0.89895   0.22791   0.01267  Uiso   1.00
O20    O     0.13550   0.78561   0.26669   0.01267  Uiso   1.00
O21    O     0.32450   0.32608   0.35999   0.01267  Uiso   1.00
O22    O     0.44740   0.30084   0.29648   0.01267  Uiso   1.00
O23    O     0.99420   0.28716   0.33351   0.01267  Uiso   1.00
O24    O     0.05290   0.31224   0.41018   0.01267  Uiso   1.00
O25    O     0.80540   0.33874   0.81206   0.01267  Uiso   1.00
O26    O     0.81500   0.34106   0.89123   0.01267  Uiso   1.00
O27    O     0.81140   0.60105   0.72791   0.01267  Uiso   1.00
O28    O     0.86450   0.71439   0.76669   0.01267  Uiso   1.00
O29    O     0.67550   0.17392   0.85999   0.01267  Uiso   1.00
O30    O     0.55260   0.19916   0.79648   0.01267  Uiso   1.00
O31    O     0.00580   0.21284   0.83351   0.01267  Uiso   1.00
O32    O     0.94710   0.18776   0.91018   0.01267  Uiso   1.00
