data_BAKLIK_clean
_audit_creation_date              2014-07-02
_audit_creation_method            'Materials Studio'
_symmetry_space_group_name_H-M    'P1'
_symmetry_Int_Tables_number       1
_symmetry_cell_setting            triclinic
loop_
_symmetry_equiv_pos_as_xyz
  x,y,z
_cell_length_a                    11.9940
_cell_length_b                    16.3509
_cell_length_c                    16.3509
_cell_angle_alpha                 65.7750
_cell_angle_beta                  75.8470
_cell_angle_gamma                 104.1530
loop_
_atom_site_label
_atom_site_type_symbol
_atom_site_fract_x
_atom_site_fract_y
_atom_site_fract_z
_atom_site_U_iso_or_equiv
_atom_site_adp_type
_atom_site_occupancy
Mn1    Mn    0.50000   0.50000  -0.00000   0.01267  Uiso   1.00
Mn2    Mn    0.50000   0.00000   0.50000   0.01267  Uiso   1.00
Mn3    Mn    0.00000   0.50000   0.50000   0.01267  Uiso   1.00
H1     H     0.91960   0.62520   0.74720   0.01267  Uiso   1.00
H2     H     0.67560   0.37100   0.72130   0.01267  Uiso   1.00
H3     H     0.41680   0.33160   0.95160   0.01267  Uiso   1.00
H4     H     0.43050   0.18380   0.92350   0.01267  Uiso   1.00
H5     H     0.35450   0.23920   0.87420   0.01267  Uiso   1.00
H6     H     0.47610   0.26500   0.72300   0.01267  Uiso   1.00
H7     H     0.41580   0.15310   0.79830   0.01267  Uiso   1.00
H8     H     0.55620   0.21320   0.77020   0.01267  Uiso   1.00
H9     H     0.99190   0.83070   0.67820   0.01267  Uiso   1.00
H10    H     0.94930   0.85590   0.76040   0.01267  Uiso   1.00
H11    H     0.85060   0.80920   0.72810   0.01267  Uiso   1.00
H12    H     0.04600   0.75500   0.85690   0.01267  Uiso   1.00
H13    H     0.99310   0.56420   0.88600   0.01267  Uiso   1.00
H14    H     0.93180   0.58550   0.96730   0.01267  Uiso   1.00
H15    H     0.07610   0.61160   0.92800   0.01267  Uiso   1.00
H16    H     0.20740   0.73340   0.76060   0.01267  Uiso   1.00
H17    H     0.16420   0.81090   0.69710   0.01267  Uiso   1.00
H18    H     0.11890   0.70580   0.71140   0.01267  Uiso   1.00
H19    H     0.66680   0.74720   0.62760   0.01267  Uiso   1.00
H20    H     0.39690   0.72130   0.90770   0.01267  Uiso   1.00
H21    H     0.36840   0.95160   0.71680   0.01267  Uiso   1.00
H22    H     0.35400   0.92350   0.89270   0.01267  Uiso   1.00
H23    H     0.22870   0.87420   0.88660   0.01267  Uiso   1.00
H24    H     0.19910   0.72300   0.01200   0.01267  Uiso   1.00
H25    H     0.21410   0.79830   0.04860   0.01267  Uiso   1.00
H26    H     0.32640   0.77020   0.01660   0.01267  Uiso   1.00
H27    H     0.67010   0.67820   0.49110   0.01267  Uiso   1.00
H28    H     0.70970   0.76040   0.38370   0.01267  Uiso   1.00
H29    H     0.57870   0.72810   0.46270   0.01267  Uiso   1.00
H30    H     0.90290   0.85690   0.38810   0.01267  Uiso   1.00
H31    H     0.87910   0.88600   0.54980   0.01267  Uiso   1.00
H32    H     0.89910   0.96730   0.44720   0.01267  Uiso   1.00
H33    H     0.00410   0.92800   0.46040   0.01267  Uiso   1.00
H34    H     0.96800   0.76060   0.50600   0.01267  Uiso   1.00
H35    H     0.86130   0.69710   0.49200   0.01267  Uiso   1.00
H36    H     0.83030   0.71140   0.58280   0.01267  Uiso   1.00
H37    H     0.29440   0.62760   0.62520   0.01267  Uiso   1.00
H38    H     0.30460   0.90770   0.37100   0.01267  Uiso   1.00
H39    H     0.08520   0.71680   0.33160   0.01267  Uiso   1.00
H40    H     0.24670   0.89270   0.18380   0.01267  Uiso   1.00
H41    H     0.11530   0.88660   0.23920   0.01267  Uiso   1.00
H42    H     0.21110   0.01200   0.26500   0.01267  Uiso   1.00
H43    H     0.26270   0.04860   0.15310   0.01267  Uiso   1.00
H44    H     0.34300   0.01660   0.21320   0.01267  Uiso   1.00
H45    H     0.16120   0.49110   0.83070   0.01267  Uiso   1.00
H46    H     0.09340   0.38370   0.85590   0.01267  Uiso   1.00
H47    H     0.04140   0.46270   0.80920   0.01267  Uiso   1.00
H48    H     0.29100   0.38810   0.75500   0.01267  Uiso   1.00
H49    H     0.42890   0.54980   0.56420   0.01267  Uiso   1.00
H50    H     0.34630   0.44720   0.58550   0.01267  Uiso   1.00
H51    H     0.46450   0.46040   0.61160   0.01267  Uiso   1.00
H52    H     0.47400   0.50600   0.73340   0.01267  Uiso   1.00
H53    H     0.35330   0.49200   0.81090   0.01267  Uiso   1.00
H54    H     0.41310   0.58280   0.70580   0.01267  Uiso   1.00
H55    H     0.08040   0.37480   0.25280   0.01267  Uiso   1.00
H56    H     0.32440   0.62900   0.27870   0.01267  Uiso   1.00
H57    H     0.58320   0.66840   0.04840   0.01267  Uiso   1.00
H58    H     0.56950   0.81620   0.07650   0.01267  Uiso   1.00
H59    H     0.64550   0.76080   0.12580   0.01267  Uiso   1.00
H60    H     0.52390   0.73500   0.27700   0.01267  Uiso   1.00
H61    H     0.58420   0.84690   0.20170   0.01267  Uiso   1.00
H62    H     0.44380   0.78680   0.22980   0.01267  Uiso   1.00
H63    H     0.00810   0.16930   0.32180   0.01267  Uiso   1.00
H64    H     0.05070   0.14410   0.23960   0.01267  Uiso   1.00
H65    H     0.14940   0.19080   0.27190   0.01267  Uiso   1.00
H66    H     0.95400   0.24500   0.14310   0.01267  Uiso   1.00
H67    H     0.00690   0.43580   0.11400   0.01267  Uiso   1.00
H68    H     0.06820   0.41450   0.03270   0.01267  Uiso   1.00
H69    H     0.92390   0.38840   0.07200   0.01267  Uiso   1.00
H70    H     0.79260   0.26660   0.23940   0.01267  Uiso   1.00
H71    H     0.83580   0.18910   0.30290   0.01267  Uiso   1.00
H72    H     0.88110   0.29420   0.28860   0.01267  Uiso   1.00
H73    H     0.33320   0.25280   0.37240   0.01267  Uiso   1.00
H74    H     0.60310   0.27870   0.09230   0.01267  Uiso   1.00
H75    H     0.63160   0.04840   0.28320   0.01267  Uiso   1.00
H76    H     0.64600   0.07650   0.10730   0.01267  Uiso   1.00
H77    H     0.77130   0.12580   0.11340   0.01267  Uiso   1.00
H78    H     0.80090   0.27700   0.98800   0.01267  Uiso   1.00
H79    H     0.78590   0.20170   0.95140   0.01267  Uiso   1.00
H80    H     0.67360   0.22980   0.98340   0.01267  Uiso   1.00
H81    H     0.32990   0.32180   0.50890   0.01267  Uiso   1.00
H82    H     0.29030   0.23960   0.61630   0.01267  Uiso   1.00
H83    H     0.42130   0.27190   0.53730   0.01267  Uiso   1.00
H84    H     0.09710   0.14310   0.61190   0.01267  Uiso   1.00
H85    H     0.12090   0.11400   0.45020   0.01267  Uiso   1.00
H86    H     0.10090   0.03270   0.55280   0.01267  Uiso   1.00
H87    H     0.99590   0.07200   0.53960   0.01267  Uiso   1.00
H88    H     0.03200   0.23940   0.49400   0.01267  Uiso   1.00
H89    H     0.13870   0.30290   0.50800   0.01267  Uiso   1.00
H90    H     0.16970   0.28860   0.41720   0.01267  Uiso   1.00
H91    H     0.70560   0.37240   0.37480   0.01267  Uiso   1.00
H92    H     0.69540   0.09230   0.62900   0.01267  Uiso   1.00
H93    H     0.91480   0.28320   0.66840   0.01267  Uiso   1.00
H94    H     0.75330   0.10730   0.81620   0.01267  Uiso   1.00
H95    H     0.88470   0.11340   0.76080   0.01267  Uiso   1.00
H96    H     0.78890   0.98800   0.73500   0.01267  Uiso   1.00
H97    H     0.73730   0.95140   0.84690   0.01267  Uiso   1.00
H98    H     0.65700   0.98340   0.78680   0.01267  Uiso   1.00
H99    H     0.83880   0.50890   0.16930   0.01267  Uiso   1.00
H100   H     0.90660   0.61630   0.14410   0.01267  Uiso   1.00
H101   H     0.95860   0.53730   0.19080   0.01267  Uiso   1.00
H102   H     0.70900   0.61190   0.24500   0.01267  Uiso   1.00
H103   H     0.57110   0.45020   0.43580   0.01267  Uiso   1.00
H104   H     0.65370   0.55280   0.41450   0.01267  Uiso   1.00
H105   H     0.53550   0.53960   0.38840   0.01267  Uiso   1.00
H106   H     0.52600   0.49400   0.26660   0.01267  Uiso   1.00
H107   H     0.64670   0.50800   0.18910   0.01267  Uiso   1.00
H108   H     0.58690   0.41720   0.29420   0.01267  Uiso   1.00
C1     C     0.85600   0.52020   0.67340   0.01267  Uiso   1.00
C2     C     0.68790   0.49280   0.83230   0.01267  Uiso   1.00
C3     C     0.73180   0.46920   0.76100   0.01267  Uiso   1.00
C4     C     0.64970   0.38860   0.76770   0.01267  Uiso   1.00
C5     C     0.53140   0.33250   0.83970   0.01267  Uiso   1.00
C6     C     0.49730   0.36530   0.90370   0.01267  Uiso   1.00
C7     C     0.43700   0.23700   0.86300   0.01267  Uiso   1.00
C8     C     0.47460   0.21490   0.78120   0.01267  Uiso   1.00
C9     C     0.75640   0.57040   0.84660   0.01267  Uiso   1.00
C10    C     0.90600   0.70840   0.81540   0.01267  Uiso   1.00
C11    C     0.79540   0.65770   0.91350   0.01267  Uiso   1.00
C12    C     0.92670   0.81050   0.73840   0.01267  Uiso   1.00
C13    C     0.02630   0.71020   0.83220   0.01267  Uiso   1.00
C14    C     0.00400   0.60700   0.91200   0.01267  Uiso   1.00
C15    C     0.13980   0.74320   0.74190   0.01267  Uiso   1.00
C16    C     0.52940   0.67340   0.80640   0.01267  Uiso   1.00
C17    C     0.52020   0.83230   0.67490   0.01267  Uiso   1.00
C18    C     0.49280   0.76100   0.76980   0.01267  Uiso   1.00
C19    C     0.41740   0.76770   0.84370   0.01267  Uiso   1.00
C20    C     0.37110   0.83970   0.82780   0.01267  Uiso   1.00
C21    C     0.40100   0.90370   0.73100   0.01267  Uiso   1.00
C22    C     0.30000   0.86300   0.90000   0.01267  Uiso   1.00
C23    C     0.25580   0.78120   0.00390   0.01267  Uiso   1.00
C24    C     0.60300   0.84660   0.58300   0.01267  Uiso   1.00
C25    C     0.72140   0.81540   0.47620   0.01267  Uiso   1.00
C26    C     0.70890   0.91350   0.42880   0.01267  Uiso   1.00
C27    C     0.66510   0.73840   0.45110   0.01267  Uiso   1.00
C28    C     0.85850   0.83220   0.45760   0.01267  Uiso   1.00
C29    C     0.91600   0.91200   0.48100   0.01267  Uiso   1.00
C30    C     0.88170   0.74190   0.51490   0.01267  Uiso   1.00
C31    C     0.33580   0.80640   0.52020   0.01267  Uiso   1.00
C32    C     0.19510   0.67490   0.49280   0.01267  Uiso   1.00
C33    C     0.26260   0.76980   0.46920   0.01267  Uiso   1.00
C34    C     0.26110   0.84370   0.38860   0.01267  Uiso   1.00
C35    C     0.19890   0.82780   0.33250   0.01267  Uiso   1.00
C36    C     0.13200   0.73100   0.36530   0.01267  Uiso   1.00
C37    C     0.20000   0.90000   0.23700   0.01267  Uiso   1.00
C38    C     0.25970   0.00390   0.21490   0.01267  Uiso   1.00
C39    C     0.18600   0.58300   0.57040   0.01267  Uiso   1.00
C40    C     0.19760   0.47620   0.70840   0.01267  Uiso   1.00
C41    C     0.13770   0.42880   0.65770   0.01267  Uiso   1.00
C42    C     0.11620   0.45110   0.81050   0.01267  Uiso   1.00
C43    C     0.31610   0.45760   0.71020   0.01267  Uiso   1.00
C44    C     0.39700   0.48100   0.60700   0.01267  Uiso   1.00
C45    C     0.39660   0.51490   0.74320   0.01267  Uiso   1.00
C46    C     0.14400   0.47980   0.32660   0.01267  Uiso   1.00
C47    C     0.31210   0.50720   0.16770   0.01267  Uiso   1.00
C48    C     0.26820   0.53080   0.23900   0.01267  Uiso   1.00
C49    C     0.35030   0.61140   0.23230   0.01267  Uiso   1.00
C50    C     0.46860   0.66750   0.16030   0.01267  Uiso   1.00
C51    C     0.50270   0.63470   0.09630   0.01267  Uiso   1.00
C52    C     0.56300   0.76300   0.13700   0.01267  Uiso   1.00
C53    C     0.52540   0.78510   0.21880   0.01267  Uiso   1.00
C54    C     0.24360   0.42960   0.15340   0.01267  Uiso   1.00
C55    C     0.09400   0.29160   0.18460   0.01267  Uiso   1.00
C56    C     0.20460   0.34230   0.08650   0.01267  Uiso   1.00
C57    C     0.07330   0.18950   0.26160   0.01267  Uiso   1.00
C58    C     0.97370   0.28980   0.16780   0.01267  Uiso   1.00
C59    C     0.99600   0.39300   0.08800   0.01267  Uiso   1.00
C60    C     0.86020   0.25680   0.25810   0.01267  Uiso   1.00
C61    C     0.47060   0.32660   0.19360   0.01267  Uiso   1.00
C62    C     0.47980   0.16770   0.32510   0.01267  Uiso   1.00
C63    C     0.50720   0.23900   0.23020   0.01267  Uiso   1.00
C64    C     0.58260   0.23230   0.15630   0.01267  Uiso   1.00
C65    C     0.62890   0.16030   0.17220   0.01267  Uiso   1.00
C66    C     0.59900   0.09630   0.26900   0.01267  Uiso   1.00
C67    C     0.70000   0.13700   0.10000   0.01267  Uiso   1.00
C68    C     0.74420   0.21880   0.99610   0.01267  Uiso   1.00
C69    C     0.39700   0.15340   0.41700   0.01267  Uiso   1.00
C70    C     0.27860   0.18460   0.52380   0.01267  Uiso   1.00
C71    C     0.29110   0.08650   0.57120   0.01267  Uiso   1.00
C72    C     0.33490   0.26160   0.54890   0.01267  Uiso   1.00
C73    C     0.14150   0.16780   0.54240   0.01267  Uiso   1.00
C74    C     0.08400   0.08800   0.51900   0.01267  Uiso   1.00
C75    C     0.11830   0.25810   0.48510   0.01267  Uiso   1.00
C76    C     0.66420   0.19360   0.47980   0.01267  Uiso   1.00
C77    C     0.80490   0.32510   0.50720   0.01267  Uiso   1.00
C78    C     0.73740   0.23020   0.53080   0.01267  Uiso   1.00
C79    C     0.73890   0.15630   0.61140   0.01267  Uiso   1.00
C80    C     0.80110   0.17220   0.66750   0.01267  Uiso   1.00
C81    C     0.86800   0.26900   0.63470   0.01267  Uiso   1.00
C82    C     0.80000   0.10000   0.76300   0.01267  Uiso   1.00
C83    C     0.74030   0.99610   0.78510   0.01267  Uiso   1.00
C84    C     0.81400   0.41700   0.42960   0.01267  Uiso   1.00
C85    C     0.80240   0.52380   0.29160   0.01267  Uiso   1.00
C86    C     0.86230   0.57120   0.34230   0.01267  Uiso   1.00
C87    C     0.88380   0.54890   0.18950   0.01267  Uiso   1.00
C88    C     0.68390   0.54240   0.28980   0.01267  Uiso   1.00
C89    C     0.60300   0.51900   0.39300   0.01267  Uiso   1.00
C90    C     0.60340   0.48510   0.25680   0.01267  Uiso   1.00
N1     N     0.57184   0.44168   0.90106   0.01267  Uiso   1.00
N2     N     0.70282   0.58222   0.92106   0.01267  Uiso   1.00
N3     N     0.87070   0.63010   0.79170   0.01267  Uiso   1.00
N4     N     0.47290   0.90106   0.65726   0.01267  Uiso   1.00
N5     N     0.62388   0.92106   0.49672   0.01267  Uiso   1.00
N6     N     0.66240   0.79170   0.57820   0.01267  Uiso   1.00
N7     N     0.13016   0.65726   0.44168   0.01267  Uiso   1.00
N8     N     0.12060   0.49672   0.58222   0.01267  Uiso   1.00
N9     N     0.24060   0.57820   0.63010   0.01267  Uiso   1.00
N10    N     0.42816   0.55832   0.09894   0.01267  Uiso   1.00
N11    N     0.29718   0.41778   0.07894   0.01267  Uiso   1.00
N12    N     0.12930   0.36990   0.20830   0.01267  Uiso   1.00
N13    N     0.52710   0.09894   0.34274   0.01267  Uiso   1.00
N14    N     0.37612   0.07894   0.50328   0.01267  Uiso   1.00
N15    N     0.33760   0.20830   0.42180   0.01267  Uiso   1.00
N16    N     0.86984   0.34274   0.55832   0.01267  Uiso   1.00
N17    N     0.87940   0.50328   0.41778   0.01267  Uiso   1.00
N18    N     0.75940   0.42180   0.36990   0.01267  Uiso   1.00
O1     O     0.85810   0.49536   0.61226   0.01267  Uiso   1.00
O2     O     0.94708   0.58090   0.66876   0.01267  Uiso   1.00
O3     O     0.78230   0.68920   0.96960   0.01267  Uiso   1.00
O4     O     0.47036   0.61226   0.89238   0.01267  Uiso   1.00
O5     O     0.61584   0.66876   0.75034   0.01267  Uiso   1.00
O6     O     0.75190   0.96960   0.34120   0.01267  Uiso   1.00
O7     O     0.36274   0.89238   0.49536   0.01267  Uiso   1.00
O8     O     0.36618   0.75034   0.58090   0.01267  Uiso   1.00
O9     O     0.09310   0.34120   0.68920   0.01267  Uiso   1.00
O10    O     0.14190   0.50464   0.38774   0.01267  Uiso   1.00
O11    O     0.05292   0.41910   0.33124   0.01267  Uiso   1.00
O12    O     0.21770   0.31080   0.03040   0.01267  Uiso   1.00
O13    O     0.52964   0.38774   0.10762   0.01267  Uiso   1.00
O14    O     0.38416   0.33124   0.24966   0.01267  Uiso   1.00
O15    O     0.24810   0.03040   0.65880   0.01267  Uiso   1.00
O16    O     0.63726   0.10762   0.50464   0.01267  Uiso   1.00
O17    O     0.63382   0.24966   0.41910   0.01267  Uiso   1.00
O18    O     0.90690   0.65880   0.31080   0.01267  Uiso   1.00
