data_image0
_cell_length_a       12.474
_cell_length_b       15.248
_cell_length_c       16.899
_cell_angle_alpha    90
_cell_angle_beta     90
_cell_angle_gamma    90

_symmetry_space_group_name_H-M    "P 1"
_symmetry_int_tables_number       1

loop_
  _symmetry_equiv_pos_as_xyz
  'x, y, z'

loop_
  _atom_site_label
  _atom_site_occupancy
  _atom_site_fract_x
  _atom_site_fract_y
  _atom_site_fract_z
  _atom_site_thermal_displace_type
  _atom_site_B_iso_or_equiv
  _atom_site_type_symbol
  O1       1.0000 0.63210  0.95090  0.17710  Biso   1.000  O
  C1       1.0000 0.54860  0.90920  0.15810  Biso   1.000  C
  O2       1.0000 0.49610  0.91360  0.09520  Biso   1.000  O
  O3       1.0000 0.33830  0.48650  0.50360  Biso   1.000  O
  O4       1.0000 0.48420  0.60390  0.42580  Biso   1.000  O
  C2       1.0000 0.41700  0.64050  0.38460  Biso   1.000  C
  O5       1.0000 0.31940  0.62160  0.38470  Biso   1.000  O
  C3       1.0000 0.45210  0.71210  0.32870  Biso   1.000  C
  C4       1.0000 0.55550  0.75060  0.33260  Biso   1.000  C
  N1       1.0000 0.62030  0.73220  0.39720  Biso   1.000  N
  H1       1.0000 0.67850  0.76130  0.40440  Biso   1.000  H
  H2       1.0000 0.60220  0.69170  0.43000  Biso   1.000  H
  C5       1.0000 0.58300  0.81630  0.27830  Biso   1.000  C
  H3       1.0000 0.64900  0.84430  0.28270  Biso   1.000  H
  C6       1.0000 0.51300  0.84050  0.21750  Biso   1.000  C
  C7       1.0000 0.41610  0.79620  0.20890  Biso   1.000  C
  C8       1.0000 0.38460  0.73340  0.26500  Biso   1.000  C
  H4       1.0000 0.31850  0.70560  0.25990  Biso   1.000  H
  N2       1.0000 0.35510  0.80570  0.14110  Biso   1.000  N
  H5       1.0000 0.37690  0.83930  0.10350  Biso   1.000  H
  H6       1.0000 0.29530  0.77800  0.13650  Biso   1.000  H
  O6       1.0000 0.13210  0.54910  0.32290  Biso   1.000  O
  C9       1.0000 0.04860  0.59080  0.34190  Biso   1.000  C
  O7       1.0000 0.99610  0.58640  0.40480  Biso   1.000  O
  O8       1.0000 0.83830  0.01350  0.99640  Biso   1.000  O
  O9       1.0000 0.98420  0.89610  0.07420  Biso   1.000  O
  C10      1.0000 0.91700  0.85950  0.11540  Biso   1.000  C
  O10      1.0000 0.81940  0.87840  0.11530  Biso   1.000  O
  C11      1.0000 0.95210  0.78790  0.17130  Biso   1.000  C
  C12      1.0000 0.05550  0.74940  0.16740  Biso   1.000  C
  N3       1.0000 0.12030  0.76780  0.10280  Biso   1.000  N
  H7       1.0000 0.17850  0.73870  0.09560  Biso   1.000  H
  H8       1.0000 0.10220  0.80830  0.07000  Biso   1.000  H
  C13      1.0000 0.08300  0.68370  0.22170  Biso   1.000  C
  H9       1.0000 0.14900  0.65570  0.21730  Biso   1.000  H
  C14      1.0000 0.01300  0.65950  0.28250  Biso   1.000  C
  C15      1.0000 0.91610  0.70380  0.29110  Biso   1.000  C
  C16      1.0000 0.88460  0.76660  0.23500  Biso   1.000  C
  H10      1.0000 0.81850  0.79440  0.24010  Biso   1.000  H
  N4       1.0000 0.85510  0.69430  0.35890  Biso   1.000  N
  H11      1.0000 0.87690  0.66070  0.39650  Biso   1.000  H
  H12      1.0000 0.79530  0.72200  0.36350  Biso   1.000  H
  O11      1.0000 0.86790  0.04910  0.17710  Biso   1.000  O
  C17      1.0000 0.95140  0.09080  0.15810  Biso   1.000  C
  O12      1.0000 0.00390  0.08640  0.09520  Biso   1.000  O
  O13      1.0000 0.16170  0.51350  0.50360  Biso   1.000  O
  O14      1.0000 0.01580  0.39610  0.42580  Biso   1.000  O
  C18      1.0000 0.08300  0.35950  0.38460  Biso   1.000  C
  O15      1.0000 0.18060  0.37840  0.38470  Biso   1.000  O
  C19      1.0000 0.04790  0.28790  0.32870  Biso   1.000  C
  C20      1.0000 0.94450  0.24940  0.33260  Biso   1.000  C
  N5       1.0000 0.87970  0.26780  0.39720  Biso   1.000  N
  H13      1.0000 0.82150  0.23870  0.40440  Biso   1.000  H
  H14      1.0000 0.89780  0.30830  0.43000  Biso   1.000  H
  C21      1.0000 0.91700  0.18370  0.27830  Biso   1.000  C
  H15      1.0000 0.85100  0.15570  0.28270  Biso   1.000  H
  C22      1.0000 0.98700  0.15950  0.21750  Biso   1.000  C
  C23      1.0000 0.08390  0.20380  0.20890  Biso   1.000  C
  C24      1.0000 0.11540  0.26660  0.26500  Biso   1.000  C
  H16      1.0000 0.18150  0.29440  0.25990  Biso   1.000  H
  N6       1.0000 0.14490  0.19430  0.14110  Biso   1.000  N
  H17      1.0000 0.12310  0.16070  0.10350  Biso   1.000  H
  H18      1.0000 0.20470  0.22200  0.13650  Biso   1.000  H
  O16      1.0000 0.36790  0.45090  0.32290  Biso   1.000  O
  C25      1.0000 0.45140  0.40920  0.34190  Biso   1.000  C
  O17      1.0000 0.50390  0.41360  0.40480  Biso   1.000  O
  O18      1.0000 0.66170  0.98650  0.99640  Biso   1.000  O
  O19      1.0000 0.51580  0.10390  0.07420  Biso   1.000  O
  C26      1.0000 0.58300  0.14050  0.11540  Biso   1.000  C
  O20      1.0000 0.68060  0.12160  0.11530  Biso   1.000  O
  C27      1.0000 0.54790  0.21210  0.17130  Biso   1.000  C
  C28      1.0000 0.44450  0.25060  0.16740  Biso   1.000  C
  N7       1.0000 0.37970  0.23220  0.10280  Biso   1.000  N
  H19      1.0000 0.32150  0.26130  0.09560  Biso   1.000  H
  H20      1.0000 0.39780  0.19170  0.07000  Biso   1.000  H
  C29      1.0000 0.41700  0.31630  0.22170  Biso   1.000  C
  H21      1.0000 0.35100  0.34430  0.21730  Biso   1.000  H
  C30      1.0000 0.48700  0.34050  0.28250  Biso   1.000  C
  C31      1.0000 0.58390  0.29620  0.29110  Biso   1.000  C
  C32      1.0000 0.61540  0.23340  0.23500  Biso   1.000  C
  H22      1.0000 0.68150  0.20560  0.24010  Biso   1.000  H
  N8       1.0000 0.64490  0.30570  0.35890  Biso   1.000  N
  H23      1.0000 0.62310  0.33930  0.39650  Biso   1.000  H
  H24      1.0000 0.70470  0.27800  0.36350  Biso   1.000  H
  O21      1.0000 0.36790  0.04910  0.82290  Biso   1.000  O
  C33      1.0000 0.45140  0.09080  0.84190  Biso   1.000  C
  O22      1.0000 0.50390  0.08640  0.90480  Biso   1.000  O
  O23      1.0000 0.66170  0.51350  0.49640  Biso   1.000  O
  O24      1.0000 0.51580  0.39610  0.57420  Biso   1.000  O
  C34      1.0000 0.58300  0.35950  0.61540  Biso   1.000  C
  O25      1.0000 0.68060  0.37840  0.61530  Biso   1.000  O
  C35      1.0000 0.54790  0.28790  0.67130  Biso   1.000  C
  C36      1.0000 0.44450  0.24940  0.66740  Biso   1.000  C
  N9       1.0000 0.37970  0.26780  0.60280  Biso   1.000  N
  H25      1.0000 0.32150  0.23870  0.59560  Biso   1.000  H
  H26      1.0000 0.39780  0.30830  0.57000  Biso   1.000  H
  C37      1.0000 0.41700  0.18370  0.72170  Biso   1.000  C
  H27      1.0000 0.35100  0.15570  0.71730  Biso   1.000  H
  C38      1.0000 0.48700  0.15950  0.78250  Biso   1.000  C
  C39      1.0000 0.58390  0.20380  0.79110  Biso   1.000  C
  C40      1.0000 0.61540  0.26660  0.73500  Biso   1.000  C
  H28      1.0000 0.68150  0.29440  0.74010  Biso   1.000  H
  N10      1.0000 0.64490  0.19430  0.85890  Biso   1.000  N
  H29      1.0000 0.62310  0.16070  0.89650  Biso   1.000  H
  H30      1.0000 0.70470  0.22200  0.86350  Biso   1.000  H
  O26      1.0000 0.86790  0.45090  0.67710  Biso   1.000  O
  C41      1.0000 0.95140  0.40920  0.65810  Biso   1.000  C
  O27      1.0000 0.00390  0.41360  0.59520  Biso   1.000  O
  O28      1.0000 0.16170  0.98650  0.00360  Biso   1.000  O
  O29      1.0000 0.01580  0.10390  0.92580  Biso   1.000  O
  C42      1.0000 0.08300  0.14050  0.88460  Biso   1.000  C
  O30      1.0000 0.18060  0.12160  0.88470  Biso   1.000  O
  C43      1.0000 0.04790  0.21210  0.82870  Biso   1.000  C
  C44      1.0000 0.94450  0.25060  0.83260  Biso   1.000  C
  N11      1.0000 0.87970  0.23220  0.89720  Biso   1.000  N
  H31      1.0000 0.82150  0.26130  0.90440  Biso   1.000  H
  H32      1.0000 0.89780  0.19170  0.93000  Biso   1.000  H
  C45      1.0000 0.91700  0.31630  0.77830  Biso   1.000  C
  H33      1.0000 0.85100  0.34430  0.78270  Biso   1.000  H
  C46      1.0000 0.98700  0.34050  0.71750  Biso   1.000  C
  C47      1.0000 0.08390  0.29620  0.70890  Biso   1.000  C
  C48      1.0000 0.11540  0.23340  0.76500  Biso   1.000  C
  H34      1.0000 0.18150  0.20560  0.75990  Biso   1.000  H
  N12      1.0000 0.14490  0.30570  0.64110  Biso   1.000  N
  H35      1.0000 0.12310  0.33930  0.60350  Biso   1.000  H
  H36      1.0000 0.20470  0.27800  0.63650  Biso   1.000  H
  O31      1.0000 0.13210  0.95090  0.82290  Biso   1.000  O
  C49      1.0000 0.04860  0.90920  0.84190  Biso   1.000  C
  O32      1.0000 0.99610  0.91360  0.90480  Biso   1.000  O
  O33      1.0000 0.83830  0.48650  0.49640  Biso   1.000  O
  O34      1.0000 0.98420  0.60390  0.57420  Biso   1.000  O
  C50      1.0000 0.91700  0.64050  0.61540  Biso   1.000  C
  O35      1.0000 0.81940  0.62160  0.61530  Biso   1.000  O
  C51      1.0000 0.95210  0.71210  0.67130  Biso   1.000  C
  C52      1.0000 0.05550  0.75060  0.66740  Biso   1.000  C
  N13      1.0000 0.12030  0.73220  0.60280  Biso   1.000  N
  H37      1.0000 0.17850  0.76130  0.59560  Biso   1.000  H
  H38      1.0000 0.10220  0.69170  0.57000  Biso   1.000  H
  C53      1.0000 0.08300  0.81630  0.72170  Biso   1.000  C
  H39      1.0000 0.14900  0.84430  0.71730  Biso   1.000  H
  C54      1.0000 0.01300  0.84050  0.78250  Biso   1.000  C
  C55      1.0000 0.91610  0.79620  0.79110  Biso   1.000  C
  C56      1.0000 0.88460  0.73340  0.73500  Biso   1.000  C
  H40      1.0000 0.81850  0.70560  0.74010  Biso   1.000  H
  N14      1.0000 0.85510  0.80570  0.85890  Biso   1.000  N
  H41      1.0000 0.87690  0.83930  0.89650  Biso   1.000  H
  H42      1.0000 0.79530  0.77800  0.86350  Biso   1.000  H
  O36      1.0000 0.63210  0.54910  0.67710  Biso   1.000  O
  C57      1.0000 0.54860  0.59080  0.65810  Biso   1.000  C
  O37      1.0000 0.49610  0.58640  0.59520  Biso   1.000  O
  O38      1.0000 0.33830  0.01350  0.00360  Biso   1.000  O
  O39      1.0000 0.48420  0.89610  0.92580  Biso   1.000  O
  C58      1.0000 0.41700  0.85950  0.88460  Biso   1.000  C
  O40      1.0000 0.31940  0.87840  0.88470  Biso   1.000  O
  C59      1.0000 0.45210  0.78790  0.82870  Biso   1.000  C
  C60      1.0000 0.55550  0.74940  0.83260  Biso   1.000  C
  N15      1.0000 0.62030  0.76780  0.89720  Biso   1.000  N
  H43      1.0000 0.67850  0.73870  0.90440  Biso   1.000  H
  H44      1.0000 0.60220  0.80830  0.93000  Biso   1.000  H
  C61      1.0000 0.58300  0.68370  0.77830  Biso   1.000  C
  H45      1.0000 0.64900  0.65570  0.78270  Biso   1.000  H
  C62      1.0000 0.51300  0.65950  0.71750  Biso   1.000  C
  C63      1.0000 0.41610  0.70380  0.70890  Biso   1.000  C
  C64      1.0000 0.38460  0.76660  0.76500  Biso   1.000  C
  H46      1.0000 0.31850  0.79440  0.75990  Biso   1.000  H
  N16      1.0000 0.35510  0.69430  0.64110  Biso   1.000  N
  H47      1.0000 0.37690  0.66070  0.60350  Biso   1.000  H
  H48      1.0000 0.29530  0.72200  0.63650  Biso   1.000  H
  Mg1      1.0000 0.25000  0.50000  0.39148  Biso   1.000  Mg
  N17      1.0000 0.25000  0.50000  0.54200  Biso   1.000  N
  O41      1.0000 0.25000  0.50000  0.62160  Biso   1.000  O
  Mg2      1.0000 0.75000  0.00000  0.10852  Biso   1.000  Mg
  N18      1.0000 0.75000  0.00000  0.95800  Biso   1.000  N
  O42      1.0000 0.75000  0.00000  0.87840  Biso   1.000  O
  Mg3      1.0000 0.75000  0.50000  0.60852  Biso   1.000  Mg
  N19      1.0000 0.75000  0.50000  0.45800  Biso   1.000  N
  O43      1.0000 0.75000  0.50000  0.37840  Biso   1.000  O
  Mg4      1.0000 0.25000  0.00000  0.89148  Biso   1.000  Mg
  N20      1.0000 0.25000  0.00000  0.04200  Biso   1.000  N
  O44      1.0000 0.25000  0.00000  0.12160  Biso   1.000  O
  Mg5      1.0000 0.50000  0.50000  0.50000  Biso   1.000  Mg
  Mg6      1.0000 0.00000  0.00000  0.00000  Biso   1.000  Mg
  Mg7      1.0000 0.00000  0.50000  0.50000  Biso   1.000  Mg
  Mg8      1.0000 0.50000  0.00000  0.00000  Biso   1.000  Mg
