data_BALMUW01_clean
_audit_creation_date              2014-07-02
_audit_creation_method            'Materials Studio'
_symmetry_space_group_name_H-M    'P1'
_symmetry_Int_Tables_number       1
_symmetry_cell_setting            triclinic
loop_
_symmetry_equiv_pos_as_xyz
  x,y,z
_cell_length_a                    6.1460
_cell_length_b                    8.6920
_cell_length_c                    9.2160
_cell_angle_alpha                 115.5000
_cell_angle_beta                  95.0940
_cell_angle_gamma                 84.5080
loop_
_atom_site_label
_atom_site_type_symbol
_atom_site_fract_x
_atom_site_fract_y
_atom_site_fract_z
_atom_site_U_iso_or_equiv
_atom_site_adp_type
_atom_site_occupancy
Ba1    Ba    0.72180   0.95580   0.79070   0.01267  Uiso   1.00
Ba2    Ba    0.78670   0.36350   0.58150   0.01267  Uiso   1.00
Ba3    Ba    0.27820   0.04420   0.20930   0.01267  Uiso   1.00
Ba4    Ba    0.21330   0.63650   0.41850   0.01267  Uiso   1.00
C1     C     0.17600   0.07600   0.67700   0.01267  Uiso   1.00
C2     C     0.32500   0.18000   0.62700   0.01267  Uiso   1.00
C3     C     0.13600   0.72400   0.82000   0.01267  Uiso   1.00
C4     C     0.38500   0.71300   0.81700   0.01267  Uiso   1.00
C5     C     0.82400   0.92400   0.32300   0.01267  Uiso   1.00
C6     C     0.67500   0.82000   0.37300   0.01267  Uiso   1.00
C7     C     0.86400   0.27600   0.18000   0.01267  Uiso   1.00
C8     C     0.61500   0.28700   0.18300   0.01267  Uiso   1.00
O1     O     0.98100   0.12500   0.68600   0.01267  Uiso   1.00
O2     O     0.26700   0.95300   0.69600   0.01267  Uiso   1.00
O3     O     0.23800   0.25300   0.54000   0.01267  Uiso   1.00
O4     O     0.52400   0.18100   0.67300   0.01267  Uiso   1.00
O5     O     0.02900   0.64400   0.68900   0.01267  Uiso   1.00
O6     O     0.05000   0.81500   0.95000   0.01267  Uiso   1.00
O7     O     0.47500   0.63000   0.68500   0.01267  Uiso   1.00
O8     O     0.48600   0.80100   0.94700   0.01267  Uiso   1.00
O9     O     0.01900   0.87500   0.31400   0.01267  Uiso   1.00
O10    O     0.73300   0.04700   0.30400   0.01267  Uiso   1.00
O11    O     0.76200   0.74700   0.46000   0.01267  Uiso   1.00
O12    O     0.47600   0.81900   0.32700   0.01267  Uiso   1.00
O13    O     0.97100   0.35600   0.31100   0.01267  Uiso   1.00
O14    O     0.95000   0.18500   0.05000   0.01267  Uiso   1.00
O15    O     0.52500   0.37000   0.31500   0.01267  Uiso   1.00
O16    O     0.51400   0.19900   0.05300   0.01267  Uiso   1.00
