data_BALMUW_clean
_audit_creation_date              2014-07-02
_audit_creation_method            'Materials Studio'
_symmetry_space_group_name_H-M    'P1'
_symmetry_Int_Tables_number       1
_symmetry_cell_setting            triclinic
loop_
_symmetry_equiv_pos_as_xyz
  x,y,z
_cell_length_a                    6.1880
_cell_length_b                    8.7339
_cell_length_c                    9.3120
_cell_angle_alpha                 64.5530
_cell_angle_beta                  84.6400
_cell_angle_gamma                 84.1397
loop_
_atom_site_label
_atom_site_type_symbol
_atom_site_fract_x
_atom_site_fract_y
_atom_site_fract_z
_atom_site_U_iso_or_equiv
_atom_site_adp_type
_atom_site_occupancy
Ba1    Ba    0.72173   0.45967   0.70927   0.01267  Uiso   1.00
Ba2    Ba    0.78572   0.86353   0.91879   0.01267  Uiso   1.00
Ba3    Ba    0.27827   0.54033   0.29073   0.01267  Uiso   1.00
Ba4    Ba    0.21428   0.13647   0.08121   0.01267  Uiso   1.00
C1     C     0.17840   0.58180   0.82700   0.01267  Uiso   1.00
C2     C     0.32700   0.68190   0.87090   0.01267  Uiso   1.00
C3     C     0.13380   0.22160   0.68050   0.01267  Uiso   1.00
C4     C     0.38880   0.21620   0.68590   0.01267  Uiso   1.00
C5     C     0.82160   0.41820   0.17300   0.01267  Uiso   1.00
C6     C     0.67300   0.31810   0.12910   0.01267  Uiso   1.00
C7     C     0.86620   0.77840   0.31950   0.01267  Uiso   1.00
C8     C     0.61120   0.78380   0.31410   0.01267  Uiso   1.00
O1     O     0.98030   0.62930   0.81380   0.01267  Uiso   1.00
O2     O     0.26230   0.45360   0.80760   0.01267  Uiso   1.00
O3     O     0.24320   0.75310   0.95850   0.01267  Uiso   1.00
O4     O     0.52340   0.68740   0.82200   0.01267  Uiso   1.00
O5     O     0.02730   0.14450   0.81280   0.01267  Uiso   1.00
O6     O     0.04840   0.31440   0.54950   0.01267  Uiso   1.00
O7     O     0.47650   0.13320   0.81690   0.01267  Uiso   1.00
O8     O     0.48920   0.30610   0.55360   0.01267  Uiso   1.00
O9     O     0.01970   0.37070   0.18620   0.01267  Uiso   1.00
O10    O     0.73770   0.54640   0.19240   0.01267  Uiso   1.00
O11    O     0.75680   0.24690   0.04150   0.01267  Uiso   1.00
O12    O     0.47660   0.31260   0.17800   0.01267  Uiso   1.00
O13    O     0.97270   0.85550   0.18720   0.01267  Uiso   1.00
O14    O     0.95160   0.68560   0.45050   0.01267  Uiso   1.00
O15    O     0.52350   0.86680   0.18310   0.01267  Uiso   1.00
O16    O     0.51080   0.69390   0.44640   0.01267  Uiso   1.00
