data_image0
_cell_length_a       9.6552
_cell_length_b       17.1958
_cell_length_c       20.8804
_cell_angle_alpha    90
_cell_angle_beta     94.231
_cell_angle_gamma    90

_symmetry_space_group_name_H-M    "P 1"
_symmetry_int_tables_number       1

loop_
  _symmetry_equiv_pos_as_xyz
  'x, y, z'

loop_
  _atom_site_label
  _atom_site_occupancy
  _atom_site_fract_x
  _atom_site_fract_y
  _atom_site_fract_z
  _atom_site_thermal_displace_type
  _atom_site_B_iso_or_equiv
  _atom_site_type_symbol
  Cu1      1.0000 0.29918  0.49341  0.52393  Biso   1.000  Cu
  Cu2      1.0000 0.00104  0.52158  0.42825  Biso   1.000  Cu
  O1       1.0000 0.31270  0.40430  0.58160  Biso   1.000  O
  O2       1.0000 0.10720  0.40270  0.62553  Biso   1.000  O
  O3       1.0000 0.04980  0.06260  0.83340  Biso   1.000  O
  O4       1.0000 0.88100  0.06760  0.89860  Biso   1.000  O
  O5       1.0000 0.12300  0.45980  0.48512  Biso   1.000  O
  H1       1.0000 0.13200  0.41110  0.48400  Biso   1.000  H
  N1       1.0000 0.27780  0.59020  0.46810  Biso   1.000  N
  N2       1.0000 0.14990  0.60310  0.43650  Biso   1.000  N
  N3       1.0000 0.28450  0.70150  0.41880  Biso   1.000  N
  N4       1.0000 0.57990  0.93270  0.05660  Biso   1.000  N
  N5       1.0000 0.45570  0.96010  0.07780  Biso   1.000  N
  N6       1.0000 0.57760  0.91250  0.15920  Biso   1.000  N
  C1       1.0000 0.35590  0.65050  0.45690  Biso   1.000  C
  H2       1.0000 0.44750  0.65690  0.47310  Biso   1.000  H
  C2       1.0000 0.15660  0.67080  0.40810  Biso   1.000  C
  H3       1.0000 0.08350  0.69430  0.38390  Biso   1.000  H
  C3       1.0000 0.33210  0.77510  0.39250  Biso   1.000  C
  H4       1.0000 0.40600  0.79610  0.42150  Biso   1.000  H
  H5       1.0000 0.25590  0.81200  0.39030  Biso   1.000  H
  C4       1.0000 0.38470  0.76650  0.32630  Biso   1.000  C
  C5       1.0000 0.35180  0.70440  0.28570  Biso   1.000  C
  H6       1.0000 0.29470  0.66490  0.29900  Biso   1.000  H
  C6       1.0000 0.40290  0.70060  0.22570  Biso   1.000  C
  H7       1.0000 0.38000  0.65880  0.19870  Biso   1.000  H
  C7       1.0000 0.48850  0.75930  0.20570  Biso   1.000  C
  H8       1.0000 0.52350  0.75640  0.16550  Biso   1.000  H
  C8       1.0000 0.52190  0.82190  0.24540  Biso   1.000  C
  C9       1.0000 0.46860  0.82630  0.30540  Biso   1.000  C
  H9       1.0000 0.48890  0.86900  0.33170  Biso   1.000  H
  C10      1.0000 0.61870  0.88570  0.22640  Biso   1.000  C
  H10      1.0000 0.61470  0.92910  0.25590  Biso   1.000  H
  H11      1.0000 0.71340  0.86650  0.22880  Biso   1.000  H
  C11      1.0000 0.64920  0.90530  0.10700  Biso   1.000  C
  H12      1.0000 0.73730  0.88330  0.10690  Biso   1.000  H
  C12      1.0000 0.45770  0.94690  0.13930  Biso   1.000  C
  H13      1.0000 0.38680  0.95950  0.16530  Biso   1.000  H
  C13      1.0000 0.22620  0.37670  0.61780  Biso   1.000  C
  C14      1.0000 0.27670  0.30680  0.65660  Biso   1.000  C
  H14      1.0000 0.35650  0.32230  0.68460  Biso   1.000  H
  H15      1.0000 0.30790  0.26780  0.62730  Biso   1.000  H
  C15      1.0000 0.17130  0.26980  0.69710  Biso   1.000  C
  C16      1.0000 0.15490  0.29760  0.75880  Biso   1.000  C
  H16      1.0000 0.20750  0.33960  0.77490  Biso   1.000  H
  C17      1.0000 0.05980  0.26250  0.79600  Biso   1.000  C
  H17      1.0000 0.05170  0.28080  0.83740  Biso   1.000  H
  C18      1.0000 0.97920  0.20330  0.77480  Biso   1.000  C
  C19      1.0000 0.99520  0.17550  0.71430  Biso   1.000  C
  H18      1.0000 0.94100  0.13380  0.69890  Biso   1.000  H
  C20      1.0000 0.09130  0.20840  0.67510  Biso   1.000  C
  H19      1.0000 0.10060  0.18850  0.63420  Biso   1.000  H
  C21      1.0000 0.87950  0.16430  0.81710  Biso   1.000  C
  H20      1.0000 0.79670  0.14900  0.79110  Biso   1.000  H
  H21      1.0000 0.85220  0.20120  0.84900  Biso   1.000  H
  C22      1.0000 0.94260  0.09290  0.85110  Biso   1.000  C
  Cu3      1.0000 0.70082  0.99341  0.97607  Biso   1.000  Cu
  Cu4      1.0000 0.99896  0.02158  0.07175  Biso   1.000  Cu
  O6       1.0000 0.68730  0.90430  0.91840  Biso   1.000  O
  O7       1.0000 0.89280  0.90270  0.87447  Biso   1.000  O
  O8       1.0000 0.95020  0.56260  0.66660  Biso   1.000  O
  O9       1.0000 0.11900  0.56760  0.60140  Biso   1.000  O
  O10      1.0000 0.87700  0.95980  0.01488  Biso   1.000  O
  H22      1.0000 0.86800  0.91110  0.01600  Biso   1.000  H
  N7       1.0000 0.72220  0.09020  0.03190  Biso   1.000  N
  N8       1.0000 0.85010  0.10310  0.06350  Biso   1.000  N
  N9       1.0000 0.71550  0.20150  0.08120  Biso   1.000  N
  N10      1.0000 0.42010  0.43270  0.44340  Biso   1.000  N
  N11      1.0000 0.54430  0.46010  0.42220  Biso   1.000  N
  N12      1.0000 0.42240  0.41250  0.34080  Biso   1.000  N
  C23      1.0000 0.64410  0.15050  0.04310  Biso   1.000  C
  H23      1.0000 0.55250  0.15690  0.02690  Biso   1.000  H
  C24      1.0000 0.84340  0.17080  0.09190  Biso   1.000  C
  H24      1.0000 0.91650  0.19430  0.11610  Biso   1.000  H
  C25      1.0000 0.66790  0.27510  0.10750  Biso   1.000  C
  H25      1.0000 0.59400  0.29610  0.07850  Biso   1.000  H
  H26      1.0000 0.74410  0.31200  0.10970  Biso   1.000  H
  C26      1.0000 0.61530  0.26650  0.17370  Biso   1.000  C
  C27      1.0000 0.64820  0.20440  0.21430  Biso   1.000  C
  H27      1.0000 0.70530  0.16490  0.20100  Biso   1.000  H
  C28      1.0000 0.59710  0.20060  0.27430  Biso   1.000  C
  H28      1.0000 0.62000  0.15880  0.30130  Biso   1.000  H
  C29      1.0000 0.51150  0.25930  0.29430  Biso   1.000  C
  H29      1.0000 0.47650  0.25640  0.33450  Biso   1.000  H
  C30      1.0000 0.47810  0.32190  0.25460  Biso   1.000  C
  C31      1.0000 0.53140  0.32630  0.19460  Biso   1.000  C
  H30      1.0000 0.51110  0.36900  0.16830  Biso   1.000  H
  C32      1.0000 0.38130  0.38570  0.27360  Biso   1.000  C
  H31      1.0000 0.38530  0.42910  0.24410  Biso   1.000  H
  H32      1.0000 0.28660  0.36650  0.27120  Biso   1.000  H
  C33      1.0000 0.35080  0.40530  0.39300  Biso   1.000  C
  H33      1.0000 0.26270  0.38330  0.39310  Biso   1.000  H
  C34      1.0000 0.54230  0.44690  0.36070  Biso   1.000  C
  H34      1.0000 0.61320  0.45950  0.33470  Biso   1.000  H
  C35      1.0000 0.77380  0.87670  0.88220  Biso   1.000  C
  C36      1.0000 0.72330  0.80680  0.84340  Biso   1.000  C
  H35      1.0000 0.64350  0.82230  0.81540  Biso   1.000  H
  H36      1.0000 0.69210  0.76780  0.87270  Biso   1.000  H
  C37      1.0000 0.82870  0.76980  0.80290  Biso   1.000  C
  C38      1.0000 0.84510  0.79760  0.74120  Biso   1.000  C
  H37      1.0000 0.79250  0.83960  0.72510  Biso   1.000  H
  C39      1.0000 0.94020  0.76250  0.70400  Biso   1.000  C
  H38      1.0000 0.94830  0.78080  0.66260  Biso   1.000  H
  C40      1.0000 0.02080  0.70330  0.72520  Biso   1.000  C
  C41      1.0000 0.00480  0.67550  0.78570  Biso   1.000  C
  H39      1.0000 0.05900  0.63380  0.80110  Biso   1.000  H
  C42      1.0000 0.90870  0.70840  0.82490  Biso   1.000  C
  H40      1.0000 0.89940  0.68850  0.86580  Biso   1.000  H
  C43      1.0000 0.12050  0.66430  0.68290  Biso   1.000  C
  H41      1.0000 0.20330  0.64900  0.70890  Biso   1.000  H
  H42      1.0000 0.14780  0.70120  0.65100  Biso   1.000  H
  C44      1.0000 0.05740  0.59290  0.64890  Biso   1.000  C
  Cu5      1.0000 0.70082  0.50659  0.47607  Biso   1.000  Cu
  Cu6      1.0000 0.99896  0.47842  0.57175  Biso   1.000  Cu
  O11      1.0000 0.68730  0.59570  0.41840  Biso   1.000  O
  O12      1.0000 0.89280  0.59730  0.37447  Biso   1.000  O
  O13      1.0000 0.95020  0.93740  0.16660  Biso   1.000  O
  O14      1.0000 0.11900  0.93240  0.10140  Biso   1.000  O
  O15      1.0000 0.87700  0.54020  0.51488  Biso   1.000  O
  H43      1.0000 0.86800  0.58890  0.51600  Biso   1.000  H
  N13      1.0000 0.72220  0.40980  0.53190  Biso   1.000  N
  N14      1.0000 0.85010  0.39690  0.56350  Biso   1.000  N
  N15      1.0000 0.71550  0.29850  0.58120  Biso   1.000  N
  N16      1.0000 0.42010  0.06730  0.94340  Biso   1.000  N
  N17      1.0000 0.54430  0.03990  0.92220  Biso   1.000  N
  N18      1.0000 0.42240  0.08750  0.84080  Biso   1.000  N
  C45      1.0000 0.64410  0.34950  0.54310  Biso   1.000  C
  H44      1.0000 0.55250  0.34310  0.52690  Biso   1.000  H
  C46      1.0000 0.84340  0.32920  0.59190  Biso   1.000  C
  H45      1.0000 0.91650  0.30570  0.61610  Biso   1.000  H
  C47      1.0000 0.66790  0.22490  0.60750  Biso   1.000  C
  H46      1.0000 0.59400  0.20390  0.57850  Biso   1.000  H
  H47      1.0000 0.74410  0.18800  0.60970  Biso   1.000  H
  C48      1.0000 0.61530  0.23350  0.67370  Biso   1.000  C
  C49      1.0000 0.64820  0.29560  0.71430  Biso   1.000  C
  H48      1.0000 0.70530  0.33510  0.70100  Biso   1.000  H
  C50      1.0000 0.59710  0.29940  0.77430  Biso   1.000  C
  H49      1.0000 0.62000  0.34120  0.80130  Biso   1.000  H
  C51      1.0000 0.51150  0.24070  0.79430  Biso   1.000  C
  H50      1.0000 0.47650  0.24360  0.83450  Biso   1.000  H
  C52      1.0000 0.47810  0.17810  0.75460  Biso   1.000  C
  C53      1.0000 0.53140  0.17370  0.69460  Biso   1.000  C
  H51      1.0000 0.51110  0.13100  0.66830  Biso   1.000  H
  C54      1.0000 0.38130  0.11430  0.77360  Biso   1.000  C
  H52      1.0000 0.38530  0.07090  0.74410  Biso   1.000  H
  H53      1.0000 0.28660  0.13350  0.77120  Biso   1.000  H
  C55      1.0000 0.35080  0.09470  0.89300  Biso   1.000  C
  H54      1.0000 0.26270  0.11670  0.89310  Biso   1.000  H
  C56      1.0000 0.54230  0.05310  0.86070  Biso   1.000  C
  H55      1.0000 0.61320  0.04050  0.83470  Biso   1.000  H
  C57      1.0000 0.77380  0.62330  0.38220  Biso   1.000  C
  C58      1.0000 0.72330  0.69320  0.34340  Biso   1.000  C
  H56      1.0000 0.64350  0.67770  0.31540  Biso   1.000  H
  H57      1.0000 0.69210  0.73220  0.37270  Biso   1.000  H
  C59      1.0000 0.82870  0.73020  0.30290  Biso   1.000  C
  C60      1.0000 0.84510  0.70240  0.24120  Biso   1.000  C
  H58      1.0000 0.79250  0.66040  0.22510  Biso   1.000  H
  C61      1.0000 0.94020  0.73750  0.20400  Biso   1.000  C
  H59      1.0000 0.94830  0.71920  0.16260  Biso   1.000  H
  C62      1.0000 0.02080  0.79670  0.22520  Biso   1.000  C
  C63      1.0000 0.00480  0.82450  0.28570  Biso   1.000  C
  H60      1.0000 0.05900  0.86620  0.30110  Biso   1.000  H
  C64      1.0000 0.90870  0.79160  0.32490  Biso   1.000  C
  H61      1.0000 0.89940  0.81150  0.36580  Biso   1.000  H
  C65      1.0000 0.12050  0.83570  0.18290  Biso   1.000  C
  H62      1.0000 0.20330  0.85100  0.20890  Biso   1.000  H
  H63      1.0000 0.14780  0.79880  0.15100  Biso   1.000  H
  C66      1.0000 0.05740  0.90710  0.14890  Biso   1.000  C
  Cu7      1.0000 0.29918  0.00659  0.02393  Biso   1.000  Cu
  Cu8      1.0000 0.00104  0.97842  0.92825  Biso   1.000  Cu
  O16      1.0000 0.31270  0.09570  0.08160  Biso   1.000  O
  O17      1.0000 0.10720  0.09730  0.12553  Biso   1.000  O
  O18      1.0000 0.04980  0.43740  0.33340  Biso   1.000  O
  O19      1.0000 0.88100  0.43240  0.39860  Biso   1.000  O
  O20      1.0000 0.12300  0.04020  0.98512  Biso   1.000  O
  H64      1.0000 0.13200  0.08890  0.98400  Biso   1.000  H
  N19      1.0000 0.27780  0.90980  0.96810  Biso   1.000  N
  N20      1.0000 0.14990  0.89690  0.93650  Biso   1.000  N
  N21      1.0000 0.28450  0.79850  0.91880  Biso   1.000  N
  N22      1.0000 0.57990  0.56730  0.55660  Biso   1.000  N
  N23      1.0000 0.45570  0.53990  0.57780  Biso   1.000  N
  N24      1.0000 0.57760  0.58750  0.65920  Biso   1.000  N
  C67      1.0000 0.35590  0.84950  0.95690  Biso   1.000  C
  H65      1.0000 0.44750  0.84310  0.97310  Biso   1.000  H
  C68      1.0000 0.15660  0.82920  0.90810  Biso   1.000  C
  H66      1.0000 0.08350  0.80570  0.88390  Biso   1.000  H
  C69      1.0000 0.33210  0.72490  0.89250  Biso   1.000  C
  H67      1.0000 0.40600  0.70390  0.92150  Biso   1.000  H
  H68      1.0000 0.25590  0.68800  0.89030  Biso   1.000  H
  C70      1.0000 0.38470  0.73350  0.82630  Biso   1.000  C
  C71      1.0000 0.35180  0.79560  0.78570  Biso   1.000  C
  H69      1.0000 0.29470  0.83510  0.79900  Biso   1.000  H
  C72      1.0000 0.40290  0.79940  0.72570  Biso   1.000  C
  H70      1.0000 0.38000  0.84120  0.69870  Biso   1.000  H
  C73      1.0000 0.48850  0.74070  0.70570  Biso   1.000  C
  H71      1.0000 0.52350  0.74360  0.66550  Biso   1.000  H
  C74      1.0000 0.52190  0.67810  0.74540  Biso   1.000  C
  C75      1.0000 0.46860  0.67370  0.80540  Biso   1.000  C
  H72      1.0000 0.48890  0.63100  0.83170  Biso   1.000  H
  C76      1.0000 0.61870  0.61430  0.72640  Biso   1.000  C
  H73      1.0000 0.61470  0.57090  0.75590  Biso   1.000  H
  H74      1.0000 0.71340  0.63350  0.72880  Biso   1.000  H
  C77      1.0000 0.64920  0.59470  0.60700  Biso   1.000  C
  H75      1.0000 0.73730  0.61670  0.60690  Biso   1.000  H
  C78      1.0000 0.45770  0.55310  0.63930  Biso   1.000  C
  H76      1.0000 0.38680  0.54050  0.66530  Biso   1.000  H
  C79      1.0000 0.22620  0.12330  0.11780  Biso   1.000  C
  C80      1.0000 0.27670  0.19320  0.15660  Biso   1.000  C
  H77      1.0000 0.35650  0.17770  0.18460  Biso   1.000  H
  H78      1.0000 0.30790  0.23220  0.12730  Biso   1.000  H
  C81      1.0000 0.17130  0.23020  0.19710  Biso   1.000  C
  C82      1.0000 0.15490  0.20240  0.25880  Biso   1.000  C
  H79      1.0000 0.20750  0.16040  0.27490  Biso   1.000  H
  C83      1.0000 0.05980  0.23750  0.29600  Biso   1.000  C
  H80      1.0000 0.05170  0.21920  0.33740  Biso   1.000  H
  C84      1.0000 0.97920  0.29670  0.27480  Biso   1.000  C
  C85      1.0000 0.99520  0.32450  0.21430  Biso   1.000  C
  H81      1.0000 0.94100  0.36620  0.19890  Biso   1.000  H
  C86      1.0000 0.09130  0.29160  0.17510  Biso   1.000  C
  H82      1.0000 0.10060  0.31150  0.13420  Biso   1.000  H
  C87      1.0000 0.87950  0.33570  0.31710  Biso   1.000  C
  H83      1.0000 0.79670  0.35100  0.29110  Biso   1.000  H
  H84      1.0000 0.85220  0.29880  0.34900  Biso   1.000  H
  C88      1.0000 0.94260  0.40710  0.35110  Biso   1.000  C
