data_image0
_cell_length_a       9.6691
_cell_length_b       17.4598
_cell_length_c       20.4487
_cell_angle_alpha    90
_cell_angle_beta     94.891
_cell_angle_gamma    90

_symmetry_space_group_name_H-M    "P 1"
_symmetry_int_tables_number       1

loop_
  _symmetry_equiv_pos_as_xyz
  'x, y, z'

loop_
  _atom_site_label
  _atom_site_occupancy
  _atom_site_fract_x
  _atom_site_fract_y
  _atom_site_fract_z
  _atom_site_thermal_displace_type
  _atom_site_B_iso_or_equiv
  _atom_site_type_symbol
  Cu1      1.0000 0.30000  0.50752  0.52443  Biso   1.000  Cu
  Cu2      1.0000 0.99985  0.47758  0.42703  Biso   1.000  Cu
  O1       1.0000 0.31350  0.90300  0.08153  Biso   1.000  O
  O2       1.0000 0.10870  0.90160  0.12555  Biso   1.000  O
  O3       1.0000 0.04810  0.55620  0.32930  Biso   1.000  O
  O4       1.0000 0.87710  0.56440  0.39258  Biso   1.000  O
  O5       1.0000 0.12130  0.53940  0.48474  Biso   1.000  O
  H1       1.0000 0.12400  0.58200  0.46500  Biso   1.000  H
  N1       1.0000 0.27790  0.41100  0.46916  Biso   1.000  N
  N2       1.0000 0.15060  0.39710  0.43645  Biso   1.000  N
  N3       1.0000 0.28450  0.30030  0.42010  Biso   1.000  N
  N4       1.0000 0.45890  0.03640  0.08032  Biso   1.000  N
  N5       1.0000 0.58030  0.06430  0.05820  Biso   1.000  N
  N6       1.0000 0.58300  0.08270  0.16400  Biso   1.000  N
  C1       1.0000 0.35650  0.35230  0.45820  Biso   1.000  C
  H2       1.0000 0.44880  0.34710  0.47440  Biso   1.000  H
  C2       1.0000 0.15700  0.33080  0.40860  Biso   1.000  C
  H3       1.0000 0.08350  0.30740  0.38410  Biso   1.000  H
  C3       1.0000 0.33320  0.22710  0.39520  Biso   1.000  C
  H4       1.0000 0.25730  0.19060  0.39320  Biso   1.000  H
  H5       1.0000 0.40650  0.20740  0.42600  Biso   1.000  H
  C4       1.0000 0.38680  0.23290  0.32840  Biso   1.000  C
  C5       1.0000 0.35540  0.29260  0.28550  Biso   1.000  C
  H6       1.0000 0.29810  0.33210  0.29730  Biso   1.000  H
  C6       1.0000 0.40930  0.29380  0.22470  Biso   1.000  C
  H7       1.0000 0.38690  0.33380  0.19570  Biso   1.000  H
  C7       1.0000 0.49610  0.23580  0.20710  Biso   1.000  C
  H8       1.0000 0.53400  0.23760  0.16680  Biso   1.000  H
  C8       1.0000 0.52670  0.17490  0.24930  Biso   1.000  C
  C9       1.0000 0.47210  0.17380  0.30920  Biso   1.000  C
  H9       1.0000 0.49240  0.13280  0.33750  Biso   1.000  H
  C10      1.0000 0.62290  0.11120  0.23100  Biso   1.000  C
  H10      1.0000 0.71750  0.13010  0.23350  Biso   1.000  H
  H11      1.0000 0.61930  0.06940  0.26210  Biso   1.000  H
  C11      1.0000 0.46260  0.04770  0.14330  Biso   1.000  C
  H12      1.0000 0.39330  0.03380  0.16980  Biso   1.000  H
  C12      1.0000 0.65170  0.09240  0.10990  Biso   1.000  C
  H13      1.0000 0.73800  0.11580  0.10940  Biso   1.000  H
  C13      1.0000 0.22730  0.87530  0.11760  Biso   1.000  C
  C14      1.0000 0.27530  0.80310  0.15320  Biso   1.000  C
  H14      1.0000 0.35460  0.81570  0.18360  Biso   1.000  H
  H15      1.0000 0.30690  0.76740  0.12130  Biso   1.000  H
  C15      1.0000 0.16830  0.76300  0.19100  Biso   1.000  C
  C16      1.0000 0.14080  0.78770  0.25120  Biso   1.000  C
  H16      1.0000 0.18800  0.82980  0.26990  Biso   1.000  H
  C17      1.0000 0.04130  0.75000  0.28570  Biso   1.000  C
  H17      1.0000 0.02390  0.76800  0.32700  Biso   1.000  H
  C18      1.0000 0.97060  0.68920  0.26120  Biso   1.000  C
  C19      1.0000 0.99930  0.66440  0.20050  Biso   1.000  C
  H18      1.0000 0.95210  0.62210  0.18220  Biso   1.000  H
  C20      1.0000 0.09730  0.70070  0.16530  Biso   1.000  C
  H19      1.0000 0.11470  0.68250  0.12400  Biso   1.000  H
  C21      1.0000 0.86880  0.64480  0.29910  Biso   1.000  C
  H20      1.0000 0.81910  0.68040  0.32500  Biso   1.000  H
  H21      1.0000 0.80140  0.62000  0.26810  Biso   1.000  H
  C22      1.0000 0.93720  0.58540  0.34360  Biso   1.000  C
  Cu3      1.0000 0.70000  0.00752  0.97557  Biso   1.000  Cu
  Cu4      1.0000 0.00015  0.97758  0.07297  Biso   1.000  Cu
  O6       1.0000 0.68650  0.40300  0.41847  Biso   1.000  O
  O7       1.0000 0.89130  0.40160  0.37445  Biso   1.000  O
  O8       1.0000 0.95190  0.05620  0.17070  Biso   1.000  O
  O9       1.0000 0.12290  0.06440  0.10742  Biso   1.000  O
  O10      1.0000 0.87870  0.03940  0.01526  Biso   1.000  O
  H22      1.0000 0.87600  0.08200  0.03500  Biso   1.000  H
  N7       1.0000 0.72210  0.91100  0.03084  Biso   1.000  N
  N8       1.0000 0.84940  0.89710  0.06355  Biso   1.000  N
  N9       1.0000 0.71550  0.80030  0.07990  Biso   1.000  N
  N10      1.0000 0.54110  0.53640  0.41968  Biso   1.000  N
  N11      1.0000 0.41970  0.56430  0.44180  Biso   1.000  N
  N12      1.0000 0.41700  0.58270  0.33600  Biso   1.000  N
  C23      1.0000 0.64350  0.85230  0.04180  Biso   1.000  C
  H23      1.0000 0.55120  0.84710  0.02560  Biso   1.000  H
  C24      1.0000 0.84300  0.83080  0.09140  Biso   1.000  C
  H24      1.0000 0.91650  0.80740  0.11590  Biso   1.000  H
  C25      1.0000 0.66680  0.72710  0.10480  Biso   1.000  C
  H25      1.0000 0.74270  0.69060  0.10680  Biso   1.000  H
  H26      1.0000 0.59350  0.70740  0.07400  Biso   1.000  H
  C26      1.0000 0.61320  0.73290  0.17160  Biso   1.000  C
  C27      1.0000 0.64460  0.79260  0.21450  Biso   1.000  C
  H27      1.0000 0.70190  0.83210  0.20270  Biso   1.000  H
  C28      1.0000 0.59070  0.79380  0.27530  Biso   1.000  C
  H28      1.0000 0.61310  0.83380  0.30430  Biso   1.000  H
  C29      1.0000 0.50390  0.73580  0.29290  Biso   1.000  C
  H29      1.0000 0.46600  0.73760  0.33320  Biso   1.000  H
  C30      1.0000 0.47330  0.67490  0.25070  Biso   1.000  C
  C31      1.0000 0.52790  0.67380  0.19080  Biso   1.000  C
  H30      1.0000 0.50760  0.63280  0.16250  Biso   1.000  H
  C32      1.0000 0.37710  0.61120  0.26900  Biso   1.000  C
  H31      1.0000 0.28250  0.63010  0.26650  Biso   1.000  H
  H32      1.0000 0.38070  0.56940  0.23790  Biso   1.000  H
  C33      1.0000 0.53740  0.54770  0.35670  Biso   1.000  C
  H33      1.0000 0.60670  0.53380  0.33020  Biso   1.000  H
  C34      1.0000 0.34830  0.59240  0.39010  Biso   1.000  C
  H34      1.0000 0.26200  0.61580  0.39060  Biso   1.000  H
  C35      1.0000 0.77270  0.37530  0.38240  Biso   1.000  C
  C36      1.0000 0.72470  0.30310  0.34680  Biso   1.000  C
  H35      1.0000 0.64540  0.31570  0.31640  Biso   1.000  H
  H36      1.0000 0.69310  0.26740  0.37870  Biso   1.000  H
  C37      1.0000 0.83170  0.26300  0.30900  Biso   1.000  C
  C38      1.0000 0.85920  0.28770  0.24880  Biso   1.000  C
  H37      1.0000 0.81200  0.32980  0.23010  Biso   1.000  H
  C39      1.0000 0.95870  0.25000  0.21430  Biso   1.000  C
  H38      1.0000 0.97610  0.26800  0.17300  Biso   1.000  H
  C40      1.0000 0.02940  0.18920  0.23880  Biso   1.000  C
  C41      1.0000 0.00070  0.16440  0.29950  Biso   1.000  C
  H39      1.0000 0.04790  0.12210  0.31780  Biso   1.000  H
  C42      1.0000 0.90270  0.20070  0.33470  Biso   1.000  C
  H40      1.0000 0.88530  0.18250  0.37600  Biso   1.000  H
  C43      1.0000 0.13120  0.14480  0.20090  Biso   1.000  C
  H41      1.0000 0.18090  0.18040  0.17500  Biso   1.000  H
  H42      1.0000 0.19860  0.12000  0.23190  Biso   1.000  H
  C44      1.0000 0.06280  0.08540  0.15640  Biso   1.000  C
  Cu5      1.0000 0.70000  0.49248  0.47557  Biso   1.000  Cu
  Cu6      1.0000 0.00015  0.52242  0.57297  Biso   1.000  Cu
  O11      1.0000 0.68650  0.09700  0.91847  Biso   1.000  O
  O12      1.0000 0.89130  0.09840  0.87445  Biso   1.000  O
  O13      1.0000 0.95190  0.44380  0.67070  Biso   1.000  O
  O14      1.0000 0.12290  0.43560  0.60742  Biso   1.000  O
  O15      1.0000 0.87870  0.46060  0.51526  Biso   1.000  O
  H43      1.0000 0.87600  0.41800  0.53500  Biso   1.000  H
  N13      1.0000 0.72210  0.58900  0.53084  Biso   1.000  N
  N14      1.0000 0.84940  0.60290  0.56355  Biso   1.000  N
  N15      1.0000 0.71550  0.69970  0.57990  Biso   1.000  N
  N16      1.0000 0.54110  0.96360  0.91968  Biso   1.000  N
  N17      1.0000 0.41970  0.93570  0.94180  Biso   1.000  N
  N18      1.0000 0.41700  0.91730  0.83600  Biso   1.000  N
  C45      1.0000 0.64350  0.64770  0.54180  Biso   1.000  C
  H44      1.0000 0.55120  0.65290  0.52560  Biso   1.000  H
  C46      1.0000 0.84300  0.66920  0.59140  Biso   1.000  C
  H45      1.0000 0.91650  0.69260  0.61590  Biso   1.000  H
  C47      1.0000 0.66680  0.77290  0.60480  Biso   1.000  C
  H46      1.0000 0.74270  0.80940  0.60680  Biso   1.000  H
  H47      1.0000 0.59350  0.79260  0.57400  Biso   1.000  H
  C48      1.0000 0.61320  0.76710  0.67160  Biso   1.000  C
  C49      1.0000 0.64460  0.70740  0.71450  Biso   1.000  C
  H48      1.0000 0.70190  0.66790  0.70270  Biso   1.000  H
  C50      1.0000 0.59070  0.70620  0.77530  Biso   1.000  C
  H49      1.0000 0.61310  0.66620  0.80430  Biso   1.000  H
  C51      1.0000 0.50390  0.76420  0.79290  Biso   1.000  C
  H50      1.0000 0.46600  0.76240  0.83320  Biso   1.000  H
  C52      1.0000 0.47330  0.82510  0.75070  Biso   1.000  C
  C53      1.0000 0.52790  0.82620  0.69080  Biso   1.000  C
  H51      1.0000 0.50760  0.86720  0.66250  Biso   1.000  H
  C54      1.0000 0.37710  0.88880  0.76900  Biso   1.000  C
  H52      1.0000 0.28250  0.86990  0.76650  Biso   1.000  H
  H53      1.0000 0.38070  0.93060  0.73790  Biso   1.000  H
  C55      1.0000 0.53740  0.95230  0.85670  Biso   1.000  C
  H54      1.0000 0.60670  0.96620  0.83020  Biso   1.000  H
  C56      1.0000 0.34830  0.90760  0.89010  Biso   1.000  C
  H55      1.0000 0.26200  0.88420  0.89060  Biso   1.000  H
  C57      1.0000 0.77270  0.12470  0.88240  Biso   1.000  C
  C58      1.0000 0.72470  0.19690  0.84680  Biso   1.000  C
  H56      1.0000 0.64540  0.18430  0.81640  Biso   1.000  H
  H57      1.0000 0.69310  0.23260  0.87870  Biso   1.000  H
  C59      1.0000 0.83170  0.23700  0.80900  Biso   1.000  C
  C60      1.0000 0.85920  0.21230  0.74880  Biso   1.000  C
  H58      1.0000 0.81200  0.17020  0.73010  Biso   1.000  H
  C61      1.0000 0.95870  0.25000  0.71430  Biso   1.000  C
  H59      1.0000 0.97610  0.23200  0.67300  Biso   1.000  H
  C62      1.0000 0.02940  0.31080  0.73880  Biso   1.000  C
  C63      1.0000 0.00070  0.33560  0.79950  Biso   1.000  C
  H60      1.0000 0.04790  0.37790  0.81780  Biso   1.000  H
  C64      1.0000 0.90270  0.29930  0.83470  Biso   1.000  C
  H61      1.0000 0.88530  0.31750  0.87600  Biso   1.000  H
  C65      1.0000 0.13120  0.35520  0.70090  Biso   1.000  C
  H62      1.0000 0.18090  0.31960  0.67500  Biso   1.000  H
  H63      1.0000 0.19860  0.38000  0.73190  Biso   1.000  H
  C66      1.0000 0.06280  0.41460  0.65640  Biso   1.000  C
  Cu7      1.0000 0.30000  0.99248  0.02443  Biso   1.000  Cu
  Cu8      1.0000 0.99985  0.02242  0.92703  Biso   1.000  Cu
  O16      1.0000 0.31350  0.59700  0.58153  Biso   1.000  O
  O17      1.0000 0.10870  0.59840  0.62555  Biso   1.000  O
  O18      1.0000 0.04810  0.94380  0.82930  Biso   1.000  O
  O19      1.0000 0.87710  0.93560  0.89258  Biso   1.000  O
  O20      1.0000 0.12130  0.96060  0.98474  Biso   1.000  O
  H64      1.0000 0.12400  0.91800  0.96500  Biso   1.000  H
  N19      1.0000 0.27790  0.08900  0.96916  Biso   1.000  N
  N20      1.0000 0.15060  0.10290  0.93645  Biso   1.000  N
  N21      1.0000 0.28450  0.19970  0.92010  Biso   1.000  N
  N22      1.0000 0.45890  0.46360  0.58032  Biso   1.000  N
  N23      1.0000 0.58030  0.43570  0.55820  Biso   1.000  N
  N24      1.0000 0.58300  0.41730  0.66400  Biso   1.000  N
  C67      1.0000 0.35650  0.14770  0.95820  Biso   1.000  C
  H65      1.0000 0.44880  0.15290  0.97440  Biso   1.000  H
  C68      1.0000 0.15700  0.16920  0.90860  Biso   1.000  C
  H66      1.0000 0.08350  0.19260  0.88410  Biso   1.000  H
  C69      1.0000 0.33320  0.27290  0.89520  Biso   1.000  C
  H67      1.0000 0.25730  0.30940  0.89320  Biso   1.000  H
  H68      1.0000 0.40650  0.29260  0.92600  Biso   1.000  H
  C70      1.0000 0.38680  0.26710  0.82840  Biso   1.000  C
  C71      1.0000 0.35540  0.20740  0.78550  Biso   1.000  C
  H69      1.0000 0.29810  0.16790  0.79730  Biso   1.000  H
  C72      1.0000 0.40930  0.20620  0.72470  Biso   1.000  C
  H70      1.0000 0.38690  0.16620  0.69570  Biso   1.000  H
  C73      1.0000 0.49610  0.26420  0.70710  Biso   1.000  C
  H71      1.0000 0.53400  0.26240  0.66680  Biso   1.000  H
  C74      1.0000 0.52670  0.32510  0.74930  Biso   1.000  C
  C75      1.0000 0.47210  0.32620  0.80920  Biso   1.000  C
  H72      1.0000 0.49240  0.36720  0.83750  Biso   1.000  H
  C76      1.0000 0.62290  0.38880  0.73100  Biso   1.000  C
  H73      1.0000 0.71750  0.36990  0.73350  Biso   1.000  H
  H74      1.0000 0.61930  0.43060  0.76210  Biso   1.000  H
  C77      1.0000 0.46260  0.45230  0.64330  Biso   1.000  C
  H75      1.0000 0.39330  0.46620  0.66980  Biso   1.000  H
  C78      1.0000 0.65170  0.40760  0.60990  Biso   1.000  C
  H76      1.0000 0.73800  0.38420  0.60940  Biso   1.000  H
  C79      1.0000 0.22730  0.62470  0.61760  Biso   1.000  C
  C80      1.0000 0.27530  0.69690  0.65320  Biso   1.000  C
  H77      1.0000 0.35460  0.68430  0.68360  Biso   1.000  H
  H78      1.0000 0.30690  0.73260  0.62130  Biso   1.000  H
  C81      1.0000 0.16830  0.73700  0.69100  Biso   1.000  C
  C82      1.0000 0.14080  0.71230  0.75120  Biso   1.000  C
  H79      1.0000 0.18800  0.67020  0.76990  Biso   1.000  H
  C83      1.0000 0.04130  0.75000  0.78570  Biso   1.000  C
  H80      1.0000 0.02390  0.73200  0.82700  Biso   1.000  H
  C84      1.0000 0.97060  0.81080  0.76120  Biso   1.000  C
  C85      1.0000 0.99930  0.83560  0.70050  Biso   1.000  C
  H81      1.0000 0.95210  0.87790  0.68220  Biso   1.000  H
  C86      1.0000 0.09730  0.79930  0.66530  Biso   1.000  C
  H82      1.0000 0.11470  0.81750  0.62400  Biso   1.000  H
  C87      1.0000 0.86880  0.85520  0.79910  Biso   1.000  C
  H83      1.0000 0.81910  0.81960  0.82500  Biso   1.000  H
  H84      1.0000 0.80140  0.88000  0.76810  Biso   1.000  H
  C88      1.0000 0.93720  0.91460  0.84360  Biso   1.000  C
