data_BANMAG_clean
_audit_creation_date              2014-07-02
_audit_creation_method            'Materials Studio'
_symmetry_space_group_name_H-M    'P1'
_symmetry_Int_Tables_number       1
_symmetry_cell_setting            triclinic
loop_
_symmetry_equiv_pos_as_xyz
  x,y,z
_cell_length_a                    15.0841
_cell_length_b                    15.0841
_cell_length_c                    15.4276
_cell_angle_alpha                 90.0000
_cell_angle_beta                  90.0000
_cell_angle_gamma                 120.0000
loop_
_atom_site_label
_atom_site_type_symbol
_atom_site_fract_x
_atom_site_fract_y
_atom_site_fract_z
_atom_site_U_iso_or_equiv
_atom_site_adp_type
_atom_site_occupancy
Nd1    Nd    0.33333   0.66666   0.75000   0.01267  Uiso   1.00
Nd2    Nd    0.66667   0.33334   0.75000   0.01267  Uiso   1.00
Nd3    Nd    0.66667   0.33334   0.25000   0.01267  Uiso   1.00
Nd4    Nd    0.33333   0.66666   0.25000   0.01267  Uiso   1.00
Co1    Co    0.50000   0.50000   0.00000   0.01267  Uiso   1.00
Co2    Co    0.00000   0.50000   0.00000   0.01267  Uiso   1.00
Co3    Co    0.50000   0.00000   0.00000   0.01267  Uiso   1.00
Co4    Co    0.00000   0.50000   0.50000   0.01267  Uiso   1.00
Co5    Co    0.50000   0.50000   0.50000   0.01267  Uiso   1.00
Co6    Co    0.50000   0.00000   0.50000   0.01267  Uiso   1.00
H1     H     0.28520   0.37580   0.76440   0.01267  Uiso   1.00
H2     H     0.20770   0.36720   0.83640   0.01267  Uiso   1.00
H3     H     0.09060   0.71480   0.76440   0.01267  Uiso   1.00
H4     H     0.15950   0.79230   0.83640   0.01267  Uiso   1.00
H5     H     0.62420   0.90940   0.76440   0.01267  Uiso   1.00
H6     H     0.63280   0.84050   0.83640   0.01267  Uiso   1.00
H7     H     0.71480   0.62420   0.76440   0.01267  Uiso   1.00
H8     H     0.79230   0.63280   0.83640   0.01267  Uiso   1.00
H9     H     0.90940   0.28520   0.76440   0.01267  Uiso   1.00
H10    H     0.84050   0.20770   0.83640   0.01267  Uiso   1.00
H11    H     0.37580   0.09060   0.76440   0.01267  Uiso   1.00
H12    H     0.36720   0.15950   0.83640   0.01267  Uiso   1.00
H13    H     0.90940   0.62420   0.73560   0.01267  Uiso   1.00
H14    H     0.84050   0.63280   0.66360   0.01267  Uiso   1.00
H15    H     0.37580   0.28520   0.73560   0.01267  Uiso   1.00
H16    H     0.36720   0.20770   0.66360   0.01267  Uiso   1.00
H17    H     0.71480   0.09060   0.73560   0.01267  Uiso   1.00
H18    H     0.79230   0.15950   0.66360   0.01267  Uiso   1.00
H19    H     0.09060   0.37580   0.73560   0.01267  Uiso   1.00
H20    H     0.15950   0.36720   0.66360   0.01267  Uiso   1.00
H21    H     0.62420   0.71480   0.73560   0.01267  Uiso   1.00
H22    H     0.63280   0.79230   0.66360   0.01267  Uiso   1.00
H23    H     0.28520   0.90940   0.73560   0.01267  Uiso   1.00
H24    H     0.20770   0.84050   0.66360   0.01267  Uiso   1.00
H25    H     0.71480   0.62420   0.23560   0.01267  Uiso   1.00
H26    H     0.79230   0.63280   0.16360   0.01267  Uiso   1.00
H27    H     0.90940   0.28520   0.23560   0.01267  Uiso   1.00
H28    H     0.84050   0.20770   0.16360   0.01267  Uiso   1.00
H29    H     0.37580   0.09060   0.23560   0.01267  Uiso   1.00
H30    H     0.36720   0.15950   0.16360   0.01267  Uiso   1.00
H31    H     0.28520   0.37580   0.23560   0.01267  Uiso   1.00
H32    H     0.20770   0.36720   0.16360   0.01267  Uiso   1.00
H33    H     0.09060   0.71480   0.23560   0.01267  Uiso   1.00
H34    H     0.15950   0.79230   0.16360   0.01267  Uiso   1.00
H35    H     0.62420   0.90940   0.23560   0.01267  Uiso   1.00
H36    H     0.63280   0.84050   0.16360   0.01267  Uiso   1.00
H37    H     0.09060   0.37580   0.26440   0.01267  Uiso   1.00
H38    H     0.15950   0.36720   0.33640   0.01267  Uiso   1.00
H39    H     0.62420   0.71480   0.26440   0.01267  Uiso   1.00
H40    H     0.63280   0.79230   0.33640   0.01267  Uiso   1.00
H41    H     0.28520   0.90940   0.26440   0.01267  Uiso   1.00
H42    H     0.20770   0.84050   0.33640   0.01267  Uiso   1.00
H43    H     0.90940   0.62420   0.26440   0.01267  Uiso   1.00
H44    H     0.84050   0.63280   0.33640   0.01267  Uiso   1.00
H45    H     0.37580   0.28520   0.26440   0.01267  Uiso   1.00
H46    H     0.36720   0.20770   0.33640   0.01267  Uiso   1.00
H47    H     0.71480   0.09060   0.26440   0.01267  Uiso   1.00
H48    H     0.79230   0.15950   0.33640   0.01267  Uiso   1.00
C1     C     0.35300   0.48400   0.85890   0.01267  Uiso   1.00
C2     C     0.26520   0.41490   0.80130   0.01267  Uiso   1.00
C3     C     0.13100   0.64700   0.85890   0.01267  Uiso   1.00
C4     C     0.14970   0.73480   0.80130   0.01267  Uiso   1.00
C5     C     0.51600   0.86900   0.85890   0.01267  Uiso   1.00
C6     C     0.58510   0.85030   0.80130   0.01267  Uiso   1.00
C7     C     0.64700   0.51600   0.85890   0.01267  Uiso   1.00
C8     C     0.73480   0.58510   0.80130   0.01267  Uiso   1.00
C9     C     0.86900   0.35300   0.85890   0.01267  Uiso   1.00
C10    C     0.85030   0.26520   0.80130   0.01267  Uiso   1.00
C11    C     0.48400   0.13100   0.85890   0.01267  Uiso   1.00
C12    C     0.41490   0.14970   0.80130   0.01267  Uiso   1.00
C13    C     0.86900   0.51600   0.64110   0.01267  Uiso   1.00
C14    C     0.85030   0.58510   0.69870   0.01267  Uiso   1.00
C15    C     0.48400   0.35300   0.64110   0.01267  Uiso   1.00
C16    C     0.41490   0.26520   0.69870   0.01267  Uiso   1.00
C17    C     0.64700   0.13100   0.64110   0.01267  Uiso   1.00
C18    C     0.73480   0.14970   0.69870   0.01267  Uiso   1.00
C19    C     0.13100   0.48400   0.64110   0.01267  Uiso   1.00
C20    C     0.14970   0.41490   0.69870   0.01267  Uiso   1.00
C21    C     0.51600   0.64700   0.64110   0.01267  Uiso   1.00
C22    C     0.58510   0.73480   0.69870   0.01267  Uiso   1.00
C23    C     0.35300   0.86900   0.64110   0.01267  Uiso   1.00
C24    C     0.26520   0.85030   0.69870   0.01267  Uiso   1.00
C25    C     0.64700   0.51600   0.14110   0.01267  Uiso   1.00
C26    C     0.73480   0.58510   0.19870   0.01267  Uiso   1.00
C27    C     0.86900   0.35300   0.14110   0.01267  Uiso   1.00
C28    C     0.85030   0.26520   0.19870   0.01267  Uiso   1.00
C29    C     0.48400   0.13100   0.14110   0.01267  Uiso   1.00
C30    C     0.41490   0.14970   0.19870   0.01267  Uiso   1.00
C31    C     0.35300   0.48400   0.14110   0.01267  Uiso   1.00
C32    C     0.26520   0.41490   0.19870   0.01267  Uiso   1.00
C33    C     0.13100   0.64700   0.14110   0.01267  Uiso   1.00
C34    C     0.14970   0.73480   0.19870   0.01267  Uiso   1.00
C35    C     0.51600   0.86900   0.14110   0.01267  Uiso   1.00
C36    C     0.58510   0.85030   0.19870   0.01267  Uiso   1.00
C37    C     0.13100   0.48400   0.35890   0.01267  Uiso   1.00
C38    C     0.14970   0.41490   0.30130   0.01267  Uiso   1.00
C39    C     0.51600   0.64700   0.35890   0.01267  Uiso   1.00
C40    C     0.58510   0.73480   0.30130   0.01267  Uiso   1.00
C41    C     0.35300   0.86900   0.35890   0.01267  Uiso   1.00
C42    C     0.26520   0.85030   0.30130   0.01267  Uiso   1.00
C43    C     0.86900   0.51600   0.35890   0.01267  Uiso   1.00
C44    C     0.85030   0.58510   0.30130   0.01267  Uiso   1.00
C45    C     0.48400   0.35300   0.35890   0.01267  Uiso   1.00
C46    C     0.41490   0.26520   0.30130   0.01267  Uiso   1.00
C47    C     0.64700   0.13100   0.35890   0.01267  Uiso   1.00
C48    C     0.73480   0.14970   0.30130   0.01267  Uiso   1.00
O1     O     0.38360   0.57830   0.85650   0.01267  Uiso   1.00
O2     O     0.38820   0.44150   0.90580   0.01267  Uiso   1.00
O3     O     0.19470   0.61640   0.85650   0.01267  Uiso   1.00
O4     O     0.05330   0.61180   0.90580   0.01267  Uiso   1.00
O5     O     0.42170   0.80530   0.85650   0.01267  Uiso   1.00
O6     O     0.55850   0.94670   0.90580   0.01267  Uiso   1.00
O7     O     0.61640   0.42170   0.85650   0.01267  Uiso   1.00
O8     O     0.61180   0.55850   0.90580   0.01267  Uiso   1.00
O9     O     0.80530   0.38360   0.85650   0.01267  Uiso   1.00
O10    O     0.94670   0.38820   0.90580   0.01267  Uiso   1.00
O11    O     0.57830   0.19470   0.85650   0.01267  Uiso   1.00
O12    O     0.44150   0.05330   0.90580   0.01267  Uiso   1.00
O13    O     0.80530   0.42170   0.64350   0.01267  Uiso   1.00
O14    O     0.94670   0.55850   0.59420   0.01267  Uiso   1.00
O15    O     0.57830   0.38360   0.64350   0.01267  Uiso   1.00
O16    O     0.44150   0.38820   0.59420   0.01267  Uiso   1.00
O17    O     0.61640   0.19470   0.64350   0.01267  Uiso   1.00
O18    O     0.61180   0.05330   0.59420   0.01267  Uiso   1.00
O19    O     0.19470   0.57830   0.64350   0.01267  Uiso   1.00
O20    O     0.05330   0.44150   0.59420   0.01267  Uiso   1.00
O21    O     0.42170   0.61640   0.64350   0.01267  Uiso   1.00
O22    O     0.55850   0.61180   0.59420   0.01267  Uiso   1.00
O23    O     0.38360   0.80530   0.64350   0.01267  Uiso   1.00
O24    O     0.38820   0.94670   0.59420   0.01267  Uiso   1.00
O25    O     0.61640   0.42170   0.14350   0.01267  Uiso   1.00
O26    O     0.61180   0.55850   0.09420   0.01267  Uiso   1.00
O27    O     0.80530   0.38360   0.14350   0.01267  Uiso   1.00
O28    O     0.94670   0.38820   0.09420   0.01267  Uiso   1.00
O29    O     0.57830   0.19470   0.14350   0.01267  Uiso   1.00
O30    O     0.44150   0.05330   0.09420   0.01267  Uiso   1.00
O31    O     0.38360   0.57830   0.14350   0.01267  Uiso   1.00
O32    O     0.38820   0.44150   0.09420   0.01267  Uiso   1.00
O33    O     0.19470   0.61640   0.14350   0.01267  Uiso   1.00
O34    O     0.05330   0.61180   0.09420   0.01267  Uiso   1.00
O35    O     0.42170   0.80530   0.14350   0.01267  Uiso   1.00
O36    O     0.55850   0.94670   0.09420   0.01267  Uiso   1.00
O37    O     0.19470   0.57830   0.35650   0.01267  Uiso   1.00
O38    O     0.05330   0.44150   0.40580   0.01267  Uiso   1.00
O39    O     0.42170   0.61640   0.35650   0.01267  Uiso   1.00
O40    O     0.55850   0.61180   0.40580   0.01267  Uiso   1.00
O41    O     0.38360   0.80530   0.35650   0.01267  Uiso   1.00
O42    O     0.38820   0.94670   0.40580   0.01267  Uiso   1.00
O43    O     0.80530   0.42170   0.35650   0.01267  Uiso   1.00
O44    O     0.94670   0.55850   0.40580   0.01267  Uiso   1.00
O45    O     0.57830   0.38360   0.35650   0.01267  Uiso   1.00
O46    O     0.44150   0.38820   0.40580   0.01267  Uiso   1.00
O47    O     0.61640   0.19470   0.35650   0.01267  Uiso   1.00
O48    O     0.61180   0.05330   0.40580   0.01267  Uiso   1.00
O49    O     0.23605   0.47210   0.75000   0.01267  Uiso   1.00
O50    O     0.23605   0.76395   0.75000   0.01267  Uiso   1.00
O51    O     0.52790   0.76395   0.75000   0.01267  Uiso   1.00
O52    O     0.76395   0.52790   0.75000   0.01267  Uiso   1.00
O53    O     0.76395   0.23605   0.75000   0.01267  Uiso   1.00
O54    O     0.47210   0.23605   0.75000   0.01267  Uiso   1.00
O55    O     0.76395   0.52790   0.25000   0.01267  Uiso   1.00
O56    O     0.76395   0.23605   0.25000   0.01267  Uiso   1.00
O57    O     0.47210   0.23605   0.25000   0.01267  Uiso   1.00
O58    O     0.23605   0.47210   0.25000   0.01267  Uiso   1.00
O59    O     0.23605   0.76395   0.25000   0.01267  Uiso   1.00
O60    O     0.52790   0.76395   0.25000   0.01267  Uiso   1.00
