data_image0
_cell_length_a       26.888
_cell_length_b       26.888
_cell_length_c       7.2385
_cell_angle_alpha    90
_cell_angle_beta     90
_cell_angle_gamma    120

_symmetry_space_group_name_H-M    "P 1"
_symmetry_int_tables_number       1

loop_
  _symmetry_equiv_pos_as_xyz
  'x, y, z'

loop_
  _atom_site_label
  _atom_site_occupancy
  _atom_site_fract_x
  _atom_site_fract_y
  _atom_site_fract_z
  _atom_site_thermal_displace_type
  _atom_site_B_iso_or_equiv
  _atom_site_type_symbol
  Cd1      1.0000 0.72428  0.70456  0.80232  Biso   1.000  Cd
  C1       1.0000 0.75540  0.68130  0.41380  Biso   1.000  C
  C2       1.0000 0.79310  0.67180  0.27920  Biso   1.000  C
  C3       1.0000 0.84530  0.67960  0.34850  Biso   1.000  C
  H1       1.0000 0.85297  0.68827  0.47328  Biso   1.000  H
  C4       1.0000 0.88600  0.67520  0.24450  Biso   1.000  C
  O1       1.0000 0.70842  0.67570  0.35920  Biso   1.000  O
  O2       1.0000 0.77440  0.69760  0.57190  Biso   1.000  O
  O3       1.0000 0.93478  0.68550  0.32860  Biso   1.000  O
  Cd2      1.0000 0.39095  0.03789  0.13565  Biso   1.000  Cd
  C5       1.0000 0.42207  0.01463  0.74713  Biso   1.000  C
  C6       1.0000 0.45977  0.00513  0.61253  Biso   1.000  C
  C7       1.0000 0.51197  0.01293  0.68183  Biso   1.000  C
  H2       1.0000 0.51964  0.02160  0.80661  Biso   1.000  H
  C8       1.0000 0.55267  0.00853  0.57783  Biso   1.000  C
  O4       1.0000 0.37509  0.00903  0.69253  Biso   1.000  O
  O5       1.0000 0.44107  0.03093  0.90523  Biso   1.000  O
  O6       1.0000 0.60145  0.01883  0.66193  Biso   1.000  O
  Cd3      1.0000 0.05761  0.37123  0.46899  Biso   1.000  Cd
  C9       1.0000 0.08873  0.34797  0.08047  Biso   1.000  C
  C10      1.0000 0.12643  0.33847  0.94587  Biso   1.000  C
  C11      1.0000 0.17863  0.34627  0.01517  Biso   1.000  C
  H3       1.0000 0.18630  0.35494  0.13995  Biso   1.000  H
  C12      1.0000 0.21933  0.34187  0.91117  Biso   1.000  C
  O7       1.0000 0.04175  0.34237  0.02587  Biso   1.000  O
  O8       1.0000 0.10773  0.36427  0.23857  Biso   1.000  O
  O9       1.0000 0.26811  0.35217  0.99527  Biso   1.000  O
  Cd4      1.0000 0.29544  0.01972  0.80232  Biso   1.000  Cd
  C13      1.0000 0.31870  0.07410  0.41380  Biso   1.000  C
  C14      1.0000 0.32820  0.12130  0.27920  Biso   1.000  C
  C15      1.0000 0.32040  0.16570  0.34850  Biso   1.000  C
  H4       1.0000 0.31173  0.16470  0.47328  Biso   1.000  H
  C16      1.0000 0.32480  0.21080  0.24450  Biso   1.000  C
  O10      1.0000 0.32430  0.03272  0.35920  Biso   1.000  O
  O11      1.0000 0.30240  0.07680  0.57190  Biso   1.000  O
  O12      1.0000 0.31450  0.24928  0.32860  Biso   1.000  O
  Cd5      1.0000 0.96211  0.35305  0.13565  Biso   1.000  Cd
  C17      1.0000 0.98537  0.40743  0.74713  Biso   1.000  C
  C18      1.0000 0.99487  0.45463  0.61253  Biso   1.000  C
  C19      1.0000 0.98707  0.49903  0.68183  Biso   1.000  C
  H5       1.0000 0.97840  0.49803  0.80661  Biso   1.000  H
  C20      1.0000 0.99147  0.54413  0.57783  Biso   1.000  C
  O13      1.0000 0.99097  0.36605  0.69253  Biso   1.000  O
  O14      1.0000 0.96907  0.41013  0.90523  Biso   1.000  O
  O15      1.0000 0.98117  0.58261  0.66193  Biso   1.000  O
  Cd6      1.0000 0.62877  0.68639  0.46899  Biso   1.000  Cd
  C21      1.0000 0.65203  0.74077  0.08047  Biso   1.000  C
  C22      1.0000 0.66153  0.78797  0.94587  Biso   1.000  C
  C23      1.0000 0.65373  0.83237  0.01517  Biso   1.000  C
  H6       1.0000 0.64506  0.83137  0.13995  Biso   1.000  H
  C24      1.0000 0.65813  0.87747  0.91117  Biso   1.000  C
  O16      1.0000 0.65763  0.69939  0.02587  Biso   1.000  O
  O17      1.0000 0.63573  0.74347  0.23857  Biso   1.000  O
  O18      1.0000 0.64783  0.91595  0.99527  Biso   1.000  O
  Cd7      1.0000 0.98028  0.27572  0.80232  Biso   1.000  Cd
  C25      1.0000 0.92590  0.24460  0.41380  Biso   1.000  C
  C26      1.0000 0.87870  0.20690  0.27920  Biso   1.000  C
  C27      1.0000 0.83430  0.15470  0.34850  Biso   1.000  C
  H7       1.0000 0.83530  0.14703  0.47328  Biso   1.000  H
  C28      1.0000 0.78920  0.11400  0.24450  Biso   1.000  C
  O19      1.0000 0.96728  0.29158  0.35920  Biso   1.000  O
  O20      1.0000 0.92320  0.22560  0.57190  Biso   1.000  O
  O21      1.0000 0.75072  0.06522  0.32860  Biso   1.000  O
  Cd8      1.0000 0.64695  0.60905  0.13565  Biso   1.000  Cd
  C29      1.0000 0.59257  0.57793  0.74713  Biso   1.000  C
  C30      1.0000 0.54537  0.54023  0.61253  Biso   1.000  C
  C31      1.0000 0.50097  0.48803  0.68183  Biso   1.000  C
  H8       1.0000 0.50197  0.48036  0.80661  Biso   1.000  H
  C32      1.0000 0.45587  0.44733  0.57783  Biso   1.000  C
  O22      1.0000 0.63395  0.62491  0.69253  Biso   1.000  O
  O23      1.0000 0.58987  0.55893  0.90523  Biso   1.000  O
  O24      1.0000 0.41739  0.39855  0.66193  Biso   1.000  O
  Cd9      1.0000 0.31361  0.94239  0.46899  Biso   1.000  Cd
  C33      1.0000 0.25923  0.91127  0.08047  Biso   1.000  C
  C34      1.0000 0.21203  0.87357  0.94587  Biso   1.000  C
  C35      1.0000 0.16763  0.82137  0.01517  Biso   1.000  C
  H9       1.0000 0.16863  0.81370  0.13995  Biso   1.000  H
  C36      1.0000 0.12253  0.78067  0.91117  Biso   1.000  C
  O25      1.0000 0.30061  0.95825  0.02587  Biso   1.000  O
  O26      1.0000 0.25653  0.89227  0.23857  Biso   1.000  O
  O27      1.0000 0.08405  0.73189  0.99527  Biso   1.000  O
  Cd10     1.0000 0.27572  0.29544  0.19768  Biso   1.000  Cd
  C37      1.0000 0.24460  0.31870  0.58620  Biso   1.000  C
  C38      1.0000 0.20690  0.32820  0.72080  Biso   1.000  C
  C39      1.0000 0.15470  0.32040  0.65150  Biso   1.000  C
  H10      1.0000 0.14703  0.31173  0.52672  Biso   1.000  H
  C40      1.0000 0.11400  0.32480  0.75550  Biso   1.000  C
  O28      1.0000 0.29158  0.32430  0.64080  Biso   1.000  O
  O29      1.0000 0.22560  0.30240  0.42810  Biso   1.000  O
  O30      1.0000 0.06522  0.31450  0.67140  Biso   1.000  O
  Cd11     1.0000 0.94239  0.62877  0.53101  Biso   1.000  Cd
  C41      1.0000 0.91127  0.65203  0.91953  Biso   1.000  C
  C42      1.0000 0.87357  0.66153  0.05413  Biso   1.000  C
  C43      1.0000 0.82137  0.65373  0.98483  Biso   1.000  C
  H11      1.0000 0.81370  0.64506  0.86005  Biso   1.000  H
  C44      1.0000 0.78067  0.65813  0.08883  Biso   1.000  C
  O31      1.0000 0.95825  0.65763  0.97413  Biso   1.000  O
  O32      1.0000 0.89227  0.63573  0.76143  Biso   1.000  O
  O33      1.0000 0.73189  0.64783  0.00473  Biso   1.000  O
  Cd12     1.0000 0.60905  0.96211  0.86435  Biso   1.000  Cd
  C45      1.0000 0.57793  0.98537  0.25287  Biso   1.000  C
  C46      1.0000 0.54023  0.99487  0.38747  Biso   1.000  C
  C47      1.0000 0.48803  0.98707  0.31817  Biso   1.000  C
  H12      1.0000 0.48036  0.97840  0.19339  Biso   1.000  H
  C48      1.0000 0.44733  0.99147  0.42217  Biso   1.000  C
  O34      1.0000 0.62491  0.99097  0.30747  Biso   1.000  O
  O35      1.0000 0.55893  0.96907  0.09477  Biso   1.000  O
  O36      1.0000 0.39855  0.98117  0.33807  Biso   1.000  O
  Cd13     1.0000 0.70456  0.98028  0.19768  Biso   1.000  Cd
  C49      1.0000 0.68130  0.92590  0.58620  Biso   1.000  C
  C50      1.0000 0.67180  0.87870  0.72080  Biso   1.000  C
  C51      1.0000 0.67960  0.83430  0.65150  Biso   1.000  C
  H13      1.0000 0.68827  0.83530  0.52672  Biso   1.000  H
  C52      1.0000 0.67520  0.78920  0.75550  Biso   1.000  C
  O37      1.0000 0.67570  0.96728  0.64080  Biso   1.000  O
  O38      1.0000 0.69760  0.92320  0.42810  Biso   1.000  O
  O39      1.0000 0.68550  0.75072  0.67140  Biso   1.000  O
  Cd14     1.0000 0.37123  0.31361  0.53101  Biso   1.000  Cd
  C53      1.0000 0.34797  0.25923  0.91953  Biso   1.000  C
  C54      1.0000 0.33847  0.21203  0.05413  Biso   1.000  C
  C55      1.0000 0.34627  0.16763  0.98483  Biso   1.000  C
  H14      1.0000 0.35494  0.16863  0.86005  Biso   1.000  H
  C56      1.0000 0.34187  0.12253  0.08883  Biso   1.000  C
  O40      1.0000 0.34237  0.30061  0.97413  Biso   1.000  O
  O41      1.0000 0.36427  0.25653  0.76143  Biso   1.000  O
  O42      1.0000 0.35217  0.08405  0.00473  Biso   1.000  O
  Cd15     1.0000 0.03789  0.64695  0.86435  Biso   1.000  Cd
  C57      1.0000 0.01463  0.59257  0.25287  Biso   1.000  C
  C58      1.0000 0.00513  0.54537  0.38747  Biso   1.000  C
  C59      1.0000 0.01293  0.50097  0.31817  Biso   1.000  C
  H15      1.0000 0.02160  0.50197  0.19339  Biso   1.000  H
  C60      1.0000 0.00853  0.45587  0.42217  Biso   1.000  C
  O43      1.0000 0.00903  0.63395  0.30747  Biso   1.000  O
  O44      1.0000 0.03093  0.58987  0.09477  Biso   1.000  O
  O45      1.0000 0.01883  0.41739  0.33807  Biso   1.000  O
  Cd16     1.0000 0.01972  0.72428  0.19768  Biso   1.000  Cd
  C61      1.0000 0.07410  0.75540  0.58620  Biso   1.000  C
  C62      1.0000 0.12130  0.79310  0.72080  Biso   1.000  C
  C63      1.0000 0.16570  0.84530  0.65150  Biso   1.000  C
  H16      1.0000 0.16470  0.85297  0.52672  Biso   1.000  H
  C64      1.0000 0.21080  0.88600  0.75550  Biso   1.000  C
  O46      1.0000 0.03272  0.70842  0.64080  Biso   1.000  O
  O47      1.0000 0.07680  0.77440  0.42810  Biso   1.000  O
  O48      1.0000 0.24928  0.93478  0.67140  Biso   1.000  O
  Cd17     1.0000 0.68639  0.05761  0.53101  Biso   1.000  Cd
  C65      1.0000 0.74077  0.08873  0.91953  Biso   1.000  C
  C66      1.0000 0.78797  0.12643  0.05413  Biso   1.000  C
  C67      1.0000 0.83237  0.17863  0.98483  Biso   1.000  C
  H17      1.0000 0.83137  0.18630  0.86005  Biso   1.000  H
  C68      1.0000 0.87747  0.21933  0.08883  Biso   1.000  C
  O49      1.0000 0.69939  0.04175  0.97413  Biso   1.000  O
  O50      1.0000 0.74347  0.10773  0.76143  Biso   1.000  O
  O51      1.0000 0.91595  0.26811  0.00473  Biso   1.000  O
  Cd18     1.0000 0.35305  0.39095  0.86435  Biso   1.000  Cd
  C69      1.0000 0.40743  0.42207  0.25287  Biso   1.000  C
  C70      1.0000 0.45463  0.45977  0.38747  Biso   1.000  C
  C71      1.0000 0.49903  0.51197  0.31817  Biso   1.000  C
  H18      1.0000 0.49803  0.51964  0.19339  Biso   1.000  H
  C72      1.0000 0.54413  0.55267  0.42217  Biso   1.000  C
  O52      1.0000 0.36605  0.37509  0.30747  Biso   1.000  O
  O53      1.0000 0.41013  0.44107  0.09477  Biso   1.000  O
  O54      1.0000 0.58261  0.60145  0.33807  Biso   1.000  O
