data_image0
_cell_length_a       14.3449
_cell_length_b       14.6994
_cell_length_c       20.0322
_cell_angle_alpha    108.675
_cell_angle_beta     90.123
_cell_angle_gamma    107.786

_symmetry_space_group_name_H-M    "P 1"
_symmetry_int_tables_number       1

loop_
  _symmetry_equiv_pos_as_xyz
  'x, y, z'

loop_
  _atom_site_label
  _atom_site_occupancy
  _atom_site_fract_x
  _atom_site_fract_y
  _atom_site_fract_z
  _atom_site_thermal_displace_type
  _atom_site_B_iso_or_equiv
  _atom_site_type_symbol
  Ag1      1.0000 0.48425  0.40140  0.54064  Biso   1.000  Ag
  C1       1.0000 0.39180  0.29680  0.65770  Biso   1.000  C
  N1       1.0000 0.46770  0.34110  0.63200  Biso   1.000  N
  Ag2      1.0000 0.39784  0.59425  0.14837  Biso   1.000  Ag
  C2       1.0000 0.29310  0.25050  0.62050  Biso   1.000  C
  N2       1.0000 0.54370  0.37610  0.68340  Biso   1.000  N
  Ag3      1.0000 0.23750  0.97769  0.25604  Biso   1.000  Ag
  C3       1.0000 0.25780  0.29230  0.57630  Biso   1.000  C
  H1       1.0000 0.29710  0.35260  0.57130  Biso   1.000  H
  N3       1.0000 0.51380  0.35760  0.73780  Biso   1.000  N
  Ag4      1.0000 0.05844  0.13944  0.02894  Biso   1.000  Ag
  C4       1.0000 0.16040  0.24150  0.53840  Biso   1.000  C
  H2       1.0000 0.13850  0.26810  0.50740  Biso   1.000  H
  N4       1.0000 0.41500  0.30720  0.72630  Biso   1.000  N
  Ag5      1.0000 0.21692  0.22032  0.23094  Biso   1.000  Ag
  C5       1.0000 0.10200  0.15800  0.54690  Biso   1.000  C
  H3       1.0000 0.03770  0.12860  0.52440  Biso   1.000  H
  N5       1.0000 0.31910  0.29500  0.33000  Biso   1.000  N
  N6       1.0000 0.36880  0.39480  0.34460  Biso   1.000  N
  Ag6      1.0000 0.30724  0.49465  0.29878  Biso   1.000  Ag
  C6       1.0000 0.13800  0.11100  0.59250  Biso   1.000  C
  H4       1.0000 0.09960  0.04920  0.59590  Biso   1.000  H
  Ag7      1.0000 0.49390  0.78880  0.04415  Biso   1.000  Ag
  C7       1.0000 0.22800  0.15840  0.62840  Biso   1.000  C
  H5       1.0000 0.24910  0.13160  0.65940  Biso   1.000  H
  N7       1.0000 0.42200  0.42780  0.40380  Biso   1.000  N
  N8       1.0000 0.40700  0.35240  0.43240  Biso   1.000  N
  Ag8      1.0000 0.36750  0.32670  0.83435  Biso   1.000  Ag
  C8       1.0000 0.34560  0.27140  0.38690  Biso   1.000  C
  N9       1.0000 0.04410  0.93750  0.06980  Biso   1.000  N
  Ag9      1.0000 0.32900  0.96180  0.07780  Biso   1.000  Ag
  C9       1.0000 0.30270  0.17250  0.39360  Biso   1.000  C
  C10      1.0000 0.20800  0.10680  0.36150  Biso   1.000  C
  H6       1.0000 0.17240  0.12560  0.33240  Biso   1.000  H
  N10      1.0000 0.07380  0.03900  0.09890  Biso   1.000  N
  N11      1.0000 0.13430  0.06900  0.15540  Biso   1.000  N
  C11      1.0000 0.16720  0.01540  0.37230  Biso   1.000  C
  H7       1.0000 0.10360  0.97380  0.35260  Biso   1.000  H
  C12      1.0000 0.22440  0.98720  0.41380  Biso   1.000  C
  H8       1.0000 0.20060  0.92250  0.41700  Biso   1.000  H
  N12      1.0000 0.13830  0.98160  0.16770  Biso   1.000  N
  N13      1.0000 0.27240  0.44200  0.12440  Biso   1.000  N
  C13      1.0000 0.31070  0.04860  0.44850  Biso   1.000  C
  H9       1.0000 0.34260  0.03090  0.48050  Biso   1.000  H
  N14      1.0000 0.25720  0.40740  0.17880  Biso   1.000  N
  C14      1.0000 0.35460  0.14190  0.43670  Biso   1.000  C
  H10      1.0000 0.41790  0.18270  0.45760  Biso   1.000  H
  N15      1.0000 0.19900  0.31170  0.15450  Biso   1.000  N
  C15      1.0000 0.08350  0.90460  0.11250  Biso   1.000  C
  N16      1.0000 0.18050  0.28370  0.08510  Biso   1.000  N
  C16      1.0000 0.07580  0.79960  0.10310  Biso   1.000  C
  N17      1.0000 0.30020  0.85790  0.19860  Biso   1.000  N
  C17      1.0000 0.09600  0.74120  0.03850  Biso   1.000  C
  H11      1.0000 0.11160  0.76690  0.00170  Biso   1.000  H
  N18      1.0000 0.33460  0.86140  0.13670  Biso   1.000  N
  C18      1.0000 0.09200  0.64000  0.03140  Biso   1.000  C
  H12      1.0000 0.10800  0.60080  0.98950  Biso   1.000  H
  C19      1.0000 0.06600  0.59970  0.08100  Biso   1.000  C
  H13      1.0000 0.06280  0.53310  0.07370  Biso   1.000  H
  N19      1.0000 0.36880  0.78340  0.10910  Biso   1.000  N
  N20      1.0000 0.35360  0.72880  0.15330  Biso   1.000  N
  C20      1.0000 0.04190  0.65960  0.14690  Biso   1.000  C
  H14      1.0000 0.02340  0.63180  0.18240  Biso   1.000  H
  C21      1.0000 0.04680  0.76030  0.15740  Biso   1.000  C
  H15      1.0000 0.03100  0.79970  0.19940  Biso   1.000  H
  C22      1.0000 0.22370  0.36110  0.06650  Biso   1.000  C
  C23      1.0000 0.21920  0.36900  0.99460  Biso   1.000  C
  C24      1.0000 0.24090  0.46000  0.98290  Biso   1.000  C
  H16      1.0000 0.25840  0.52100  0.02050  Biso   1.000  H
  C25      1.0000 0.23600  0.45800  0.91300  Biso   1.000  C
  H17      1.0000 0.24670  0.52020  0.90580  Biso   1.000  H
  C26      1.0000 0.21610  0.37400  0.85470  Biso   1.000  C
  H18      1.0000 0.21180  0.37710  0.80920  Biso   1.000  H
  C27      1.0000 0.20260  0.28200  0.86660  Biso   1.000  C
  H19      1.0000 0.19520  0.22310  0.82830  Biso   1.000  H
  C28      1.0000 0.20020  0.27760  0.93600  Biso   1.000  C
  H20      1.0000 0.18640  0.21570  0.94320  Biso   1.000  H
  C29      1.0000 0.31290  0.77760  0.20820  Biso   1.000  C
  C30      1.0000 0.28470  0.73900  0.26610  Biso   1.000  C
  C31      1.0000 0.21760  0.63940  0.24910  Biso   1.000  C
  H21      1.0000 0.19830  0.59840  0.20190  Biso   1.000  H
  C32      1.0000 0.18000  0.60200  0.30400  Biso   1.000  C
  H22      1.0000 0.12770  0.54140  0.29350  Biso   1.000  H
  C33      1.0000 0.21600  0.65000  0.36530  Biso   1.000  C
  H23      1.0000 0.19450  0.62040  0.39940  Biso   1.000  H
  C34      1.0000 0.29100  0.75100  0.38990  Biso   1.000  C
  H24      1.0000 0.31890  0.78440  0.43670  Biso   1.000  H
  C35      1.0000 0.31700  0.79100  0.33410  Biso   1.000  C
  H25      1.0000 0.35870  0.85730  0.34590  Biso   1.000  H
  Ag10     1.0000 0.40890  0.95260  0.05980  Biso   1.000  Ag
  Ag11     1.0000 0.51575  0.59860  0.45936  Biso   1.000  Ag
  C36      1.0000 0.60820  0.70320  0.34230  Biso   1.000  C
  N21      1.0000 0.53230  0.65890  0.36800  Biso   1.000  N
  Ag12     1.0000 0.60216  0.40575  0.85163  Biso   1.000  Ag
  C37      1.0000 0.70690  0.74950  0.37950  Biso   1.000  C
  N22      1.0000 0.45630  0.62390  0.31660  Biso   1.000  N
  Ag13     1.0000 0.76250  0.02231  0.74396  Biso   1.000  Ag
  C38      1.0000 0.74220  0.70770  0.42370  Biso   1.000  C
  H26      1.0000 0.70290  0.64740  0.42870  Biso   1.000  H
  N23      1.0000 0.48620  0.64240  0.26220  Biso   1.000  N
  Ag14     1.0000 0.94156  0.86056  0.97106  Biso   1.000  Ag
  C39      1.0000 0.83960  0.75850  0.46160  Biso   1.000  C
  H27      1.0000 0.86150  0.73190  0.49260  Biso   1.000  H
  N24      1.0000 0.58500  0.69280  0.27370  Biso   1.000  N
  Ag15     1.0000 0.78308  0.77968  0.76906  Biso   1.000  Ag
  C40      1.0000 0.89800  0.84200  0.45310  Biso   1.000  C
  H28      1.0000 0.96230  0.87140  0.47560  Biso   1.000  H
  N25      1.0000 0.68090  0.70500  0.67000  Biso   1.000  N
  N26      1.0000 0.63120  0.60520  0.65540  Biso   1.000  N
  Ag16     1.0000 0.69276  0.50535  0.70122  Biso   1.000  Ag
  C41      1.0000 0.86200  0.88900  0.40750  Biso   1.000  C
  H29      1.0000 0.90040  0.95080  0.40410  Biso   1.000  H
  Ag17     1.0000 0.50610  0.21120  0.95585  Biso   1.000  Ag
  C42      1.0000 0.77200  0.84160  0.37160  Biso   1.000  C
  H30      1.0000 0.75090  0.86840  0.34060  Biso   1.000  H
  N27      1.0000 0.57800  0.57220  0.59620  Biso   1.000  N
  N28      1.0000 0.59300  0.64760  0.56760  Biso   1.000  N
  Ag18     1.0000 0.63250  0.67330  0.16565  Biso   1.000  Ag
  C43      1.0000 0.65440  0.72860  0.61310  Biso   1.000  C
  N29      1.0000 0.95590  0.06250  0.93020  Biso   1.000  N
  Ag19     1.0000 0.67100  0.03820  0.92220  Biso   1.000  Ag
  C44      1.0000 0.69730  0.82750  0.60640  Biso   1.000  C
  C45      1.0000 0.79200  0.89320  0.63850  Biso   1.000  C
  H31      1.0000 0.82760  0.87440  0.66760  Biso   1.000  H
  N30      1.0000 0.92620  0.96100  0.90110  Biso   1.000  N
  N31      1.0000 0.86570  0.93100  0.84460  Biso   1.000  N
  C46      1.0000 0.83280  0.98460  0.62770  Biso   1.000  C
  H32      1.0000 0.89640  0.02620  0.64740  Biso   1.000  H
  C47      1.0000 0.77560  0.01280  0.58620  Biso   1.000  C
  H33      1.0000 0.79940  0.07750  0.58300  Biso   1.000  H
  N32      1.0000 0.86170  0.01840  0.83230  Biso   1.000  N
  N33      1.0000 0.72760  0.55800  0.87560  Biso   1.000  N
  C48      1.0000 0.68930  0.95140  0.55150  Biso   1.000  C
  H34      1.0000 0.65740  0.96910  0.51950  Biso   1.000  H
  N34      1.0000 0.74280  0.59260  0.82120  Biso   1.000  N
  C49      1.0000 0.64540  0.85810  0.56330  Biso   1.000  C
  H35      1.0000 0.58210  0.81730  0.54240  Biso   1.000  H
  N35      1.0000 0.80100  0.68830  0.84550  Biso   1.000  N
  C50      1.0000 0.91650  0.09540  0.88750  Biso   1.000  C
  N36      1.0000 0.81950  0.71630  0.91490  Biso   1.000  N
  C51      1.0000 0.92420  0.20040  0.89690  Biso   1.000  C
  N37      1.0000 0.69980  0.14210  0.80140  Biso   1.000  N
  C52      1.0000 0.90400  0.25880  0.96150  Biso   1.000  C
  H36      1.0000 0.88840  0.23310  0.99830  Biso   1.000  H
  N38      1.0000 0.66540  0.13860  0.86330  Biso   1.000  N
  C53      1.0000 0.90800  0.36000  0.96860  Biso   1.000  C
  H37      1.0000 0.89200  0.39920  0.01050  Biso   1.000  H
  C54      1.0000 0.93400  0.40030  0.91900  Biso   1.000  C
  H38      1.0000 0.93720  0.46690  0.92630  Biso   1.000  H
  N39      1.0000 0.63120  0.21660  0.89090  Biso   1.000  N
  N40      1.0000 0.64640  0.27120  0.84670  Biso   1.000  N
  C55      1.0000 0.95810  0.34040  0.85310  Biso   1.000  C
  H39      1.0000 0.97660  0.36820  0.81760  Biso   1.000  H
  C56      1.0000 0.95320  0.23970  0.84260  Biso   1.000  C
  H40      1.0000 0.96900  0.20030  0.80060  Biso   1.000  H
  C57      1.0000 0.77630  0.63890  0.93350  Biso   1.000  C
  C58      1.0000 0.78080  0.63100  0.00540  Biso   1.000  C
  C59      1.0000 0.75910  0.54000  0.01710  Biso   1.000  C
  H41      1.0000 0.74160  0.47900  0.97950  Biso   1.000  H
  C60      1.0000 0.76400  0.54200  0.08700  Biso   1.000  C
  H42      1.0000 0.75330  0.47980  0.09420  Biso   1.000  H
  C61      1.0000 0.78390  0.62600  0.14530  Biso   1.000  C
  H43      1.0000 0.78820  0.62290  0.19080  Biso   1.000  H
  C62      1.0000 0.79740  0.71800  0.13340  Biso   1.000  C
  H44      1.0000 0.80480  0.77690  0.17170  Biso   1.000  H
  C63      1.0000 0.79980  0.72240  0.06400  Biso   1.000  C
  H45      1.0000 0.81360  0.78430  0.05680  Biso   1.000  H
  C64      1.0000 0.68710  0.22240  0.79180  Biso   1.000  C
  C65      1.0000 0.71530  0.26100  0.73390  Biso   1.000  C
  C66      1.0000 0.78240  0.36060  0.75090  Biso   1.000  C
  H46      1.0000 0.80170  0.40160  0.79810  Biso   1.000  H
  C67      1.0000 0.82000  0.39800  0.69600  Biso   1.000  C
  H47      1.0000 0.87230  0.45860  0.70650  Biso   1.000  H
  C68      1.0000 0.78400  0.35000  0.63470  Biso   1.000  C
  H48      1.0000 0.80550  0.37960  0.60060  Biso   1.000  H
  C69      1.0000 0.70900  0.24900  0.61010  Biso   1.000  C
  H49      1.0000 0.68110  0.21560  0.56330  Biso   1.000  H
  C70      1.0000 0.68300  0.20900  0.66590  Biso   1.000  C
  H50      1.0000 0.64130  0.14270  0.65410  Biso   1.000  H
  Ag20     1.0000 0.59110  0.04740  0.94020  Biso   1.000  Ag
