data_image0
_cell_length_a       10.8625
_cell_length_b       14.4803
_cell_length_c       15.3077
_cell_angle_alpha    113.142
_cell_angle_beta     90.457
_cell_angle_gamma    107.818

_symmetry_space_group_name_H-M    "P 1"
_symmetry_int_tables_number       1

loop_
  _symmetry_equiv_pos_as_xyz
  'x, y, z'

loop_
  _atom_site_label
  _atom_site_occupancy
  _atom_site_fract_x
  _atom_site_fract_y
  _atom_site_fract_z
  _atom_site_thermal_displace_type
  _atom_site_B_iso_or_equiv
  _atom_site_type_symbol
  Ag1      1.0000 0.54670  0.97226  0.61090  Biso   1.000  Ag
  Ag2      1.0000 0.08430  0.57711  0.29875  Biso   1.000  Ag
  Ag3      1.0000 0.97850  0.33827  0.04735  Biso   1.000  Ag
  Ag4      1.0000 0.02720  0.12321  0.11188  Biso   1.000  Ag
  Ag5      1.0000 0.80240  0.19825  0.77172  Biso   1.000  Ag
  C1       1.0000 0.30520  0.76030  0.47150  Biso   1.000  C
  C2       1.0000 0.31260  0.69400  0.52360  Biso   1.000  C
  C3       1.0000 0.30290  0.58800  0.47250  Biso   1.000  C
  H1       1.0000 0.29320  0.56020  0.40580  Biso   1.000  H
  C4       1.0000 0.30700  0.52220  0.51800  Biso   1.000  C
  H2       1.0000 0.30100  0.45150  0.48310  Biso   1.000  H
  C5       1.0000 0.32100  0.56700  0.61600  Biso   1.000  C
  H3       1.0000 0.32210  0.52420  0.64820  Biso   1.000  H
  C6       1.0000 0.33300  0.67300  0.66910  Biso   1.000  C
  H4       1.0000 0.34360  0.70070  0.73580  Biso   1.000  H
  C7       1.0000 0.32780  0.73440  0.62270  Biso   1.000  C
  H5       1.0000 0.33480  0.80520  0.65820  Biso   1.000  H
  C8       1.0000 0.97290  0.28140  0.31460  Biso   1.000  C
  C9       1.0000 0.96020  0.21340  0.36550  Biso   1.000  C
  C10      1.0000 0.01910  0.25410  0.45830  Biso   1.000  C
  H6       1.0000 0.07070  0.32550  0.48900  Biso   1.000  H
  C11      1.0000 0.00100  0.18800  0.50720  Biso   1.000  C
  H7       1.0000 0.04170  0.21540  0.57020  Biso   1.000  H
  C12      1.0000 0.92600  0.08270  0.46280  Biso   1.000  C
  H8       1.0000 0.91280  0.03940  0.49580  Biso   1.000  H
  C13      1.0000 0.87000  0.04180  0.37000  Biso   1.000  C
  H9       1.0000 0.82000  0.96980  0.33960  Biso   1.000  H
  C14      1.0000 0.88450  0.10610  0.31810  Biso   1.000  C
  H10      1.0000 0.84520  0.07760  0.25470  Biso   1.000  H
  C15      1.0000 0.84330  0.01370  0.81920  Biso   1.000  C
  C16      1.0000 0.77800  0.92990  0.72400  Biso   1.000  C
  C17      1.0000 0.71010  0.82710  0.71900  Biso   1.000  C
  H11      1.0000 0.70680  0.81520  0.77450  Biso   1.000  H
  C18      1.0000 0.64860  0.74430  0.63100  Biso   1.000  C
  H12      1.0000 0.60690  0.67600  0.62710  Biso   1.000  H
  C19      1.0000 0.64930  0.76300  0.54940  Biso   1.000  C
  H13      1.0000 0.60460  0.70830  0.49100  Biso   1.000  H
  C20      1.0000 0.71730  0.86450  0.55470  Biso   1.000  C
  H14      1.0000 0.71960  0.87650  0.49920  Biso   1.000  H
  C21      1.0000 0.78140  0.94750  0.64200  Biso   1.000  C
  H15      1.0000 0.82650  0.01490  0.64500  Biso   1.000  H
  N1       1.0000 0.37340  0.86400  0.50190  Biso   1.000  N
  N2       1.0000 0.34200  0.89120  0.43450  Biso   1.000  N
  N3       1.0000 0.25640  0.80830  0.36660  Biso   1.000  N
  N4       1.0000 0.23100  0.72440  0.38870  Biso   1.000  N
  N5       1.0000 0.98790  0.38600  0.35650  Biso   1.000  N
  N6       1.0000 0.98800  0.41670  0.28360  Biso   1.000  N
  N7       1.0000 0.97320  0.33450  0.20260  Biso   1.000  N
  N8       1.0000 0.96430  0.24860  0.22020  Biso   1.000  N
  N9       1.0000 0.89430  0.99900  0.89020  Biso   1.000  N
  N10      1.0000 0.93620  0.09500  0.96440  Biso   1.000  N
  N11      1.0000 0.91300  0.16660  0.94050  Biso   1.000  N
  N12      1.0000 0.85510  0.11750  0.84880  Biso   1.000  N
  Ag6      1.0000 0.45330  0.02774  0.38910  Biso   1.000  Ag
  Ag7      1.0000 0.91570  0.42289  0.70125  Biso   1.000  Ag
  Ag8      1.0000 0.02150  0.66173  0.95265  Biso   1.000  Ag
  Ag9      1.0000 0.97280  0.87679  0.88812  Biso   1.000  Ag
  Ag10     1.0000 0.19760  0.80175  0.22828  Biso   1.000  Ag
  C22      1.0000 0.69480  0.23970  0.52850  Biso   1.000  C
  C23      1.0000 0.68740  0.30600  0.47640  Biso   1.000  C
  C24      1.0000 0.69710  0.41200  0.52750  Biso   1.000  C
  H16      1.0000 0.70680  0.43980  0.59420  Biso   1.000  H
  C25      1.0000 0.69300  0.47780  0.48200  Biso   1.000  C
  H17      1.0000 0.69900  0.54850  0.51690  Biso   1.000  H
  C26      1.0000 0.67900  0.43300  0.38400  Biso   1.000  C
  H18      1.0000 0.67790  0.47580  0.35180  Biso   1.000  H
  C27      1.0000 0.66700  0.32700  0.33090  Biso   1.000  C
  H19      1.0000 0.65640  0.29930  0.26420  Biso   1.000  H
  C28      1.0000 0.67220  0.26560  0.37730  Biso   1.000  C
  H20      1.0000 0.66520  0.19480  0.34180  Biso   1.000  H
  C29      1.0000 0.02710  0.71860  0.68540  Biso   1.000  C
  C30      1.0000 0.03980  0.78660  0.63450  Biso   1.000  C
  C31      1.0000 0.98090  0.74590  0.54170  Biso   1.000  C
  H21      1.0000 0.92930  0.67450  0.51100  Biso   1.000  H
  C32      1.0000 0.99900  0.81200  0.49280  Biso   1.000  C
  H22      1.0000 0.95830  0.78460  0.42980  Biso   1.000  H
  C33      1.0000 0.07400  0.91730  0.53720  Biso   1.000  C
  H23      1.0000 0.08720  0.96060  0.50420  Biso   1.000  H
  C34      1.0000 0.13000  0.95820  0.63000  Biso   1.000  C
  H24      1.0000 0.18000  0.03020  0.66040  Biso   1.000  H
  C35      1.0000 0.11550  0.89390  0.68190  Biso   1.000  C
  H25      1.0000 0.15480  0.92240  0.74530  Biso   1.000  H
  C36      1.0000 0.15670  0.98630  0.18080  Biso   1.000  C
  C37      1.0000 0.22200  0.07010  0.27600  Biso   1.000  C
  C38      1.0000 0.28990  0.17290  0.28100  Biso   1.000  C
  H26      1.0000 0.29320  0.18480  0.22550  Biso   1.000  H
  C39      1.0000 0.35140  0.25570  0.36900  Biso   1.000  C
  H27      1.0000 0.39310  0.32400  0.37290  Biso   1.000  H
  C40      1.0000 0.35070  0.23700  0.45060  Biso   1.000  C
  H28      1.0000 0.39540  0.29170  0.50900  Biso   1.000  H
  C41      1.0000 0.28270  0.13550  0.44530  Biso   1.000  C
  H29      1.0000 0.28040  0.12350  0.50080  Biso   1.000  H
  C42      1.0000 0.21860  0.05250  0.35800  Biso   1.000  C
  H30      1.0000 0.17350  0.98510  0.35500  Biso   1.000  H
  N13      1.0000 0.62660  0.13600  0.49810  Biso   1.000  N
  N14      1.0000 0.65800  0.10880  0.56550  Biso   1.000  N
  N15      1.0000 0.74360  0.19170  0.63340  Biso   1.000  N
  N16      1.0000 0.76900  0.27560  0.61130  Biso   1.000  N
  N17      1.0000 0.01210  0.61400  0.64350  Biso   1.000  N
  N18      1.0000 0.01200  0.58330  0.71640  Biso   1.000  N
  N19      1.0000 0.02680  0.66550  0.79740  Biso   1.000  N
  N20      1.0000 0.03570  0.75140  0.77980  Biso   1.000  N
  N21      1.0000 0.10570  0.00100  0.10980  Biso   1.000  N
  N22      1.0000 0.06380  0.90500  0.03560  Biso   1.000  N
  N23      1.0000 0.08700  0.83340  0.05950  Biso   1.000  N
  N24      1.0000 0.14490  0.88250  0.15120  Biso   1.000  N
  Ag11     1.0000 0.00000  0.50000  0.50000  Biso   1.000  Ag
