data_BARZIE_clean
_audit_creation_date              2014-07-02
_audit_creation_method            'Materials Studio'
_symmetry_space_group_name_H-M    'P1'
_symmetry_Int_Tables_number       1
_symmetry_cell_setting            triclinic
loop_
_symmetry_equiv_pos_as_xyz
  x,y,z
_cell_length_a                    18.3364
_cell_length_b                    18.5355
_cell_length_c                    18.5355
_cell_angle_alpha                 70.3122
_cell_angle_beta                  70.7462
_cell_angle_gamma                 109.2540
loop_
_atom_site_label
_atom_site_type_symbol
_atom_site_fract_x
_atom_site_fract_y
_atom_site_fract_z
_atom_site_U_iso_or_equiv
_atom_site_adp_type
_atom_site_occupancy
Co1    Co    0.98403   0.92876   0.57629   0.01267  Uiso   1.00
Co2    Co    0.56032   0.57629   0.49495   0.01267  Uiso   1.00
Co3    Co    0.05527   0.49495   0.92876   0.01267  Uiso   1.00
Co4    Co    0.93968   0.49495   0.57629   0.01267  Uiso   1.00
Co5    Co    0.44473   0.92876   0.49495   0.01267  Uiso   1.00
Co6    Co    0.51597   0.57629   0.92876   0.01267  Uiso   1.00
Co7    Co    0.01597   0.07124   0.42371   0.01267  Uiso   1.00
Co8    Co    0.43968   0.42371   0.50505   0.01267  Uiso   1.00
Co9    Co    0.94473   0.50505   0.07124   0.01267  Uiso   1.00
Co10   Co    0.06032   0.50505   0.42371   0.01267  Uiso   1.00
Co11   Co    0.55527   0.07124   0.50505   0.01267  Uiso   1.00
Co12   Co    0.48403   0.42371   0.07124   0.01267  Uiso   1.00
H1     H     0.84080   0.82890   0.75300   0.01267  Uiso   1.00
H2     H     0.28460   0.27990   0.34780   0.01267  Uiso   1.00
H3     H     0.06640   0.75600   0.83940   0.01267  Uiso   1.00
H4     H     0.16270   0.82650   0.68940   0.01267  Uiso   1.00
H5     H     0.12040   0.89030   0.59060   0.01267  Uiso   1.00
H6     H     0.91770   0.70640   0.96260   0.01267  Uiso   1.00
H7     H     0.74200   0.75730   0.90280   0.01267  Uiso   1.00
H8     H     0.13130   0.99190   0.23380   0.01267  Uiso   1.00
H9     H     0.78080   0.69770   0.00730   0.01267  Uiso   1.00
H10    H     0.59380   0.75300   0.41810   0.01267  Uiso   1.00
H11    H     0.63240   0.34780   0.37230   0.01267  Uiso   1.00
H12    H     0.90580   0.83940   0.40460   0.01267  Uiso   1.00
H13    H     0.85210   0.68940   0.48410   0.01267  Uiso   1.00
H14    H     0.71100   0.59060   0.51910   0.01267  Uiso   1.00
H15    H     0.88030   0.96260   0.33100   0.01267  Uiso   1.00
H16    H     0.64480   0.90280   0.33990   0.01267  Uiso   1.00
H17    H     0.36510   0.23380   0.77430   0.01267  Uiso   1.00
H18    H     0.78810   0.00730   0.29500   0.01267  Uiso   1.00
H19    H     0.01190   0.41810   0.82890   0.01267  Uiso   1.00
H20    H     0.00470   0.37230   0.27990   0.01267  Uiso   1.00
H21    H     0.31040   0.40460   0.75600   0.01267  Uiso   1.00
H22    H     0.33620   0.48410   0.82650   0.01267  Uiso   1.00
H23    H     0.23010   0.51910   0.89030   0.01267  Uiso   1.00
H24    H     0.21130   0.33100   0.70640   0.01267  Uiso   1.00
H25    H     0.98470   0.33990   0.75730   0.01267  Uiso   1.00
H26    H     0.13940   0.77430   0.99190   0.01267  Uiso   1.00
H27    H     0.08310   0.29500   0.69770   0.01267  Uiso   1.00
H28    H     0.90620   0.41810   0.75300   0.01267  Uiso   1.00
H29    H     0.86760   0.37230   0.34780   0.01267  Uiso   1.00
H30    H     0.59420   0.40460   0.83940   0.01267  Uiso   1.00
H31    H     0.64790   0.48410   0.68940   0.01267  Uiso   1.00
H32    H     0.78900   0.51910   0.59060   0.01267  Uiso   1.00
H33    H     0.61970   0.33100   0.96260   0.01267  Uiso   1.00
H34    H     0.85520   0.33990   0.90280   0.01267  Uiso   1.00
H35    H     0.13490   0.77430   0.23380   0.01267  Uiso   1.00
H36    H     0.71190   0.29500   0.00730   0.01267  Uiso   1.00
H37    H     0.48810   0.82890   0.41810   0.01267  Uiso   1.00
H38    H     0.49530   0.27990   0.37230   0.01267  Uiso   1.00
H39    H     0.18960   0.75600   0.40460   0.01267  Uiso   1.00
H40    H     0.16380   0.82650   0.48410   0.01267  Uiso   1.00
H41    H     0.26990   0.89030   0.51910   0.01267  Uiso   1.00
H42    H     0.28870   0.70640   0.33100   0.01267  Uiso   1.00
H43    H     0.51530   0.75730   0.33990   0.01267  Uiso   1.00
H44    H     0.36060   0.99190   0.77430   0.01267  Uiso   1.00
H45    H     0.41690   0.69770   0.29500   0.01267  Uiso   1.00
H46    H     0.65920   0.75300   0.82890   0.01267  Uiso   1.00
H47    H     0.21540   0.34780   0.27990   0.01267  Uiso   1.00
H48    H     0.43360   0.83940   0.75600   0.01267  Uiso   1.00
H49    H     0.33730   0.68940   0.82650   0.01267  Uiso   1.00
H50    H     0.37960   0.59060   0.89030   0.01267  Uiso   1.00
H51    H     0.58230   0.96260   0.70640   0.01267  Uiso   1.00
H52    H     0.75800   0.90280   0.75730   0.01267  Uiso   1.00
H53    H     0.36870   0.23380   0.99190   0.01267  Uiso   1.00
H54    H     0.71920   0.00730   0.69770   0.01267  Uiso   1.00
H55    H     0.15920   0.17110   0.24700   0.01267  Uiso   1.00
H56    H     0.71540   0.72010   0.65220   0.01267  Uiso   1.00
H57    H     0.93360   0.24400   0.16060   0.01267  Uiso   1.00
H58    H     0.83730   0.17350   0.31060   0.01267  Uiso   1.00
H59    H     0.87960   0.10970   0.40940   0.01267  Uiso   1.00
H60    H     0.08230   0.29360   0.03740   0.01267  Uiso   1.00
H61    H     0.25800   0.24270   0.09720   0.01267  Uiso   1.00
H62    H     0.86870   0.00810   0.76620   0.01267  Uiso   1.00
H63    H     0.21920   0.30230   0.99270   0.01267  Uiso   1.00
H64    H     0.40620   0.24700   0.58190   0.01267  Uiso   1.00
H65    H     0.36760   0.65220   0.62770   0.01267  Uiso   1.00
H66    H     0.09420   0.16060   0.59540   0.01267  Uiso   1.00
H67    H     0.14790   0.31060   0.51590   0.01267  Uiso   1.00
H68    H     0.28900   0.40940   0.48090   0.01267  Uiso   1.00
H69    H     0.11970   0.03740   0.66900   0.01267  Uiso   1.00
H70    H     0.35520   0.09720   0.66010   0.01267  Uiso   1.00
H71    H     0.63490   0.76620   0.22570   0.01267  Uiso   1.00
H72    H     0.21190   0.99270   0.70500   0.01267  Uiso   1.00
H73    H     0.98810   0.58190   0.17110   0.01267  Uiso   1.00
H74    H     0.99530   0.62770   0.72010   0.01267  Uiso   1.00
H75    H     0.68960   0.59540   0.24400   0.01267  Uiso   1.00
H76    H     0.66380   0.51590   0.17350   0.01267  Uiso   1.00
H77    H     0.76990   0.48090   0.10970   0.01267  Uiso   1.00
H78    H     0.78870   0.66900   0.29360   0.01267  Uiso   1.00
H79    H     0.01530   0.66010   0.24270   0.01267  Uiso   1.00
H80    H     0.86060   0.22570   0.00810   0.01267  Uiso   1.00
H81    H     0.91690   0.70500   0.30230   0.01267  Uiso   1.00
H82    H     0.09380   0.58190   0.24700   0.01267  Uiso   1.00
H83    H     0.13240   0.62770   0.65220   0.01267  Uiso   1.00
H84    H     0.40580   0.59540   0.16060   0.01267  Uiso   1.00
H85    H     0.35210   0.51590   0.31060   0.01267  Uiso   1.00
H86    H     0.21100   0.48090   0.40940   0.01267  Uiso   1.00
H87    H     0.38030   0.66900   0.03740   0.01267  Uiso   1.00
H88    H     0.14480   0.66010   0.09720   0.01267  Uiso   1.00
H89    H     0.86510   0.22570   0.76620   0.01267  Uiso   1.00
H90    H     0.28810   0.70500   0.99270   0.01267  Uiso   1.00
H91    H     0.51190   0.17110   0.58190   0.01267  Uiso   1.00
H92    H     0.50470   0.72010   0.62770   0.01267  Uiso   1.00
H93    H     0.81040   0.24400   0.59540   0.01267  Uiso   1.00
H94    H     0.83620   0.17350   0.51590   0.01267  Uiso   1.00
H95    H     0.73010   0.10970   0.48090   0.01267  Uiso   1.00
H96    H     0.71130   0.29360   0.66900   0.01267  Uiso   1.00
H97    H     0.48470   0.24270   0.66010   0.01267  Uiso   1.00
H98    H     0.63940   0.00810   0.22570   0.01267  Uiso   1.00
H99    H     0.58310   0.30230   0.70500   0.01267  Uiso   1.00
H100   H     0.34080   0.24700   0.17110   0.01267  Uiso   1.00
H101   H     0.78460   0.65220   0.72010   0.01267  Uiso   1.00
H102   H     0.56640   0.16060   0.24400   0.01267  Uiso   1.00
H103   H     0.66270   0.31060   0.17350   0.01267  Uiso   1.00
H104   H     0.62040   0.40940   0.10970   0.01267  Uiso   1.00
H105   H     0.41770   0.03740   0.29360   0.01267  Uiso   1.00
H106   H     0.24200   0.09720   0.24270   0.01267  Uiso   1.00
H107   H     0.63130   0.76620   0.00810   0.01267  Uiso   1.00
H108   H     0.28080   0.99270   0.30230   0.01267  Uiso   1.00
H109   H     0.01795   0.76795   0.46410   0.01267  Uiso   1.00
H110   H     0.17165   0.92165   0.15670   0.01267  Uiso   1.00
H111   H     0.48205   0.46410   0.76795   0.01267  Uiso   1.00
H112   H     0.32835   0.15670   0.92165   0.01267  Uiso   1.00
H113   H     0.25000   0.76795   0.76795   0.01267  Uiso   1.00
H114   H     0.25000   0.92165   0.92165   0.01267  Uiso   1.00
H115   H     0.98205   0.23205   0.53590   0.01267  Uiso   1.00
H116   H     0.82835   0.07835   0.84330   0.01267  Uiso   1.00
H117   H     0.51795   0.53590   0.23205   0.01267  Uiso   1.00
H118   H     0.67165   0.84330   0.07835   0.01267  Uiso   1.00
H119   H     0.75000   0.23205   0.23205   0.01267  Uiso   1.00
H120   H     0.75000   0.07835   0.07835   0.01267  Uiso   1.00
H121   H     0.27420   0.04840   0.47580   0.01267  Uiso   1.00
H122   H     0.42800   0.35600   0.32200   0.01267  Uiso   1.00
H123   H     0.75000   0.47580   0.47580   0.01267  Uiso   1.00
H124   H     0.75000   0.32200   0.32200   0.01267  Uiso   1.00
H125   H     0.22580   0.47580   0.04840   0.01267  Uiso   1.00
H126   H     0.07200   0.32200   0.35600   0.01267  Uiso   1.00
H127   H     0.72580   0.95160   0.52420   0.01267  Uiso   1.00
H128   H     0.57200   0.64400   0.67800   0.01267  Uiso   1.00
H129   H     0.25000   0.52420   0.52420   0.01267  Uiso   1.00
H130   H     0.25000   0.67800   0.67800   0.01267  Uiso   1.00
H131   H     0.77420   0.52420   0.95160   0.01267  Uiso   1.00
H132   H     0.92800   0.67800   0.64400   0.01267  Uiso   1.00
C1     C     0.85755   0.80503   0.79471   0.01267  Uiso   1.00
C2     C     0.05040   0.93041   0.40913   0.01267  Uiso   1.00
C3     C     0.26340   0.15589   0.41801   0.01267  Uiso   1.00
C4     C     0.94258   0.81314   0.76595   0.01267  Uiso   1.00
C5     C     0.31121   0.24829   0.36956   0.01267  Uiso   1.00
C6     C     0.16820   0.10669   0.44174   0.01267  Uiso   1.00
C7     C     0.07384   0.88698   0.35685   0.01267  Uiso   1.00
C8     C     0.96589   0.77561   0.82904   0.01267  Uiso   1.00
C9     C     0.04950   0.78136   0.79846   0.01267  Uiso   1.00
C10    C     0.10619   0.82288   0.71071   0.01267  Uiso   1.00
C11    C     0.07959   0.86036   0.65201   0.01267  Uiso   1.00
C12    C     0.90293   0.73200   0.91971   0.01267  Uiso   1.00
C13    C     0.79922   0.76238   0.88352   0.01267  Uiso   1.00
C14    C     0.11732   0.93233   0.26513   0.01267  Uiso   1.00
C15    C     0.82201   0.72629   0.94616   0.01267  Uiso   1.00
C16    C     0.65226   0.79471   0.40026   0.01267  Uiso   1.00
C17    C     0.45953   0.40913   0.66046   0.01267  Uiso   1.00
C18    C     0.68141   0.41801   0.42610   0.01267  Uiso   1.00
C19    C     0.70853   0.76595   0.42091   0.01267  Uiso   1.00
C20    C     0.68077   0.36956   0.38215   0.01267  Uiso   1.00
C21    C     0.60994   0.44174   0.45157   0.01267  Uiso   1.00
C22    C     0.43069   0.35685   0.75617   0.01267  Uiso   1.00
C23    C     0.79493   0.82904   0.39535   0.01267  Uiso   1.00
C24    C     0.84796   0.79846   0.42018   0.01267  Uiso   1.00
C25    C     0.81690   0.71071   0.46641   0.01267  Uiso   1.00
C26    C     0.73160   0.65201   0.48763   0.01267  Uiso   1.00
C27    C     0.82264   0.91971   0.34829   0.01267  Uiso   1.00
C28    C     0.68274   0.88352   0.35410   0.01267  Uiso   1.00
C29    C     0.38245   0.26513   0.80254   0.01267  Uiso   1.00
C30    C     0.76817   0.94616   0.32755   0.01267  Uiso   1.00
C31    C     0.05252   0.40026   0.80503   0.01267  Uiso   1.00
C32    C     0.11999   0.66046   0.93041   0.01267  Uiso   1.00
C33    C     0.10751   0.42610   0.15589   0.01267  Uiso   1.00
C34    C     0.12944   0.42091   0.81314   0.01267  Uiso   1.00
C35    C     0.06292   0.38215   0.24829   0.01267  Uiso   1.00
C36    C     0.06151   0.45157   0.10669   0.01267  Uiso   1.00
C37    C     0.18686   0.75617   0.88698   0.01267  Uiso   1.00
C38    C     0.19028   0.39535   0.77561   0.01267  Uiso   1.00
C39    C     0.26814   0.42018   0.78136   0.01267  Uiso   1.00
C40    C     0.28331   0.46641   0.82288   0.01267  Uiso   1.00
C41    C     0.21923   0.48763   0.86036   0.01267  Uiso   1.00
C42    C     0.17093   0.34829   0.73200   0.01267  Uiso   1.00
C43    C     0.03684   0.35410   0.76238   0.01267  Uiso   1.00
C44    C     0.18499   0.80254   0.93233   0.01267  Uiso   1.00
C45    C     0.09572   0.32755   0.72629   0.01267  Uiso   1.00
C46    C     0.84774   0.40026   0.79471   0.01267  Uiso   1.00
C47    C     0.04047   0.66046   0.40913   0.01267  Uiso   1.00
C48    C     0.81859   0.42610   0.41801   0.01267  Uiso   1.00
C49    C     0.79147   0.42091   0.76595   0.01267  Uiso   1.00
C50    C     0.81923   0.38215   0.36956   0.01267  Uiso   1.00
C51    C     0.89006   0.45157   0.44174   0.01267  Uiso   1.00
C52    C     0.06931   0.75617   0.35685   0.01267  Uiso   1.00
C53    C     0.70507   0.39535   0.82904   0.01267  Uiso   1.00
C54    C     0.65204   0.42018   0.79846   0.01267  Uiso   1.00
C55    C     0.68310   0.46641   0.71071   0.01267  Uiso   1.00
C56    C     0.76840   0.48763   0.65201   0.01267  Uiso   1.00
C57    C     0.67736   0.34829   0.91971   0.01267  Uiso   1.00
C58    C     0.81726   0.35410   0.88352   0.01267  Uiso   1.00
C59    C     0.11755   0.80254   0.26513   0.01267  Uiso   1.00
C60    C     0.73183   0.32755   0.94616   0.01267  Uiso   1.00
C61    C     0.44748   0.80503   0.40026   0.01267  Uiso   1.00
C62    C     0.38001   0.93041   0.66046   0.01267  Uiso   1.00
C63    C     0.39249   0.15589   0.42610   0.01267  Uiso   1.00
C64    C     0.37056   0.81314   0.42091   0.01267  Uiso   1.00
C65    C     0.43708   0.24829   0.38215   0.01267  Uiso   1.00
C66    C     0.43849   0.10669   0.45157   0.01267  Uiso   1.00
C67    C     0.31314   0.88698   0.75617   0.01267  Uiso   1.00
C68    C     0.30972   0.77561   0.39535   0.01267  Uiso   1.00
C69    C     0.23186   0.78136   0.42018   0.01267  Uiso   1.00
C70    C     0.21669   0.82288   0.46641   0.01267  Uiso   1.00
C71    C     0.28077   0.86036   0.48763   0.01267  Uiso   1.00
C72    C     0.32907   0.73200   0.34829   0.01267  Uiso   1.00
C73    C     0.46316   0.76238   0.35410   0.01267  Uiso   1.00
C74    C     0.31501   0.93233   0.80254   0.01267  Uiso   1.00
C75    C     0.40428   0.72629   0.32755   0.01267  Uiso   1.00
C76    C     0.64245   0.79471   0.80503   0.01267  Uiso   1.00
C77    C     0.44960   0.40913   0.93041   0.01267  Uiso   1.00
C78    C     0.23660   0.41801   0.15589   0.01267  Uiso   1.00
C79    C     0.55742   0.76595   0.81314   0.01267  Uiso   1.00
C80    C     0.18879   0.36956   0.24829   0.01267  Uiso   1.00
C81    C     0.33180   0.44174   0.10669   0.01267  Uiso   1.00
C82    C     0.42616   0.35685   0.88698   0.01267  Uiso   1.00
C83    C     0.53411   0.82904   0.77561   0.01267  Uiso   1.00
C84    C     0.45050   0.79846   0.78136   0.01267  Uiso   1.00
C85    C     0.39381   0.71071   0.82288   0.01267  Uiso   1.00
C86    C     0.42041   0.65201   0.86036   0.01267  Uiso   1.00
C87    C     0.59707   0.91971   0.73200   0.01267  Uiso   1.00
C88    C     0.70078   0.88352   0.76238   0.01267  Uiso   1.00
C89    C     0.38268   0.26513   0.93233   0.01267  Uiso   1.00
C90    C     0.67799   0.94616   0.72629   0.01267  Uiso   1.00
C91    C     0.14245   0.19497   0.20529   0.01267  Uiso   1.00
C92    C     0.94960   0.06959   0.59087   0.01267  Uiso   1.00
C93    C     0.73660   0.84411   0.58199   0.01267  Uiso   1.00
C94    C     0.05742   0.18686   0.23405   0.01267  Uiso   1.00
C95    C     0.68879   0.75171   0.63044   0.01267  Uiso   1.00
C96    C     0.83180   0.89331   0.55826   0.01267  Uiso   1.00
C97    C     0.92616   0.11302   0.64315   0.01267  Uiso   1.00
C98    C     0.03411   0.22439   0.17096   0.01267  Uiso   1.00
C99    C     0.95050   0.21864   0.20154   0.01267  Uiso   1.00
C100   C     0.89381   0.17712   0.28929   0.01267  Uiso   1.00
C101   C     0.92041   0.13964   0.34799   0.01267  Uiso   1.00
C102   C     0.09707   0.26800   0.08029   0.01267  Uiso   1.00
C103   C     0.20078   0.23762   0.11648   0.01267  Uiso   1.00
C104   C     0.88268   0.06767   0.73487   0.01267  Uiso   1.00
C105   C     0.17799   0.27371   0.05384   0.01267  Uiso   1.00
C106   C     0.34774   0.20529   0.59974   0.01267  Uiso   1.00
C107   C     0.54047   0.59087   0.33954   0.01267  Uiso   1.00
C108   C     0.31859   0.58199   0.57390   0.01267  Uiso   1.00
C109   C     0.29147   0.23405   0.57909   0.01267  Uiso   1.00
C110   C     0.31923   0.63044   0.61785   0.01267  Uiso   1.00
C111   C     0.39006   0.55826   0.54843   0.01267  Uiso   1.00
C112   C     0.56931   0.64315   0.24383   0.01267  Uiso   1.00
C113   C     0.20507   0.17096   0.60465   0.01267  Uiso   1.00
C114   C     0.15204   0.20154   0.57982   0.01267  Uiso   1.00
C115   C     0.18310   0.28929   0.53359   0.01267  Uiso   1.00
C116   C     0.26840   0.34799   0.51237   0.01267  Uiso   1.00
C117   C     0.17736   0.08029   0.65171   0.01267  Uiso   1.00
C118   C     0.31726   0.11648   0.64590   0.01267  Uiso   1.00
C119   C     0.61755   0.73487   0.19746   0.01267  Uiso   1.00
C120   C     0.23183   0.05384   0.67245   0.01267  Uiso   1.00
C121   C     0.94748   0.59974   0.19497   0.01267  Uiso   1.00
C122   C     0.88001   0.33954   0.06959   0.01267  Uiso   1.00
C123   C     0.89249   0.57390   0.84411   0.01267  Uiso   1.00
C124   C     0.87056   0.57909   0.18686   0.01267  Uiso   1.00
C125   C     0.93708   0.61785   0.75171   0.01267  Uiso   1.00
C126   C     0.93849   0.54843   0.89331   0.01267  Uiso   1.00
C127   C     0.81314   0.24383   0.11302   0.01267  Uiso   1.00
C128   C     0.80972   0.60465   0.22439   0.01267  Uiso   1.00
C129   C     0.73186   0.57982   0.21864   0.01267  Uiso   1.00
C130   C     0.71669   0.53359   0.17712   0.01267  Uiso   1.00
C131   C     0.78077   0.51237   0.13964   0.01267  Uiso   1.00
C132   C     0.82907   0.65171   0.26800   0.01267  Uiso   1.00
C133   C     0.96316   0.64590   0.23762   0.01267  Uiso   1.00
C134   C     0.81501   0.19746   0.06767   0.01267  Uiso   1.00
C135   C     0.90428   0.67245   0.27371   0.01267  Uiso   1.00
C136   C     0.15226   0.59974   0.20529   0.01267  Uiso   1.00
C137   C     0.95953   0.33954   0.59087   0.01267  Uiso   1.00
C138   C     0.18141   0.57390   0.58199   0.01267  Uiso   1.00
C139   C     0.20853   0.57909   0.23405   0.01267  Uiso   1.00
C140   C     0.18077   0.61785   0.63044   0.01267  Uiso   1.00
C141   C     0.10994   0.54843   0.55826   0.01267  Uiso   1.00
C142   C     0.93069   0.24383   0.64315   0.01267  Uiso   1.00
C143   C     0.29493   0.60465   0.17096   0.01267  Uiso   1.00
C144   C     0.34796   0.57982   0.20154   0.01267  Uiso   1.00
C145   C     0.31690   0.53359   0.28929   0.01267  Uiso   1.00
C146   C     0.23160   0.51237   0.34799   0.01267  Uiso   1.00
C147   C     0.32264   0.65171   0.08029   0.01267  Uiso   1.00
C148   C     0.18274   0.64590   0.11648   0.01267  Uiso   1.00
C149   C     0.88245   0.19746   0.73487   0.01267  Uiso   1.00
C150   C     0.26817   0.67245   0.05384   0.01267  Uiso   1.00
C151   C     0.55252   0.19497   0.59974   0.01267  Uiso   1.00
C152   C     0.61999   0.06959   0.33954   0.01267  Uiso   1.00
C153   C     0.60751   0.84411   0.57390   0.01267  Uiso   1.00
C154   C     0.62944   0.18686   0.57909   0.01267  Uiso   1.00
C155   C     0.56292   0.75171   0.61785   0.01267  Uiso   1.00
C156   C     0.56151   0.89331   0.54843   0.01267  Uiso   1.00
C157   C     0.68686   0.11302   0.24383   0.01267  Uiso   1.00
C158   C     0.69028   0.22439   0.60465   0.01267  Uiso   1.00
C159   C     0.76814   0.21864   0.57982   0.01267  Uiso   1.00
C160   C     0.78331   0.17712   0.53359   0.01267  Uiso   1.00
C161   C     0.71923   0.13964   0.51237   0.01267  Uiso   1.00
C162   C     0.67093   0.26800   0.65171   0.01267  Uiso   1.00
C163   C     0.53684   0.23762   0.64590   0.01267  Uiso   1.00
C164   C     0.68499   0.06767   0.19746   0.01267  Uiso   1.00
C165   C     0.59572   0.27371   0.67245   0.01267  Uiso   1.00
C166   C     0.35755   0.20529   0.19497   0.01267  Uiso   1.00
C167   C     0.55040   0.59087   0.06959   0.01267  Uiso   1.00
C168   C     0.76340   0.58199   0.84411   0.01267  Uiso   1.00
C169   C     0.44258   0.23405   0.18686   0.01267  Uiso   1.00
C170   C     0.81121   0.63044   0.75171   0.01267  Uiso   1.00
C171   C     0.66820   0.55826   0.89331   0.01267  Uiso   1.00
C172   C     0.57384   0.64315   0.11302   0.01267  Uiso   1.00
C173   C     0.46589   0.17096   0.22439   0.01267  Uiso   1.00
C174   C     0.54950   0.20154   0.21864   0.01267  Uiso   1.00
C175   C     0.60619   0.28929   0.17712   0.01267  Uiso   1.00
C176   C     0.57959   0.34799   0.13964   0.01267  Uiso   1.00
C177   C     0.40293   0.08029   0.26800   0.01267  Uiso   1.00
C178   C     0.29922   0.11648   0.23762   0.01267  Uiso   1.00
C179   C     0.61732   0.73487   0.06767   0.01267  Uiso   1.00
C180   C     0.32201   0.05384   0.27371   0.01267  Uiso   1.00
C181   C     0.04930   0.79930   0.40140   0.01267  Uiso   1.00
C182   C     0.14029   0.89029   0.21942   0.01267  Uiso   1.00
C183   C     0.45070   0.40140   0.79930   0.01267  Uiso   1.00
C184   C     0.35971   0.21942   0.89029   0.01267  Uiso   1.00
C185   C     0.25000   0.79930   0.79930   0.01267  Uiso   1.00
C186   C     0.25000   0.89029   0.89029   0.01267  Uiso   1.00
C187   C     0.95070   0.20070   0.59860   0.01267  Uiso   1.00
C188   C     0.85971   0.10971   0.78058   0.01267  Uiso   1.00
C189   C     0.54930   0.59860   0.20070   0.01267  Uiso   1.00
C190   C     0.64029   0.78058   0.10971   0.01267  Uiso   1.00
C191   C     0.75000   0.20070   0.20070   0.01267  Uiso   1.00
C192   C     0.75000   0.10971   0.10971   0.01267  Uiso   1.00
C193   C     0.30554   0.11108   0.44446   0.01267  Uiso   1.00
C194   C     0.39669   0.29338   0.35331   0.01267  Uiso   1.00
C195   C     0.75000   0.44446   0.44446   0.01267  Uiso   1.00
C196   C     0.75000   0.35331   0.35331   0.01267  Uiso   1.00
C197   C     0.19446   0.44446   0.11108   0.01267  Uiso   1.00
C198   C     0.10331   0.35331   0.29338   0.01267  Uiso   1.00
C199   C     0.69446   0.88892   0.55554   0.01267  Uiso   1.00
C200   C     0.60331   0.70662   0.64669   0.01267  Uiso   1.00
C201   C     0.25000   0.55554   0.55554   0.01267  Uiso   1.00
C202   C     0.25000   0.64669   0.64669   0.01267  Uiso   1.00
C203   C     0.80554   0.55554   0.88892   0.01267  Uiso   1.00
C204   C     0.89669   0.64669   0.70662   0.01267  Uiso   1.00
N1     N     0.00181   0.85684   0.67639   0.01267  Uiso   1.00
N2     N     0.67820   0.67639   0.46677   0.01267  Uiso   1.00
N3     N     0.14497   0.46677   0.85684   0.01267  Uiso   1.00
N4     N     0.82180   0.46677   0.67639   0.01267  Uiso   1.00
N5     N     0.35503   0.85684   0.46677   0.01267  Uiso   1.00
N6     N     0.49819   0.67639   0.85684   0.01267  Uiso   1.00
N7     N     0.99819   0.14316   0.32361   0.01267  Uiso   1.00
N8     N     0.32180   0.32361   0.53323   0.01267  Uiso   1.00
N9     N     0.85503   0.53323   0.14316   0.01267  Uiso   1.00
N10    N     0.17820   0.53323   0.32361   0.01267  Uiso   1.00
N11    N     0.64497   0.14316   0.53323   0.01267  Uiso   1.00
N12    N     0.50181   0.32361   0.14316   0.01267  Uiso   1.00
O1     O     0.11916   0.03048   0.50869   0.01267  Uiso   1.00
O2     O     0.03058   0.89167   0.48871   0.01267  Uiso   1.00
O3     O     0.14199   0.14482   0.39359   0.01267  Uiso   1.00
O4     O     0.05053   0.00084   0.37036   0.01267  Uiso   1.00
O5     O     0.62785   0.50869   0.46083   0.01267  Uiso   1.00
O6     O     0.51929   0.48871   0.61962   0.01267  Uiso   1.00
O7     O     0.53558   0.39359   0.46159   0.01267  Uiso   1.00
O8     O     0.42089   0.37036   0.62880   0.01267  Uiso   1.00
O9     O     0.08868   0.46083   0.03048   0.01267  Uiso   1.00
O10    O     0.13891   0.61962   0.89167   0.01267  Uiso   1.00
O11    O     0.99717   0.46159   0.14482   0.01267  Uiso   1.00
O12    O     0.04969   0.62880   0.00084   0.01267  Uiso   1.00
O13    O     0.87215   0.46083   0.50869   0.01267  Uiso   1.00
O14    O     0.98071   0.61962   0.48871   0.01267  Uiso   1.00
O15    O     0.96442   0.46159   0.39359   0.01267  Uiso   1.00
O16    O     0.07911   0.62880   0.37036   0.01267  Uiso   1.00
O17    O     0.41132   0.03048   0.46083   0.01267  Uiso   1.00
O18    O     0.36109   0.89167   0.61962   0.01267  Uiso   1.00
O19    O     0.50283   0.14482   0.46159   0.01267  Uiso   1.00
O20    O     0.45031   0.00084   0.62880   0.01267  Uiso   1.00
O21    O     0.38084   0.50869   0.03048   0.01267  Uiso   1.00
O22    O     0.46942   0.48871   0.89167   0.01267  Uiso   1.00
O23    O     0.35801   0.39359   0.14482   0.01267  Uiso   1.00
O24    O     0.44947   0.37036   0.00084   0.01267  Uiso   1.00
O25    O     0.88084   0.96952   0.49131   0.01267  Uiso   1.00
O26    O     0.96942   0.10833   0.51129   0.01267  Uiso   1.00
O27    O     0.85801   0.85518   0.60641   0.01267  Uiso   1.00
O28    O     0.94947   0.99916   0.62964   0.01267  Uiso   1.00
O29    O     0.37215   0.49131   0.53917   0.01267  Uiso   1.00
O30    O     0.48071   0.51129   0.38038   0.01267  Uiso   1.00
O31    O     0.46442   0.60641   0.53841   0.01267  Uiso   1.00
O32    O     0.57911   0.62964   0.37120   0.01267  Uiso   1.00
O33    O     0.91132   0.53917   0.96952   0.01267  Uiso   1.00
O34    O     0.86109   0.38038   0.10833   0.01267  Uiso   1.00
O35    O     0.00283   0.53841   0.85518   0.01267  Uiso   1.00
O36    O     0.95031   0.37120   0.99916   0.01267  Uiso   1.00
O37    O     0.12785   0.53917   0.49131   0.01267  Uiso   1.00
O38    O     0.01929   0.38038   0.51129   0.01267  Uiso   1.00
O39    O     0.03558   0.53841   0.60641   0.01267  Uiso   1.00
O40    O     0.92089   0.37120   0.62964   0.01267  Uiso   1.00
O41    O     0.58868   0.96952   0.53917   0.01267  Uiso   1.00
O42    O     0.63891   0.10833   0.38038   0.01267  Uiso   1.00
O43    O     0.49717   0.85518   0.53841   0.01267  Uiso   1.00
O44    O     0.54969   0.99916   0.37120   0.01267  Uiso   1.00
O45    O     0.61916   0.49131   0.96952   0.01267  Uiso   1.00
O46    O     0.53058   0.51129   0.10833   0.01267  Uiso   1.00
O47    O     0.64199   0.60641   0.85518   0.01267  Uiso   1.00
O48    O     0.55053   0.62964   0.99916   0.01267  Uiso   1.00
