data_BARZUR_clean
_audit_creation_date              2014-07-02
_audit_creation_method            'Materials Studio'
_symmetry_space_group_name_H-M    'P1'
_symmetry_Int_Tables_number       1
_symmetry_cell_setting            triclinic
loop_
_symmetry_equiv_pos_as_xyz
  x,y,z
_cell_length_a                    12.4030
_cell_length_b                    15.7290
_cell_length_c                    15.7290
_cell_angle_alpha                 120.0000
_cell_angle_beta                  90.0000
_cell_angle_gamma                 90.0000
loop_
_atom_site_label
_atom_site_type_symbol
_atom_site_fract_x
_atom_site_fract_y
_atom_site_fract_z
_atom_site_U_iso_or_equiv
_atom_site_adp_type
_atom_site_occupancy
Zn1    Zn    0.83333  -0.00000   0.57877   0.01267  Uiso   1.00
Zn2    Zn    0.50000   0.57877   0.00000   0.01267  Uiso   1.00
Zn3    Zn    0.16667   0.42123   0.42123   0.01267  Uiso   1.00
H1     H     0.84370   0.81770   0.36750   0.01267  Uiso   1.00
H2     H     0.02330   0.05350   0.47250   0.01267  Uiso   1.00
H3     H     0.22050   0.05860   0.25110   0.01267  Uiso   1.00
H4     H     0.16380   0.95800   0.18240   0.01267  Uiso   1.00
H5     H     0.23260   0.97150   0.27200   0.01267  Uiso   1.00
H6     H     0.18430   0.19530   0.32730   0.01267  Uiso   1.00
H7     H     0.93440   0.37150   0.42940   0.01267  Uiso   1.00
H8     H     0.70200   0.28480   0.35180   0.01267  Uiso   1.00
H9     H     0.76720   0.37280   0.43440   0.01267  Uiso   1.00
H10    H     0.66600   0.33160   0.46180   0.01267  Uiso   1.00
H11    H     0.51037   0.54980   0.18230   0.01267  Uiso   1.00
H12    H     0.68997   0.41900   0.94650   0.01267  Uiso   1.00
H13    H     0.88717   0.19250   0.94140   0.01267  Uiso   1.00
H14    H     0.83047   0.22440   0.04200   0.01267  Uiso   1.00
H15    H     0.89927   0.30050   0.02850   0.01267  Uiso   1.00
H16    H     0.85097   0.13200   0.80470   0.01267  Uiso   1.00
H17    H     0.60107   0.05790   0.62850   0.01267  Uiso   1.00
H18    H     0.36867   0.06700   0.71520   0.01267  Uiso   1.00
H19    H     0.43387   0.06160   0.62720   0.01267  Uiso   1.00
H20    H     0.33267   0.13020   0.66840   0.01267  Uiso   1.00
H21    H     0.17703   0.63250   0.45020   0.01267  Uiso   1.00
H22    H     0.35663   0.52750   0.58100   0.01267  Uiso   1.00
H23    H     0.55383   0.74890   0.80750   0.01267  Uiso   1.00
H24    H     0.49713   0.81760   0.77560   0.01267  Uiso   1.00
H25    H     0.56593   0.72800   0.69950   0.01267  Uiso   1.00
H26    H     0.51763   0.67270   0.86800   0.01267  Uiso   1.00
H27    H     0.26773   0.57060   0.94210   0.01267  Uiso   1.00
H28    H     0.03533   0.64820   0.93300   0.01267  Uiso   1.00
H29    H     0.10053   0.56560   0.93840   0.01267  Uiso   1.00
H30    H     0.99933   0.53820   0.86980   0.01267  Uiso   1.00
H31    H     0.15630   0.45020   0.63250   0.01267  Uiso   1.00
H32    H     0.97670   0.58100   0.52750   0.01267  Uiso   1.00
H33    H     0.77950   0.80750   0.74890   0.01267  Uiso   1.00
H34    H     0.83620   0.77560   0.81760   0.01267  Uiso   1.00
H35    H     0.76740   0.69950   0.72800   0.01267  Uiso   1.00
H36    H     0.81570   0.86800   0.67270   0.01267  Uiso   1.00
H37    H     0.06560   0.94210   0.57060   0.01267  Uiso   1.00
H38    H     0.29800   0.93300   0.64820   0.01267  Uiso   1.00
H39    H     0.23280   0.93840   0.56560   0.01267  Uiso   1.00
H40    H     0.33400   0.86980   0.53820   0.01267  Uiso   1.00
H41    H     0.48963   0.36750   0.81770   0.01267  Uiso   1.00
H42    H     0.31003   0.47250   0.05350   0.01267  Uiso   1.00
H43    H     0.11283   0.25110   0.05860   0.01267  Uiso   1.00
H44    H     0.16953   0.18240   0.95800   0.01267  Uiso   1.00
H45    H     0.10073   0.27200   0.97150   0.01267  Uiso   1.00
H46    H     0.14903   0.32730   0.19530   0.01267  Uiso   1.00
H47    H     0.39893   0.42940   0.37150   0.01267  Uiso   1.00
H48    H     0.63133   0.35180   0.28480   0.01267  Uiso   1.00
H49    H     0.56613   0.43440   0.37280   0.01267  Uiso   1.00
H50    H     0.66733   0.46180   0.33160   0.01267  Uiso   1.00
H51    H     0.82297   0.18230   0.54980   0.01267  Uiso   1.00
H52    H     0.64337   0.94650   0.41900   0.01267  Uiso   1.00
H53    H     0.44617   0.94140   0.19250   0.01267  Uiso   1.00
H54    H     0.50287   0.04200   0.22440   0.01267  Uiso   1.00
H55    H     0.43407   0.02850   0.30050   0.01267  Uiso   1.00
H56    H     0.48237   0.80470   0.13200   0.01267  Uiso   1.00
H57    H     0.73227   0.62850   0.05790   0.01267  Uiso   1.00
H58    H     0.96467   0.71520   0.06700   0.01267  Uiso   1.00
H59    H     0.89947   0.62720   0.06160   0.01267  Uiso   1.00
H60    H     0.00067   0.66840   0.13020   0.01267  Uiso   1.00
C1     C     0.92080   0.83540   0.26430   0.01267  Uiso   1.00
C2     C     0.88990   0.85930   0.35880   0.01267  Uiso   1.00
C3     C     0.99480   0.99700   0.41970   0.01267  Uiso   1.00
C4     C     0.02380   0.97200   0.32510   0.01267  Uiso   1.00
C5     C     0.18460   0.00340   0.24880   0.01267  Uiso   1.00
C6     C     0.05010   0.13100   0.34530   0.01267  Uiso   1.00
C7     C     0.11300   0.20690   0.34840   0.01267  Uiso   1.00
C8     C     0.96590   0.31040   0.40810   0.01267  Uiso   1.00
C9     C     0.90410   0.23360   0.40410   0.01267  Uiso   1.00
C10    C     0.72700   0.31460   0.41860   0.01267  Uiso   1.00
C11    C     0.58747   0.42890   0.16460   0.01267  Uiso   1.00
C12    C     0.55657   0.49950   0.14070   0.01267  Uiso   1.00
C13    C     0.66147   0.42270   0.00300   0.01267  Uiso   1.00
C14    C     0.69047   0.35310   0.02800   0.01267  Uiso   1.00
C15    C     0.85127   0.24540   0.99660   0.01267  Uiso   1.00
C16    C     0.71677   0.21430   0.86900   0.01267  Uiso   1.00
C17    C     0.77967   0.14150   0.79310   0.01267  Uiso   1.00
C18    C     0.63257   0.09770   0.68960   0.01267  Uiso   1.00
C19    C     0.57077   0.17050   0.76640   0.01267  Uiso   1.00
C20    C     0.39367   0.10400   0.68540   0.01267  Uiso   1.00
C21    C     0.25413   0.73570   0.57110   0.01267  Uiso   1.00
C22    C     0.22323   0.64120   0.50050   0.01267  Uiso   1.00
C23    C     0.32813   0.58030   0.57730   0.01267  Uiso   1.00
C24    C     0.35713   0.67490   0.64690   0.01267  Uiso   1.00
C25    C     0.51793   0.75120   0.75460   0.01267  Uiso   1.00
C26    C     0.38343   0.65470   0.78570   0.01267  Uiso   1.00
C27    C     0.44633   0.65160   0.85850   0.01267  Uiso   1.00
C28    C     0.29923   0.59190   0.90230   0.01267  Uiso   1.00
C29    C     0.23743   0.59590   0.82950   0.01267  Uiso   1.00
C30    C     0.06033   0.58140   0.89600   0.01267  Uiso   1.00
C31    C     0.07920   0.57110   0.73570   0.01267  Uiso   1.00
C32    C     0.11010   0.50050   0.64120   0.01267  Uiso   1.00
C33    C     0.00520   0.57730   0.58030   0.01267  Uiso   1.00
C34    C     0.97620   0.64690   0.67490   0.01267  Uiso   1.00
C35    C     0.81540   0.75460   0.75120   0.01267  Uiso   1.00
C36    C     0.94990   0.78570   0.65470   0.01267  Uiso   1.00
C37    C     0.88700   0.85850   0.65160   0.01267  Uiso   1.00
C38    C     0.03410   0.90230   0.59190   0.01267  Uiso   1.00
C39    C     0.09590   0.82950   0.59590   0.01267  Uiso   1.00
C40    C     0.27300   0.89600   0.58140   0.01267  Uiso   1.00
C41    C     0.41253   0.26430   0.83540   0.01267  Uiso   1.00
C42    C     0.44343   0.35880   0.85930   0.01267  Uiso   1.00
C43    C     0.33853   0.41970   0.99700   0.01267  Uiso   1.00
C44    C     0.30953   0.32510   0.97200   0.01267  Uiso   1.00
C45    C     0.14873   0.24880   0.00340   0.01267  Uiso   1.00
C46    C     0.28323   0.34530   0.13100   0.01267  Uiso   1.00
C47    C     0.22033   0.34840   0.20690   0.01267  Uiso   1.00
C48    C     0.36743   0.40810   0.31040   0.01267  Uiso   1.00
C49    C     0.42923   0.40410   0.23360   0.01267  Uiso   1.00
C50    C     0.60633   0.41860   0.31460   0.01267  Uiso   1.00
C51    C     0.74587   0.16460   0.42890   0.01267  Uiso   1.00
C52    C     0.77677   0.14070   0.49950   0.01267  Uiso   1.00
C53    C     0.67187   0.00300   0.42270   0.01267  Uiso   1.00
C54    C     0.64287   0.02800   0.35310   0.01267  Uiso   1.00
C55    C     0.48207   0.99660   0.24540   0.01267  Uiso   1.00
C56    C     0.61657   0.86900   0.21430   0.01267  Uiso   1.00
C57    C     0.55367   0.79310   0.14150   0.01267  Uiso   1.00
C58    C     0.70077   0.68960   0.09770   0.01267  Uiso   1.00
C59    C     0.76257   0.76640   0.17050   0.01267  Uiso   1.00
C60    C     0.93967   0.68540   0.10400   0.01267  Uiso   1.00
N1     N     0.98930   0.89050   0.24690   0.01267  Uiso   1.00
N2     N     0.92550   0.94060   0.43690   0.01267  Uiso   1.00
N3     N     0.08980   0.03680   0.31030   0.01267  Uiso   1.00
N4     N     0.94640   0.14530   0.37300   0.01267  Uiso   1.00
N5     N     0.06920   0.29620   0.38170   0.01267  Uiso   1.00
N6     N     0.79600   0.24520   0.42980   0.01267  Uiso   1.00
N7     N     0.65597   0.35640   0.10950   0.01267  Uiso   1.00
N8     N     0.59217   0.49630   0.05940   0.01267  Uiso   1.00
N9     N     0.75647   0.27350   0.96320   0.01267  Uiso   1.00
N10    N     0.61307   0.22770   0.85470   0.01267  Uiso   1.00
N11    N     0.73587   0.08550   0.70380   0.01267  Uiso   1.00
N12    N     0.46267   0.18460   0.75480   0.01267  Uiso   1.00
N13    N     0.32263   0.75310   0.64360   0.01267  Uiso   1.00
N14    N     0.25883   0.56310   0.50370   0.01267  Uiso   1.00
N15    N     0.42313   0.68970   0.72650   0.01267  Uiso   1.00
N16    N     0.27973   0.62700   0.77230   0.01267  Uiso   1.00
N17    N     0.40253   0.61830   0.91450   0.01267  Uiso   1.00
N18    N     0.12933   0.57020   0.81540   0.01267  Uiso   1.00
N19    N     0.01070   0.64360   0.75310   0.01267  Uiso   1.00
N20    N     0.07450   0.50370   0.56310   0.01267  Uiso   1.00
N21    N     0.91020   0.72650   0.68970   0.01267  Uiso   1.00
N22    N     0.05360   0.77230   0.62700   0.01267  Uiso   1.00
N23    N     0.93080   0.91450   0.61830   0.01267  Uiso   1.00
N24    N     0.20400   0.81540   0.57020   0.01267  Uiso   1.00
N25    N     0.34403   0.24690   0.89050   0.01267  Uiso   1.00
N26    N     0.40783   0.43690   0.94060   0.01267  Uiso   1.00
N27    N     0.24353   0.31030   0.03680   0.01267  Uiso   1.00
N28    N     0.38693   0.37300   0.14530   0.01267  Uiso   1.00
N29    N     0.26413   0.38170   0.29620   0.01267  Uiso   1.00
N30    N     0.53733   0.42980   0.24520   0.01267  Uiso   1.00
N31    N     0.67737   0.10950   0.35640   0.01267  Uiso   1.00
N32    N     0.74117   0.05940   0.49630   0.01267  Uiso   1.00
N33    N     0.57687   0.96320   0.27350   0.01267  Uiso   1.00
N34    N     0.72027   0.85470   0.22770   0.01267  Uiso   1.00
N35    N     0.59747   0.70380   0.08550   0.01267  Uiso   1.00
N36    N     0.87067   0.75480   0.18460   0.01267  Uiso   1.00
