data_BASSOF_clean
_audit_creation_date              2014-07-02
_audit_creation_method            'Materials Studio'
_symmetry_space_group_name_H-M    'P1'
_symmetry_Int_Tables_number       1
_symmetry_cell_setting            triclinic
loop_
_symmetry_equiv_pos_as_xyz
  x,y,z
_cell_length_a                    8.4517
_cell_length_b                    25.3260
_cell_length_c                    17.7480
_cell_angle_alpha                 90.0000
_cell_angle_beta                  90.0000
_cell_angle_gamma                 90.0000
loop_
_atom_site_label
_atom_site_type_symbol
_atom_site_fract_x
_atom_site_fract_y
_atom_site_fract_z
_atom_site_U_iso_or_equiv
_atom_site_adp_type
_atom_site_occupancy
Dy1    Dy    0.66544   0.47616   0.78230   0.01267  Uiso   1.00
Dy2    Dy    0.16544   0.52384   0.71770   0.01267  Uiso   1.00
Dy3    Dy    0.16544   0.97616   0.21769   0.01267  Uiso   1.00
Dy4    Dy    0.66544   0.02384   0.28230   0.01267  Uiso   1.00
Ag1    Ag    0.46203   0.22732   0.55003   0.01267  Uiso   1.00
Ag2    Ag    0.96203   0.77268   0.94997   0.01267  Uiso   1.00
Ag3    Ag    0.96203   0.72732   0.44997   0.01267  Uiso   1.00
Ag4    Ag    0.46203   0.27268   0.05003   0.01267  Uiso   1.00
H1     H     0.05900   0.40400   0.14250   0.01267  Uiso   1.00
H2     H     0.71290   0.37100   0.39420   0.01267  Uiso   1.00
H3     H     0.96440   0.45510   0.00790   0.01267  Uiso   1.00
H4     H     0.24860   0.33910   0.17440   0.01267  Uiso   1.00
H5     H     0.40270   0.36110   0.91780   0.01267  Uiso   1.00
H6     H     0.69170   0.29810   0.66000   0.01267  Uiso   1.00
H7     H     0.55300   0.29580   0.40030   0.01267  Uiso   1.00
H8     H     0.88050   0.43420   0.50290   0.01267  Uiso   1.00
H9     H     0.55900   0.59600   0.35750   0.01267  Uiso   1.00
H10    H     0.21290   0.62900   0.10580   0.01267  Uiso   1.00
H11    H     0.46440   0.54490   0.49210   0.01267  Uiso   1.00
H12    H     0.74860   0.66090   0.32560   0.01267  Uiso   1.00
H13    H     0.90270   0.63890   0.58220   0.01267  Uiso   1.00
H14    H     0.19170   0.70190   0.84000   0.01267  Uiso   1.00
H15    H     0.05300   0.70420   0.09970   0.01267  Uiso   1.00
H16    H     0.38050   0.56580   0.99710   0.01267  Uiso   1.00
H17    H     0.55900   0.90400   0.85750   0.01267  Uiso   1.00
H18    H     0.21290   0.87100   0.60580   0.01267  Uiso   1.00
H19    H     0.46440   0.95510   0.99210   0.01267  Uiso   1.00
H20    H     0.74860   0.83910   0.82560   0.01267  Uiso   1.00
H21    H     0.90270   0.86110   0.08220   0.01267  Uiso   1.00
H22    H     0.19170   0.79810   0.34000   0.01267  Uiso   1.00
H23    H     0.05300   0.79580   0.59970   0.01267  Uiso   1.00
H24    H     0.38050   0.93420   0.49710   0.01267  Uiso   1.00
H25    H     0.05900   0.09600   0.64250   0.01267  Uiso   1.00
H26    H     0.71290   0.12900   0.89420   0.01267  Uiso   1.00
H27    H     0.96440   0.04490   0.50790   0.01267  Uiso   1.00
H28    H     0.24860   0.16090   0.67440   0.01267  Uiso   1.00
H29    H     0.40270   0.13890   0.41780   0.01267  Uiso   1.00
H30    H     0.69170   0.20190   0.16000   0.01267  Uiso   1.00
H31    H     0.55300   0.20420   0.90030   0.01267  Uiso   1.00
H32    H     0.88050   0.06580   0.00290   0.01267  Uiso   1.00
C1     C     0.01030   0.48246   0.87069   0.01267  Uiso   1.00
C2     C     0.10570   0.44443   0.91661   0.01267  Uiso   1.00
C3     C     0.05360   0.43753   0.99017   0.01267  Uiso   1.00
C4     C     0.13880   0.40364   0.03630   0.01267  Uiso   1.00
C5     C     0.23340   0.35368   0.12680   0.01267  Uiso   1.00
C6     C     0.26210   0.37280   0.00850   0.01267  Uiso   1.00
C7     C     0.31710   0.38033   0.93600   0.01267  Uiso   1.00
C8     C     0.24170   0.41723   0.89108   0.01267  Uiso   1.00
C9     C     0.30980   0.42622   0.81350   0.01267  Uiso   1.00
C10    C     0.84930   0.36563   0.74210   0.01267  Uiso   1.00
C11    C     0.81160   0.36774   0.65900   0.01267  Uiso   1.00
C12    C     0.72540   0.32570   0.62935   0.01267  Uiso   1.00
C13    C     0.69130   0.32604   0.55290   0.01267  Uiso   1.00
C14    C     0.60520   0.31113   0.44090   0.01267  Uiso   1.00
C15    C     0.75060   0.36570   0.50520   0.01267  Uiso   1.00
C16    C     0.84070   0.40792   0.53430   0.01267  Uiso   1.00
C17    C     0.86770   0.40890   0.61140   0.01267  Uiso   1.00
C18    C     0.95220   0.45430   0.64480   0.01267  Uiso   1.00
C19    C     0.51030   0.51754   0.62931   0.01267  Uiso   1.00
C20    C     0.60570   0.55557   0.58339   0.01267  Uiso   1.00
C21    C     0.55360   0.56247   0.50983   0.01267  Uiso   1.00
C22    C     0.63880   0.59636   0.46370   0.01267  Uiso   1.00
C23    C     0.73340   0.64632   0.37320   0.01267  Uiso   1.00
C24    C     0.76210   0.62720   0.49150   0.01267  Uiso   1.00
C25    C     0.81710   0.61967   0.56400   0.01267  Uiso   1.00
C26    C     0.74170   0.58277   0.60892   0.01267  Uiso   1.00
C27    C     0.80980   0.57378   0.68650   0.01267  Uiso   1.00
C28    C     0.34930   0.63437   0.75790   0.01267  Uiso   1.00
C29    C     0.31160   0.63226   0.84100   0.01267  Uiso   1.00
C30    C     0.22540   0.67430   0.87065   0.01267  Uiso   1.00
C31    C     0.19130   0.67396   0.94710   0.01267  Uiso   1.00
C32    C     0.10520   0.68887   0.05910   0.01267  Uiso   1.00
C33    C     0.25060   0.63430   0.99480   0.01267  Uiso   1.00
C34    C     0.34070   0.59208   0.96570   0.01267  Uiso   1.00
C35    C     0.36770   0.59110   0.88860   0.01267  Uiso   1.00
C36    C     0.45220   0.54570   0.85520   0.01267  Uiso   1.00
C37    C     0.51030   0.98246   0.12931   0.01267  Uiso   1.00
C38    C     0.60570   0.94443   0.08339   0.01267  Uiso   1.00
C39    C     0.55360   0.93753   0.00983   0.01267  Uiso   1.00
C40    C     0.63880   0.90364   0.96370   0.01267  Uiso   1.00
C41    C     0.73340   0.85368   0.87320   0.01267  Uiso   1.00
C42    C     0.76210   0.87280   0.99150   0.01267  Uiso   1.00
C43    C     0.81710   0.88033   0.06400   0.01267  Uiso   1.00
C44    C     0.74170   0.91723   0.10892   0.01267  Uiso   1.00
C45    C     0.80980   0.92622   0.18650   0.01267  Uiso   1.00
C46    C     0.34930   0.86563   0.25790   0.01267  Uiso   1.00
C47    C     0.31160   0.86774   0.34100   0.01267  Uiso   1.00
C48    C     0.22540   0.82570   0.37065   0.01267  Uiso   1.00
C49    C     0.19130   0.82604   0.44710   0.01267  Uiso   1.00
C50    C     0.10520   0.81113   0.55910   0.01267  Uiso   1.00
C51    C     0.25060   0.86570   0.49480   0.01267  Uiso   1.00
C52    C     0.34070   0.90792   0.46570   0.01267  Uiso   1.00
C53    C     0.36770   0.90890   0.38860   0.01267  Uiso   1.00
C54    C     0.45220   0.95430   0.35520   0.01267  Uiso   1.00
C55    C     0.01030   0.01754   0.37069   0.01267  Uiso   1.00
C56    C     0.10570   0.05557   0.41661   0.01267  Uiso   1.00
C57    C     0.05360   0.06247   0.49017   0.01267  Uiso   1.00
C58    C     0.13880   0.09636   0.53630   0.01267  Uiso   1.00
C59    C     0.23340   0.14632   0.62680   0.01267  Uiso   1.00
C60    C     0.26210   0.12720   0.50850   0.01267  Uiso   1.00
C61    C     0.31710   0.11967   0.43600   0.01267  Uiso   1.00
C62    C     0.24170   0.08277   0.39108   0.01267  Uiso   1.00
C63    C     0.30980   0.07378   0.31350   0.01267  Uiso   1.00
C64    C     0.84930   0.13437   0.24210   0.01267  Uiso   1.00
C65    C     0.81160   0.13226   0.15900   0.01267  Uiso   1.00
C66    C     0.72540   0.17430   0.12935   0.01267  Uiso   1.00
C67    C     0.69130   0.17396   0.05290   0.01267  Uiso   1.00
C68    C     0.60520   0.18887   0.94090   0.01267  Uiso   1.00
C69    C     0.75060   0.13430   0.00520   0.01267  Uiso   1.00
C70    C     0.84070   0.09208   0.03430   0.01267  Uiso   1.00
C71    C     0.86770   0.09110   0.11140   0.01267  Uiso   1.00
C72    C     0.95220   0.04570   0.14480   0.01267  Uiso   1.00
N1     N     0.12540   0.39066   0.11113   0.01267  Uiso   1.00
N2     N     0.31650   0.34021   0.06603   0.01267  Uiso   1.00
N3     N     0.59770   0.29215   0.51054   0.01267  Uiso   1.00
N4     N     0.69400   0.35377   0.43495   0.01267  Uiso   1.00
N5     N     0.62540   0.60934   0.38887   0.01267  Uiso   1.00
N6     N     0.81650   0.65979   0.43397   0.01267  Uiso   1.00
N7     N     0.09770   0.70785   0.98946   0.01267  Uiso   1.00
N8     N     0.19400   0.64623   0.06505   0.01267  Uiso   1.00
N9     N     0.62540   0.89066   0.88887   0.01267  Uiso   1.00
N10    N     0.81650   0.84021   0.93397   0.01267  Uiso   1.00
N11    N     0.09770   0.79215   0.48946   0.01267  Uiso   1.00
N12    N     0.19400   0.85377   0.56505   0.01267  Uiso   1.00
N13    N     0.12540   0.10934   0.61113   0.01267  Uiso   1.00
N14    N     0.31650   0.15979   0.56603   0.01267  Uiso   1.00
N15    N     0.59770   0.20785   0.01054   0.01267  Uiso   1.00
N16    N     0.69400   0.14623   0.93495   0.01267  Uiso   1.00
O1     O     0.86470   0.47572   0.87117   0.01267  Uiso   1.00
O2     O     0.07750   0.52186   0.83891   0.01267  Uiso   1.00
O3     O     0.22260   0.44061   0.75981   0.01267  Uiso   1.00
O4     O     0.45790   0.41927   0.80714   0.01267  Uiso   1.00
O5     O     0.74980   0.38950   0.78555   0.01267  Uiso   1.00
O6     O     0.96010   0.33926   0.76506   0.01267  Uiso   1.00
O7     O     0.91220   0.46974   0.71108   0.01267  Uiso   1.00
O8     O     0.06350   0.47635   0.61143   0.01267  Uiso   1.00
O9     O     0.36470   0.52428   0.62883   0.01267  Uiso   1.00
O10    O     0.57750   0.47814   0.66109   0.01267  Uiso   1.00
O11    O     0.72260   0.55939   0.74019   0.01267  Uiso   1.00
O12    O     0.95790   0.58073   0.69286   0.01267  Uiso   1.00
O13    O     0.24980   0.61050   0.71445   0.01267  Uiso   1.00
O14    O     0.46010   0.66074   0.73494   0.01267  Uiso   1.00
O15    O     0.41220   0.53026   0.78892   0.01267  Uiso   1.00
O16    O     0.56350   0.52365   0.88857   0.01267  Uiso   1.00
O17    O     0.36470   0.97572   0.12883   0.01267  Uiso   1.00
O18    O     0.57750   0.02186   0.16109   0.01267  Uiso   1.00
O19    O     0.72260   0.94061   0.24019   0.01267  Uiso   1.00
O20    O     0.95790   0.91927   0.19286   0.01267  Uiso   1.00
O21    O     0.24980   0.88950   0.21445   0.01267  Uiso   1.00
O22    O     0.46010   0.83926   0.23494   0.01267  Uiso   1.00
O23    O     0.41220   0.96974   0.28892   0.01267  Uiso   1.00
O24    O     0.56350   0.97635   0.38857   0.01267  Uiso   1.00
O25    O     0.86470   0.02428   0.37117   0.01267  Uiso   1.00
O26    O     0.07750   0.97814   0.33891   0.01267  Uiso   1.00
O27    O     0.22260   0.05939   0.25981   0.01267  Uiso   1.00
O28    O     0.45790   0.08073   0.30714   0.01267  Uiso   1.00
O29    O     0.74980   0.11050   0.28555   0.01267  Uiso   1.00
O30    O     0.96010   0.16074   0.26506   0.01267  Uiso   1.00
O31    O     0.91220   0.03026   0.21108   0.01267  Uiso   1.00
O32    O     0.06350   0.02365   0.11143   0.01267  Uiso   1.00
Dy5    Dy    0.83456   0.02384   0.78230   0.01267  Uiso   1.00
Dy6    Dy    0.33456   0.97616   0.71770   0.01267  Uiso   1.00
Dy7    Dy    0.33456   0.52384   0.21769   0.01267  Uiso   1.00
Dy8    Dy    0.83456   0.47616   0.28230   0.01267  Uiso   1.00
Ag5    Ag    0.03797   0.27268   0.55003   0.01267  Uiso   1.00
Ag6    Ag    0.53797   0.72732   0.94997   0.01267  Uiso   1.00
Ag7    Ag    0.53797   0.77268   0.44997   0.01267  Uiso   1.00
Ag8    Ag    0.03797   0.22732   0.05003   0.01267  Uiso   1.00
H33    H     0.44100   0.09600   0.14250   0.01267  Uiso   1.00
H34    H     0.78710   0.12900   0.39420   0.01267  Uiso   1.00
H35    H     0.53560   0.04490   0.00790   0.01267  Uiso   1.00
H36    H     0.25140   0.16090   0.17440   0.01267  Uiso   1.00
H37    H     0.09730   0.13890   0.91780   0.01267  Uiso   1.00
H38    H     0.80830   0.20190   0.66000   0.01267  Uiso   1.00
H39    H     0.94700   0.20420   0.40030   0.01267  Uiso   1.00
H40    H     0.61950   0.06580   0.50290   0.01267  Uiso   1.00
H41    H     0.94100   0.90400   0.35750   0.01267  Uiso   1.00
H42    H     0.28710   0.87100   0.10580   0.01267  Uiso   1.00
H43    H     0.03560   0.95510   0.49210   0.01267  Uiso   1.00
H44    H     0.75140   0.83910   0.32560   0.01267  Uiso   1.00
H45    H     0.59730   0.86110   0.58220   0.01267  Uiso   1.00
H46    H     0.30830   0.79810   0.84000   0.01267  Uiso   1.00
H47    H     0.44700   0.79580   0.09970   0.01267  Uiso   1.00
H48    H     0.11950   0.93420   0.99710   0.01267  Uiso   1.00
H49    H     0.94100   0.59600   0.85750   0.01267  Uiso   1.00
H50    H     0.28710   0.62900   0.60580   0.01267  Uiso   1.00
H51    H     0.03560   0.54490   0.99210   0.01267  Uiso   1.00
H52    H     0.75140   0.66090   0.82560   0.01267  Uiso   1.00
H53    H     0.59730   0.63890   0.08220   0.01267  Uiso   1.00
H54    H     0.30830   0.70190   0.34000   0.01267  Uiso   1.00
H55    H     0.44700   0.70420   0.59970   0.01267  Uiso   1.00
H56    H     0.11950   0.56580   0.49710   0.01267  Uiso   1.00
H57    H     0.44100   0.40400   0.64250   0.01267  Uiso   1.00
H58    H     0.78710   0.37100   0.89420   0.01267  Uiso   1.00
H59    H     0.53560   0.45510   0.50790   0.01267  Uiso   1.00
H60    H     0.25140   0.33910   0.67440   0.01267  Uiso   1.00
H61    H     0.09730   0.36110   0.41780   0.01267  Uiso   1.00
H62    H     0.80830   0.29810   0.16000   0.01267  Uiso   1.00
H63    H     0.94700   0.29580   0.90030   0.01267  Uiso   1.00
H64    H     0.61950   0.43420   0.00290   0.01267  Uiso   1.00
C73    C     0.48970   0.01754   0.87069   0.01267  Uiso   1.00
C74    C     0.39430   0.05557   0.91661   0.01267  Uiso   1.00
C75    C     0.44640   0.06247   0.99017   0.01267  Uiso   1.00
C76    C     0.36120   0.09636   0.03630   0.01267  Uiso   1.00
C77    C     0.26660   0.14632   0.12680   0.01267  Uiso   1.00
C78    C     0.23790   0.12720   0.00850   0.01267  Uiso   1.00
C79    C     0.18290   0.11967   0.93600   0.01267  Uiso   1.00
C80    C     0.25830   0.08277   0.89108   0.01267  Uiso   1.00
C81    C     0.19020   0.07378   0.81350   0.01267  Uiso   1.00
C82    C     0.65070   0.13437   0.74210   0.01267  Uiso   1.00
C83    C     0.68840   0.13226   0.65900   0.01267  Uiso   1.00
C84    C     0.77460   0.17430   0.62935   0.01267  Uiso   1.00
C85    C     0.80870   0.17396   0.55290   0.01267  Uiso   1.00
C86    C     0.89480   0.18887   0.44090   0.01267  Uiso   1.00
C87    C     0.74940   0.13430   0.50520   0.01267  Uiso   1.00
C88    C     0.65930   0.09208   0.53430   0.01267  Uiso   1.00
C89    C     0.63230   0.09110   0.61140   0.01267  Uiso   1.00
C90    C     0.54780   0.04570   0.64480   0.01267  Uiso   1.00
C91    C     0.98970   0.98246   0.62931   0.01267  Uiso   1.00
C92    C     0.89430   0.94443   0.58339   0.01267  Uiso   1.00
C93    C     0.94640   0.93753   0.50983   0.01267  Uiso   1.00
C94    C     0.86120   0.90364   0.46370   0.01267  Uiso   1.00
C95    C     0.76660   0.85368   0.37320   0.01267  Uiso   1.00
C96    C     0.73790   0.87280   0.49150   0.01267  Uiso   1.00
C97    C     0.68290   0.88033   0.56400   0.01267  Uiso   1.00
C98    C     0.75830   0.91723   0.60892   0.01267  Uiso   1.00
C99    C     0.69020   0.92622   0.68650   0.01267  Uiso   1.00
C100   C     0.15070   0.86563   0.75790   0.01267  Uiso   1.00
C101   C     0.18840   0.86774   0.84100   0.01267  Uiso   1.00
C102   C     0.27460   0.82570   0.87065   0.01267  Uiso   1.00
C103   C     0.30870   0.82604   0.94710   0.01267  Uiso   1.00
C104   C     0.39480   0.81113   0.05910   0.01267  Uiso   1.00
C105   C     0.24940   0.86570   0.99480   0.01267  Uiso   1.00
C106   C     0.15930   0.90792   0.96570   0.01267  Uiso   1.00
C107   C     0.13230   0.90890   0.88860   0.01267  Uiso   1.00
C108   C     0.04780   0.95430   0.85520   0.01267  Uiso   1.00
C109   C     0.98970   0.51754   0.12931   0.01267  Uiso   1.00
C110   C     0.89430   0.55557   0.08339   0.01267  Uiso   1.00
C111   C     0.94640   0.56247   0.00983   0.01267  Uiso   1.00
C112   C     0.86120   0.59636   0.96370   0.01267  Uiso   1.00
C113   C     0.76660   0.64632   0.87320   0.01267  Uiso   1.00
C114   C     0.73790   0.62720   0.99150   0.01267  Uiso   1.00
C115   C     0.68290   0.61967   0.06400   0.01267  Uiso   1.00
C116   C     0.75830   0.58277   0.10892   0.01267  Uiso   1.00
C117   C     0.69020   0.57378   0.18650   0.01267  Uiso   1.00
C118   C     0.15070   0.63437   0.25790   0.01267  Uiso   1.00
C119   C     0.18840   0.63226   0.34100   0.01267  Uiso   1.00
C120   C     0.27460   0.67430   0.37065   0.01267  Uiso   1.00
C121   C     0.30870   0.67396   0.44710   0.01267  Uiso   1.00
C122   C     0.39480   0.68887   0.55910   0.01267  Uiso   1.00
C123   C     0.24940   0.63430   0.49480   0.01267  Uiso   1.00
C124   C     0.15930   0.59208   0.46570   0.01267  Uiso   1.00
C125   C     0.13230   0.59110   0.38860   0.01267  Uiso   1.00
C126   C     0.04780   0.54570   0.35520   0.01267  Uiso   1.00
C127   C     0.48970   0.48246   0.37069   0.01267  Uiso   1.00
C128   C     0.39430   0.44443   0.41661   0.01267  Uiso   1.00
C129   C     0.44640   0.43753   0.49017   0.01267  Uiso   1.00
C130   C     0.36120   0.40364   0.53630   0.01267  Uiso   1.00
C131   C     0.26660   0.35368   0.62680   0.01267  Uiso   1.00
C132   C     0.23790   0.37280   0.50850   0.01267  Uiso   1.00
C133   C     0.18290   0.38033   0.43600   0.01267  Uiso   1.00
C134   C     0.25830   0.41723   0.39108   0.01267  Uiso   1.00
C135   C     0.19020   0.42622   0.31350   0.01267  Uiso   1.00
C136   C     0.65070   0.36563   0.24210   0.01267  Uiso   1.00
C137   C     0.68840   0.36774   0.15900   0.01267  Uiso   1.00
C138   C     0.77460   0.32570   0.12935   0.01267  Uiso   1.00
C139   C     0.80870   0.32604   0.05290   0.01267  Uiso   1.00
C140   C     0.89480   0.31113   0.94090   0.01267  Uiso   1.00
C141   C     0.74940   0.36570   0.00520   0.01267  Uiso   1.00
C142   C     0.65930   0.40792   0.03430   0.01267  Uiso   1.00
C143   C     0.63230   0.40890   0.11140   0.01267  Uiso   1.00
C144   C     0.54780   0.45430   0.14480   0.01267  Uiso   1.00
N17    N     0.37460   0.10934   0.11113   0.01267  Uiso   1.00
N18    N     0.18350   0.15979   0.06603   0.01267  Uiso   1.00
N19    N     0.90230   0.20785   0.51054   0.01267  Uiso   1.00
N20    N     0.80600   0.14623   0.43495   0.01267  Uiso   1.00
N21    N     0.87460   0.89066   0.38887   0.01267  Uiso   1.00
N22    N     0.68350   0.84021   0.43397   0.01267  Uiso   1.00
N23    N     0.40230   0.79215   0.98946   0.01267  Uiso   1.00
N24    N     0.30600   0.85377   0.06505   0.01267  Uiso   1.00
N25    N     0.87460   0.60934   0.88887   0.01267  Uiso   1.00
N26    N     0.68350   0.65979   0.93397   0.01267  Uiso   1.00
N27    N     0.40230   0.70785   0.48946   0.01267  Uiso   1.00
N28    N     0.30600   0.64623   0.56505   0.01267  Uiso   1.00
N29    N     0.37460   0.39066   0.61113   0.01267  Uiso   1.00
N30    N     0.18350   0.34021   0.56603   0.01267  Uiso   1.00
N31    N     0.90230   0.29215   0.01054   0.01267  Uiso   1.00
N32    N     0.80600   0.35377   0.93495   0.01267  Uiso   1.00
O33    O     0.63530   0.02428   0.87117   0.01267  Uiso   1.00
O34    O     0.42250   0.97814   0.83891   0.01267  Uiso   1.00
O35    O     0.27740   0.05939   0.75981   0.01267  Uiso   1.00
O36    O     0.04210   0.08073   0.80714   0.01267  Uiso   1.00
O37    O     0.75020   0.11050   0.78555   0.01267  Uiso   1.00
O38    O     0.53990   0.16074   0.76506   0.01267  Uiso   1.00
O39    O     0.58780   0.03026   0.71108   0.01267  Uiso   1.00
O40    O     0.43650   0.02365   0.61143   0.01267  Uiso   1.00
O41    O     0.13530   0.97572   0.62883   0.01267  Uiso   1.00
O42    O     0.92250   0.02186   0.66109   0.01267  Uiso   1.00
O43    O     0.77740   0.94061   0.74019   0.01267  Uiso   1.00
O44    O     0.54210   0.91927   0.69286   0.01267  Uiso   1.00
O45    O     0.25020   0.88950   0.71445   0.01267  Uiso   1.00
O46    O     0.03990   0.83926   0.73494   0.01267  Uiso   1.00
O47    O     0.08780   0.96974   0.78892   0.01267  Uiso   1.00
O48    O     0.93650   0.97635   0.88857   0.01267  Uiso   1.00
O49    O     0.13530   0.52428   0.12883   0.01267  Uiso   1.00
O50    O     0.92250   0.47814   0.16109   0.01267  Uiso   1.00
O51    O     0.77740   0.55939   0.24019   0.01267  Uiso   1.00
O52    O     0.54210   0.58073   0.19286   0.01267  Uiso   1.00
O53    O     0.25020   0.61050   0.21445   0.01267  Uiso   1.00
O54    O     0.03990   0.66074   0.23494   0.01267  Uiso   1.00
O55    O     0.08780   0.53026   0.28892   0.01267  Uiso   1.00
O56    O     0.93650   0.52365   0.38857   0.01267  Uiso   1.00
O57    O     0.63530   0.47572   0.37117   0.01267  Uiso   1.00
O58    O     0.42250   0.52186   0.33891   0.01267  Uiso   1.00
O59    O     0.27740   0.44061   0.25981   0.01267  Uiso   1.00
O60    O     0.04210   0.41927   0.30714   0.01267  Uiso   1.00
O61    O     0.75020   0.38950   0.28555   0.01267  Uiso   1.00
O62    O     0.53990   0.33926   0.26506   0.01267  Uiso   1.00
O63    O     0.58780   0.46974   0.21108   0.01267  Uiso   1.00
O64    O     0.43650   0.47635   0.11143   0.01267  Uiso   1.00
