data_BASSUL_clean
_audit_creation_date              2014-07-02
_audit_creation_method            'Materials Studio'
_symmetry_space_group_name_H-M    'P1'
_symmetry_Int_Tables_number       1
_symmetry_cell_setting            triclinic
loop_
_symmetry_equiv_pos_as_xyz
  x,y,z
_cell_length_a                    8.4759
_cell_length_b                    25.2850
_cell_length_c                    17.7650
_cell_angle_alpha                 90.0000
_cell_angle_beta                  90.0000
_cell_angle_gamma                 90.0000
loop_
_atom_site_label
_atom_site_type_symbol
_atom_site_fract_x
_atom_site_fract_y
_atom_site_fract_z
_atom_site_U_iso_or_equiv
_atom_site_adp_type
_atom_site_occupancy
Er1    Er    0.16669   0.02325   0.28237   0.01267  Uiso   1.00
Er2    Er    0.66669   0.97675   0.21763   0.01267  Uiso   1.00
Er3    Er    0.66669   0.52325   0.71763   0.01267  Uiso   1.00
Er4    Er    0.16669   0.47675   0.78237   0.01267  Uiso   1.00
Ag1    Ag    0.46143   0.72767   0.45213   0.01267  Uiso   1.00
Ag2    Ag    0.96143   0.27233   0.04787   0.01267  Uiso   1.00
Ag3    Ag    0.96143   0.22767   0.54787   0.01267  Uiso   1.00
Ag4    Ag    0.46143   0.77233   0.95213   0.01267  Uiso   1.00
H1     H     0.68570   0.79820   0.34090   0.01267  Uiso   1.00
H2     H     0.56030   0.09660   0.64230   0.01267  Uiso   1.00
H3     H     0.74400   0.16370   0.67210   0.01267  Uiso   1.00
H4     H     0.89960   0.14060   0.41710   0.01267  Uiso   1.00
H5     H     0.46600   0.04510   0.50840   0.01267  Uiso   1.00
H6     H     0.72290   0.86950   0.60660   0.01267  Uiso   1.00
H7     H     0.88650   0.93270   0.49660   0.01267  Uiso   1.00
H8     H     0.55910   0.79440   0.60140   0.01267  Uiso   1.00
H9     H     0.18570   0.20180   0.15910   0.01267  Uiso   1.00
H10    H     0.06030   0.90340   0.85770   0.01267  Uiso   1.00
H11    H     0.24400   0.83630   0.82790   0.01267  Uiso   1.00
H12    H     0.39960   0.85940   0.08290   0.01267  Uiso   1.00
H13    H     0.96600   0.95490   0.99160   0.01267  Uiso   1.00
H14    H     0.22290   0.13050   0.89340   0.01267  Uiso   1.00
H15    H     0.38650   0.06730   0.00340   0.01267  Uiso   1.00
H16    H     0.05910   0.20560   0.89860   0.01267  Uiso   1.00
H17    H     0.18570   0.29820   0.65910   0.01267  Uiso   1.00
H18    H     0.06030   0.59660   0.35770   0.01267  Uiso   1.00
H19    H     0.24400   0.66370   0.32790   0.01267  Uiso   1.00
H20    H     0.39960   0.64060   0.58290   0.01267  Uiso   1.00
H21    H     0.96600   0.54510   0.49160   0.01267  Uiso   1.00
H22    H     0.22290   0.36950   0.39340   0.01267  Uiso   1.00
H23    H     0.38650   0.43270   0.50340   0.01267  Uiso   1.00
H24    H     0.05910   0.29440   0.39860   0.01267  Uiso   1.00
H25    H     0.68570   0.70180   0.84090   0.01267  Uiso   1.00
H26    H     0.56030   0.40340   0.14230   0.01267  Uiso   1.00
H27    H     0.74400   0.33630   0.17210   0.01267  Uiso   1.00
H28    H     0.89960   0.35940   0.91710   0.01267  Uiso   1.00
H29    H     0.46600   0.45490   0.00840   0.01267  Uiso   1.00
H30    H     0.72290   0.63050   0.10660   0.01267  Uiso   1.00
H31    H     0.88650   0.56730   0.99660   0.01267  Uiso   1.00
H32    H     0.55910   0.70560   0.10140   0.01267  Uiso   1.00
C1     C     0.95360   0.95330   0.35390   0.01267  Uiso   1.00
C2     C     0.86630   0.90770   0.38800   0.01267  Uiso   1.00
C3     C     0.80880   0.86630   0.34080   0.01267  Uiso   1.00
C4     C     0.72270   0.82550   0.37130   0.01267  Uiso   1.00
C5     C     0.84140   0.86390   0.25700   0.01267  Uiso   1.00
C6     C     0.51040   0.01760   0.37060   0.01267  Uiso   1.00
C7     C     0.81140   0.07330   0.31440   0.01267  Uiso   1.00
C8     C     0.74120   0.08360   0.38950   0.01267  Uiso   1.00
C9     C     0.73100   0.14820   0.62510   0.01267  Uiso   1.00
C10    C     0.81510   0.12080   0.43510   0.01267  Uiso   1.00
C11    C     0.60460   0.05600   0.41620   0.01267  Uiso   1.00
C12    C     0.63770   0.09670   0.53580   0.01267  Uiso   1.00
C13    C     0.55410   0.06292   0.49030   0.01267  Uiso   1.00
C14    C     0.84410   0.90680   0.46540   0.01267  Uiso   1.00
C15    C     0.69170   0.82560   0.44830   0.01267  Uiso   1.00
C16    C     0.75980   0.12782   0.50810   0.01267  Uiso   1.00
C17    C     0.75480   0.86510   0.49410   0.01267  Uiso   1.00
C18    C     0.61000   0.80980   0.56060   0.01267  Uiso   1.00
C19    C     0.45360   0.04670   0.14610   0.01267  Uiso   1.00
C20    C     0.36630   0.09230   0.11200   0.01267  Uiso   1.00
C21    C     0.30880   0.13370   0.15920   0.01267  Uiso   1.00
C22    C     0.22270   0.17450   0.12870   0.01267  Uiso   1.00
C23    C     0.34140   0.13610   0.24300   0.01267  Uiso   1.00
C24    C     0.01040   0.98240   0.12940   0.01267  Uiso   1.00
C25    C     0.31140   0.92670   0.18560   0.01267  Uiso   1.00
C26    C     0.24120   0.91640   0.11050   0.01267  Uiso   1.00
C27    C     0.23100   0.85180   0.87490   0.01267  Uiso   1.00
C28    C     0.31510   0.87920   0.06490   0.01267  Uiso   1.00
C29    C     0.10460   0.94400   0.08380   0.01267  Uiso   1.00
C30    C     0.13770   0.90330   0.96420   0.01267  Uiso   1.00
C31    C     0.05410   0.93708   0.00970   0.01267  Uiso   1.00
C32    C     0.34410   0.09320   0.03460   0.01267  Uiso   1.00
C33    C     0.19170   0.17440   0.05170   0.01267  Uiso   1.00
C34    C     0.25980   0.87218   0.99190   0.01267  Uiso   1.00
C35    C     0.25480   0.13490   0.00590   0.01267  Uiso   1.00
C36    C     0.11000   0.19020   0.93940   0.01267  Uiso   1.00
C37    C     0.45360   0.45330   0.64610   0.01267  Uiso   1.00
C38    C     0.36630   0.40770   0.61200   0.01267  Uiso   1.00
C39    C     0.30880   0.36630   0.65920   0.01267  Uiso   1.00
C40    C     0.22270   0.32550   0.62870   0.01267  Uiso   1.00
C41    C     0.34140   0.36390   0.74300   0.01267  Uiso   1.00
C42    C     0.01040   0.51760   0.62940   0.01267  Uiso   1.00
C43    C     0.31140   0.57330   0.68560   0.01267  Uiso   1.00
C44    C     0.24120   0.58360   0.61050   0.01267  Uiso   1.00
C45    C     0.23100   0.64820   0.37490   0.01267  Uiso   1.00
C46    C     0.31510   0.62080   0.56490   0.01267  Uiso   1.00
C47    C     0.10460   0.55600   0.58380   0.01267  Uiso   1.00
C48    C     0.13770   0.59670   0.46420   0.01267  Uiso   1.00
C49    C     0.05410   0.56292   0.50970   0.01267  Uiso   1.00
C50    C     0.34410   0.40680   0.53460   0.01267  Uiso   1.00
C51    C     0.19170   0.32560   0.55170   0.01267  Uiso   1.00
C52    C     0.25980   0.62782   0.49190   0.01267  Uiso   1.00
C53    C     0.25480   0.36510   0.50590   0.01267  Uiso   1.00
C54    C     0.11000   0.30980   0.43940   0.01267  Uiso   1.00
C55    C     0.95360   0.54670   0.85390   0.01267  Uiso   1.00
C56    C     0.86630   0.59230   0.88800   0.01267  Uiso   1.00
C57    C     0.80880   0.63370   0.84080   0.01267  Uiso   1.00
C58    C     0.72270   0.67450   0.87130   0.01267  Uiso   1.00
C59    C     0.84140   0.63610   0.75700   0.01267  Uiso   1.00
C60    C     0.51040   0.48240   0.87060   0.01267  Uiso   1.00
C61    C     0.81140   0.42670   0.81440   0.01267  Uiso   1.00
C62    C     0.74120   0.41640   0.88950   0.01267  Uiso   1.00
C63    C     0.73100   0.35180   0.12510   0.01267  Uiso   1.00
C64    C     0.81510   0.37920   0.93510   0.01267  Uiso   1.00
C65    C     0.60460   0.44400   0.91620   0.01267  Uiso   1.00
C66    C     0.63770   0.40330   0.03580   0.01267  Uiso   1.00
C67    C     0.55410   0.43708   0.99030   0.01267  Uiso   1.00
C68    C     0.84410   0.59320   0.96540   0.01267  Uiso   1.00
C69    C     0.69170   0.67440   0.94830   0.01267  Uiso   1.00
C70    C     0.75980   0.37218   0.00810   0.01267  Uiso   1.00
C71    C     0.75480   0.63490   0.99410   0.01267  Uiso   1.00
C72    C     0.61000   0.69020   0.06060   0.01267  Uiso   1.00
N1     N     0.62500   0.11018   0.61040   0.01267  Uiso   1.00
N2     N     0.70110   0.85262   0.56590   0.01267  Uiso   1.00
N3     N     0.59980   0.79167   0.49100   0.01267  Uiso   1.00
N4     N     0.81460   0.16127   0.56520   0.01267  Uiso   1.00
N5     N     0.12500   0.88982   0.88960   0.01267  Uiso   1.00
N6     N     0.20110   0.14738   0.93410   0.01267  Uiso   1.00
N7     N     0.09980   0.20833   0.00900   0.01267  Uiso   1.00
N8     N     0.31460   0.83873   0.93480   0.01267  Uiso   1.00
N9     N     0.12500   0.61018   0.38960   0.01267  Uiso   1.00
N10    N     0.20110   0.35262   0.43410   0.01267  Uiso   1.00
N11    N     0.09980   0.29167   0.50900   0.01267  Uiso   1.00
N12    N     0.31460   0.66127   0.43480   0.01267  Uiso   1.00
N13    N     0.62500   0.38982   0.11040   0.01267  Uiso   1.00
N14    N     0.70110   0.64738   0.06590   0.01267  Uiso   1.00
N15    N     0.59980   0.70833   0.99100   0.01267  Uiso   1.00
N16    N     0.81460   0.33873   0.06520   0.01267  Uiso   1.00
O1     O     0.91260   0.96930   0.28812   0.01267  Uiso   1.00
O2     O     0.06660   0.97445   0.38740   0.01267  Uiso   1.00
O3     O     0.74860   0.88984   0.21429   0.01267  Uiso   1.00
O4     O     0.94570   0.83570   0.23390   0.01267  Uiso   1.00
O5     O     0.36470   0.02368   0.37090   0.01267  Uiso   1.00
O6     O     0.95970   0.07910   0.30910   0.01267  Uiso   1.00
O7     O     0.57980   0.97880   0.33850   0.01267  Uiso   1.00
O8     O     0.72540   0.06010   0.25950   0.01267  Uiso   1.00
O9     O     0.41260   0.03070   0.21188   0.01267  Uiso   1.00
O10    O     0.56660   0.02555   0.11260   0.01267  Uiso   1.00
O11    O     0.24860   0.11016   0.28571   0.01267  Uiso   1.00
O12    O     0.44570   0.16430   0.26610   0.01267  Uiso   1.00
O13    O     0.86470   0.97632   0.12910   0.01267  Uiso   1.00
O14    O     0.45970   0.92090   0.19090   0.01267  Uiso   1.00
O15    O     0.07980   0.02120   0.16150   0.01267  Uiso   1.00
O16    O     0.22540   0.93990   0.24050   0.01267  Uiso   1.00
O17    O     0.41260   0.46930   0.71188   0.01267  Uiso   1.00
O18    O     0.56660   0.47445   0.61260   0.01267  Uiso   1.00
O19    O     0.24860   0.38984   0.78571   0.01267  Uiso   1.00
O20    O     0.44570   0.33570   0.76610   0.01267  Uiso   1.00
O21    O     0.86470   0.52368   0.62910   0.01267  Uiso   1.00
O22    O     0.45970   0.57910   0.69090   0.01267  Uiso   1.00
O23    O     0.07980   0.47880   0.66150   0.01267  Uiso   1.00
O24    O     0.22540   0.56010   0.74050   0.01267  Uiso   1.00
O25    O     0.91260   0.53070   0.78812   0.01267  Uiso   1.00
O26    O     0.06660   0.52555   0.88740   0.01267  Uiso   1.00
O27    O     0.74860   0.61016   0.71429   0.01267  Uiso   1.00
O28    O     0.94570   0.66430   0.73390   0.01267  Uiso   1.00
O29    O     0.36470   0.47632   0.87090   0.01267  Uiso   1.00
O30    O     0.95970   0.42090   0.80910   0.01267  Uiso   1.00
O31    O     0.57980   0.52120   0.83850   0.01267  Uiso   1.00
O32    O     0.72540   0.43990   0.75950   0.01267  Uiso   1.00
Er5    Er    0.33331   0.47675   0.28237   0.01267  Uiso   1.00
Er6    Er    0.83331   0.52325   0.21763   0.01267  Uiso   1.00
Er7    Er    0.83331   0.97675   0.71763   0.01267  Uiso   1.00
Er8    Er    0.33331   0.02325   0.78237   0.01267  Uiso   1.00
Ag5    Ag    0.03857   0.77233   0.45213   0.01267  Uiso   1.00
Ag6    Ag    0.53857   0.22767   0.04787   0.01267  Uiso   1.00
Ag7    Ag    0.53857   0.27233   0.54787   0.01267  Uiso   1.00
Ag8    Ag    0.03857   0.72767   0.95213   0.01267  Uiso   1.00
H33    H     0.81430   0.70180   0.34090   0.01267  Uiso   1.00
H34    H     0.93970   0.40340   0.64230   0.01267  Uiso   1.00
H35    H     0.75600   0.33630   0.67210   0.01267  Uiso   1.00
H36    H     0.60040   0.35940   0.41710   0.01267  Uiso   1.00
H37    H     0.03400   0.45490   0.50840   0.01267  Uiso   1.00
H38    H     0.77710   0.63050   0.60660   0.01267  Uiso   1.00
H39    H     0.61350   0.56730   0.49660   0.01267  Uiso   1.00
H40    H     0.94090   0.70560   0.60140   0.01267  Uiso   1.00
H41    H     0.31430   0.29820   0.15910   0.01267  Uiso   1.00
H42    H     0.43970   0.59660   0.85770   0.01267  Uiso   1.00
H43    H     0.25600   0.66370   0.82790   0.01267  Uiso   1.00
H44    H     0.10040   0.64060   0.08290   0.01267  Uiso   1.00
H45    H     0.53400   0.54510   0.99160   0.01267  Uiso   1.00
H46    H     0.27710   0.36950   0.89340   0.01267  Uiso   1.00
H47    H     0.11350   0.43270   0.00340   0.01267  Uiso   1.00
H48    H     0.44090   0.29440   0.89860   0.01267  Uiso   1.00
H49    H     0.31430   0.20180   0.65910   0.01267  Uiso   1.00
H50    H     0.43970   0.90340   0.35770   0.01267  Uiso   1.00
H51    H     0.25600   0.83630   0.32790   0.01267  Uiso   1.00
H52    H     0.10040   0.85940   0.58290   0.01267  Uiso   1.00
H53    H     0.53400   0.95490   0.49160   0.01267  Uiso   1.00
H54    H     0.27710   0.13050   0.39340   0.01267  Uiso   1.00
H55    H     0.11350   0.06730   0.50340   0.01267  Uiso   1.00
H56    H     0.44090   0.20560   0.39860   0.01267  Uiso   1.00
H57    H     0.81430   0.79820   0.84090   0.01267  Uiso   1.00
H58    H     0.93970   0.09660   0.14230   0.01267  Uiso   1.00
H59    H     0.75600   0.16370   0.17210   0.01267  Uiso   1.00
H60    H     0.60040   0.14060   0.91710   0.01267  Uiso   1.00
H61    H     0.03400   0.04510   0.00840   0.01267  Uiso   1.00
H62    H     0.77710   0.86950   0.10660   0.01267  Uiso   1.00
H63    H     0.61350   0.93270   0.99660   0.01267  Uiso   1.00
H64    H     0.94090   0.79440   0.10140   0.01267  Uiso   1.00
C73    C     0.54640   0.54670   0.35390   0.01267  Uiso   1.00
C74    C     0.63370   0.59230   0.38800   0.01267  Uiso   1.00
C75    C     0.69120   0.63370   0.34080   0.01267  Uiso   1.00
C76    C     0.77730   0.67450   0.37130   0.01267  Uiso   1.00
C77    C     0.65860   0.63610   0.25700   0.01267  Uiso   1.00
C78    C     0.98960   0.48240   0.37060   0.01267  Uiso   1.00
C79    C     0.68860   0.42670   0.31440   0.01267  Uiso   1.00
C80    C     0.75880   0.41640   0.38950   0.01267  Uiso   1.00
C81    C     0.76900   0.35180   0.62510   0.01267  Uiso   1.00
C82    C     0.68490   0.37920   0.43510   0.01267  Uiso   1.00
C83    C     0.89540   0.44400   0.41620   0.01267  Uiso   1.00
C84    C     0.86230   0.40330   0.53580   0.01267  Uiso   1.00
C85    C     0.94590   0.43708   0.49030   0.01267  Uiso   1.00
C86    C     0.65590   0.59320   0.46540   0.01267  Uiso   1.00
C87    C     0.80830   0.67440   0.44830   0.01267  Uiso   1.00
C88    C     0.74020   0.37218   0.50810   0.01267  Uiso   1.00
C89    C     0.74520   0.63490   0.49410   0.01267  Uiso   1.00
C90    C     0.89000   0.69020   0.56060   0.01267  Uiso   1.00
C91    C     0.04640   0.45330   0.14610   0.01267  Uiso   1.00
C92    C     0.13370   0.40770   0.11200   0.01267  Uiso   1.00
C93    C     0.19120   0.36630   0.15920   0.01267  Uiso   1.00
C94    C     0.27730   0.32550   0.12870   0.01267  Uiso   1.00
C95    C     0.15860   0.36390   0.24300   0.01267  Uiso   1.00
C96    C     0.48960   0.51760   0.12940   0.01267  Uiso   1.00
C97    C     0.18860   0.57330   0.18560   0.01267  Uiso   1.00
C98    C     0.25880   0.58360   0.11050   0.01267  Uiso   1.00
C99    C     0.26900   0.64820   0.87490   0.01267  Uiso   1.00
C100   C     0.18490   0.62080   0.06490   0.01267  Uiso   1.00
C101   C     0.39540   0.55600   0.08380   0.01267  Uiso   1.00
C102   C     0.36230   0.59670   0.96420   0.01267  Uiso   1.00
C103   C     0.44590   0.56292   0.00970   0.01267  Uiso   1.00
C104   C     0.15590   0.40680   0.03460   0.01267  Uiso   1.00
C105   C     0.30830   0.32560   0.05170   0.01267  Uiso   1.00
C106   C     0.24020   0.62782   0.99190   0.01267  Uiso   1.00
C107   C     0.24520   0.36510   0.00590   0.01267  Uiso   1.00
C108   C     0.39000   0.30980   0.93940   0.01267  Uiso   1.00
C109   C     0.04640   0.04670   0.64610   0.01267  Uiso   1.00
C110   C     0.13370   0.09230   0.61200   0.01267  Uiso   1.00
C111   C     0.19120   0.13370   0.65920   0.01267  Uiso   1.00
C112   C     0.27730   0.17450   0.62870   0.01267  Uiso   1.00
C113   C     0.15860   0.13610   0.74300   0.01267  Uiso   1.00
C114   C     0.48960   0.98240   0.62940   0.01267  Uiso   1.00
C115   C     0.18860   0.92670   0.68560   0.01267  Uiso   1.00
C116   C     0.25880   0.91640   0.61050   0.01267  Uiso   1.00
C117   C     0.26900   0.85180   0.37490   0.01267  Uiso   1.00
C118   C     0.18490   0.87920   0.56490   0.01267  Uiso   1.00
C119   C     0.39540   0.94400   0.58380   0.01267  Uiso   1.00
C120   C     0.36230   0.90330   0.46420   0.01267  Uiso   1.00
C121   C     0.44590   0.93708   0.50970   0.01267  Uiso   1.00
C122   C     0.15590   0.09320   0.53460   0.01267  Uiso   1.00
C123   C     0.30830   0.17440   0.55170   0.01267  Uiso   1.00
C124   C     0.24020   0.87218   0.49190   0.01267  Uiso   1.00
C125   C     0.24520   0.13490   0.50590   0.01267  Uiso   1.00
C126   C     0.39000   0.19020   0.43940   0.01267  Uiso   1.00
C127   C     0.54640   0.95330   0.85390   0.01267  Uiso   1.00
C128   C     0.63370   0.90770   0.88800   0.01267  Uiso   1.00
C129   C     0.69120   0.86630   0.84080   0.01267  Uiso   1.00
C130   C     0.77730   0.82550   0.87130   0.01267  Uiso   1.00
C131   C     0.65860   0.86390   0.75700   0.01267  Uiso   1.00
C132   C     0.98960   0.01760   0.87060   0.01267  Uiso   1.00
C133   C     0.68860   0.07330   0.81440   0.01267  Uiso   1.00
C134   C     0.75880   0.08360   0.88950   0.01267  Uiso   1.00
C135   C     0.76900   0.14820   0.12510   0.01267  Uiso   1.00
C136   C     0.68490   0.12080   0.93510   0.01267  Uiso   1.00
C137   C     0.89540   0.05600   0.91620   0.01267  Uiso   1.00
C138   C     0.86230   0.09670   0.03580   0.01267  Uiso   1.00
C139   C     0.94590   0.06292   0.99030   0.01267  Uiso   1.00
C140   C     0.65590   0.90680   0.96540   0.01267  Uiso   1.00
C141   C     0.80830   0.82560   0.94830   0.01267  Uiso   1.00
C142   C     0.74020   0.12782   0.00810   0.01267  Uiso   1.00
C143   C     0.74520   0.86510   0.99410   0.01267  Uiso   1.00
C144   C     0.89000   0.80980   0.06060   0.01267  Uiso   1.00
N17    N     0.87500   0.38982   0.61040   0.01267  Uiso   1.00
N18    N     0.79890   0.64738   0.56590   0.01267  Uiso   1.00
N19    N     0.90020   0.70833   0.49100   0.01267  Uiso   1.00
N20    N     0.68540   0.33873   0.56520   0.01267  Uiso   1.00
N21    N     0.37500   0.61018   0.88960   0.01267  Uiso   1.00
N22    N     0.29890   0.35262   0.93410   0.01267  Uiso   1.00
N23    N     0.40020   0.29167   0.00900   0.01267  Uiso   1.00
N24    N     0.18540   0.66127   0.93480   0.01267  Uiso   1.00
N25    N     0.37500   0.88982   0.38960   0.01267  Uiso   1.00
N26    N     0.29890   0.14738   0.43410   0.01267  Uiso   1.00
N27    N     0.40020   0.20833   0.50900   0.01267  Uiso   1.00
N28    N     0.18540   0.83873   0.43480   0.01267  Uiso   1.00
N29    N     0.87500   0.11018   0.11040   0.01267  Uiso   1.00
N30    N     0.79890   0.85262   0.06590   0.01267  Uiso   1.00
N31    N     0.90020   0.79167   0.99100   0.01267  Uiso   1.00
N32    N     0.68540   0.16127   0.06520   0.01267  Uiso   1.00
O33    O     0.58740   0.53070   0.28812   0.01267  Uiso   1.00
O34    O     0.43340   0.52555   0.38740   0.01267  Uiso   1.00
O35    O     0.75140   0.61016   0.21429   0.01267  Uiso   1.00
O36    O     0.55430   0.66430   0.23390   0.01267  Uiso   1.00
O37    O     0.13530   0.47632   0.37090   0.01267  Uiso   1.00
O38    O     0.54030   0.42090   0.30910   0.01267  Uiso   1.00
O39    O     0.92020   0.52120   0.33850   0.01267  Uiso   1.00
O40    O     0.77460   0.43990   0.25950   0.01267  Uiso   1.00
O41    O     0.08740   0.46930   0.21188   0.01267  Uiso   1.00
O42    O     0.93340   0.47445   0.11260   0.01267  Uiso   1.00
O43    O     0.25140   0.38984   0.28571   0.01267  Uiso   1.00
O44    O     0.05430   0.33570   0.26610   0.01267  Uiso   1.00
O45    O     0.63530   0.52368   0.12910   0.01267  Uiso   1.00
O46    O     0.04030   0.57910   0.19090   0.01267  Uiso   1.00
O47    O     0.42020   0.47880   0.16150   0.01267  Uiso   1.00
O48    O     0.27460   0.56010   0.24050   0.01267  Uiso   1.00
O49    O     0.08740   0.03070   0.71188   0.01267  Uiso   1.00
O50    O     0.93340   0.02555   0.61260   0.01267  Uiso   1.00
O51    O     0.25140   0.11016   0.78571   0.01267  Uiso   1.00
O52    O     0.05430   0.16430   0.76610   0.01267  Uiso   1.00
O53    O     0.63530   0.97632   0.62910   0.01267  Uiso   1.00
O54    O     0.04030   0.92090   0.69090   0.01267  Uiso   1.00
O55    O     0.42020   0.02120   0.66150   0.01267  Uiso   1.00
O56    O     0.27460   0.93990   0.74050   0.01267  Uiso   1.00
O57    O     0.58740   0.96930   0.78812   0.01267  Uiso   1.00
O58    O     0.43340   0.97445   0.88740   0.01267  Uiso   1.00
O59    O     0.75140   0.88984   0.71429   0.01267  Uiso   1.00
O60    O     0.55430   0.83570   0.73390   0.01267  Uiso   1.00
O61    O     0.13530   0.02368   0.87090   0.01267  Uiso   1.00
O62    O     0.54030   0.07910   0.80910   0.01267  Uiso   1.00
O63    O     0.92020   0.97880   0.83850   0.01267  Uiso   1.00
O64    O     0.77460   0.06010   0.75950   0.01267  Uiso   1.00
