data_BASTEW_clean
_audit_creation_date              2014-07-02
_audit_creation_method            'Materials Studio'
_symmetry_space_group_name_H-M    'P1'
_symmetry_Int_Tables_number       1
_symmetry_cell_setting            triclinic
loop_
_symmetry_equiv_pos_as_xyz
  x,y,z
_cell_length_a                    8.5955
_cell_length_b                    25.3630
_cell_length_c                    17.8220
_cell_angle_alpha                 90.0000
_cell_angle_beta                  90.0000
_cell_angle_gamma                 90.0000
loop_
_atom_site_label
_atom_site_type_symbol
_atom_site_fract_x
_atom_site_fract_y
_atom_site_fract_z
_atom_site_U_iso_or_equiv
_atom_site_adp_type
_atom_site_occupancy
Sm1    Sm    0.66304   0.97613   0.71637   0.01267  Uiso   1.00
Sm2    Sm    0.16304   0.02387   0.78363   0.01267  Uiso   1.00
Sm3    Sm    0.16304   0.47613   0.28363   0.01267  Uiso   1.00
Sm4    Sm    0.66304   0.52387   0.21637   0.01267  Uiso   1.00
Ag1    Ag    0.96100   0.27343   0.54946   0.01267  Uiso   1.00
Ag2    Ag    0.46100   0.72657   0.95054   0.01267  Uiso   1.00
Ag3    Ag    0.46100   0.77343   0.45054   0.01267  Uiso   1.00
Ag4    Ag    0.96100   0.22657   0.04946   0.01267  Uiso   1.00
H1     H     0.46690   0.04580   0.00910   0.01267  Uiso   1.00
H2     H     0.74700   0.16250   0.17400   0.01267  Uiso   1.00
H3     H     0.89840   0.13960   0.91930   0.01267  Uiso   1.00
H4     H     0.38090   0.06940   0.50340   0.01267  Uiso   1.00
H5     H     0.05550   0.20700   0.40040   0.01267  Uiso   1.00
H6     H     0.18350   0.20280   0.66060   0.01267  Uiso   1.00
H7     H     0.57100   0.09670   0.15090   0.01267  Uiso   1.00
H8     H     0.21900   0.13250   0.39160   0.01267  Uiso   1.00
H9     H     0.96690   0.95420   0.49090   0.01267  Uiso   1.00
H10    H     0.24700   0.83750   0.32600   0.01267  Uiso   1.00
H11    H     0.39840   0.86040   0.58070   0.01267  Uiso   1.00
H12    H     0.88090   0.93060   0.99660   0.01267  Uiso   1.00
H13    H     0.55550   0.79300   0.09960   0.01267  Uiso   1.00
H14    H     0.68350   0.79720   0.83940   0.01267  Uiso   1.00
H15    H     0.07100   0.90330   0.34910   0.01267  Uiso   1.00
H16    H     0.71900   0.86750   0.10840   0.01267  Uiso   1.00
H17    H     0.96690   0.54580   0.99090   0.01267  Uiso   1.00
H18    H     0.24700   0.66250   0.82600   0.01267  Uiso   1.00
H19    H     0.39840   0.63960   0.08070   0.01267  Uiso   1.00
H20    H     0.88090   0.56940   0.49660   0.01267  Uiso   1.00
H21    H     0.55550   0.70700   0.59960   0.01267  Uiso   1.00
H22    H     0.68350   0.70280   0.33940   0.01267  Uiso   1.00
H23    H     0.07100   0.59670   0.84910   0.01267  Uiso   1.00
H24    H     0.71900   0.63250   0.60840   0.01267  Uiso   1.00
H25    H     0.46690   0.45420   0.50910   0.01267  Uiso   1.00
H26    H     0.74700   0.33750   0.67400   0.01267  Uiso   1.00
H27    H     0.89840   0.36040   0.41930   0.01267  Uiso   1.00
H28    H     0.38090   0.43060   0.00340   0.01267  Uiso   1.00
H29    H     0.05550   0.29300   0.90040   0.01267  Uiso   1.00
H30    H     0.18350   0.29720   0.16060   0.01267  Uiso   1.00
H31    H     0.57100   0.40330   0.65090   0.01267  Uiso   1.00
H32    H     0.21900   0.36750   0.89160   0.01267  Uiso   1.00
C1     C     0.50970   0.01842   0.87250   0.01267  Uiso   1.00
C2     C     0.60550   0.05667   0.91820   0.01267  Uiso   1.00
C3     C     0.55450   0.06333   0.99140   0.01267  Uiso   1.00
C4     C     0.63880   0.09724   0.03750   0.01267  Uiso   1.00
C5     C     0.73260   0.14751   0.12690   0.01267  Uiso   1.00
C6     C     0.76060   0.12765   0.00940   0.01267  Uiso   1.00
C7     C     0.81390   0.12039   0.93710   0.01267  Uiso   1.00
C8     C     0.73970   0.08409   0.89140   0.01267  Uiso   1.00
C9     C     0.80650   0.07474   0.81480   0.01267  Uiso   1.00
C10    C     0.44950   0.04822   0.64450   0.01267  Uiso   1.00
C11    C     0.36390   0.09423   0.61160   0.01267  Uiso   1.00
C12    C     0.33940   0.09520   0.53460   0.01267  Uiso   1.00
C13    C     0.24990   0.13657   0.50590   0.01267  Uiso   1.00
C14    C     0.10590   0.19151   0.44090   0.01267  Uiso   1.00
C15    C     0.18810   0.17549   0.55320   0.01267  Uiso   1.00
C16    C     0.21980   0.17576   0.62990   0.01267  Uiso   1.00
C17    C     0.30610   0.13495   0.65900   0.01267  Uiso   1.00
C18    C     0.34050   0.13730   0.74210   0.01267  Uiso   1.00
C19    C     0.00970   0.98158   0.62750   0.01267  Uiso   1.00
C20    C     0.10550   0.94333   0.58180   0.01267  Uiso   1.00
C21    C     0.05450   0.93667   0.50860   0.01267  Uiso   1.00
C22    C     0.13880   0.90276   0.46250   0.01267  Uiso   1.00
C23    C     0.23260   0.85249   0.37310   0.01267  Uiso   1.00
C24    C     0.26060   0.87235   0.49060   0.01267  Uiso   1.00
C25    C     0.31390   0.87961   0.56290   0.01267  Uiso   1.00
C26    C     0.23970   0.91591   0.60860   0.01267  Uiso   1.00
C27    C     0.30650   0.92526   0.68520   0.01267  Uiso   1.00
C28    C     0.94950   0.95178   0.85550   0.01267  Uiso   1.00
C29    C     0.86390   0.90577   0.88840   0.01267  Uiso   1.00
C30    C     0.83940   0.90480   0.96540   0.01267  Uiso   1.00
C31    C     0.74990   0.86343   0.99410   0.01267  Uiso   1.00
C32    C     0.60590   0.80849   0.05910   0.01267  Uiso   1.00
C33    C     0.68810   0.82451   0.94680   0.01267  Uiso   1.00
C34    C     0.71980   0.82424   0.87010   0.01267  Uiso   1.00
C35    C     0.80610   0.86505   0.84100   0.01267  Uiso   1.00
C36    C     0.84050   0.86270   0.75790   0.01267  Uiso   1.00
C37    C     0.00970   0.51842   0.12750   0.01267  Uiso   1.00
C38    C     0.10550   0.55667   0.08180   0.01267  Uiso   1.00
C39    C     0.05450   0.56333   0.00860   0.01267  Uiso   1.00
C40    C     0.13880   0.59724   0.96250   0.01267  Uiso   1.00
C41    C     0.23260   0.64751   0.87310   0.01267  Uiso   1.00
C42    C     0.26060   0.62765   0.99060   0.01267  Uiso   1.00
C43    C     0.31390   0.62039   0.06290   0.01267  Uiso   1.00
C44    C     0.23970   0.58409   0.10860   0.01267  Uiso   1.00
C45    C     0.30650   0.57474   0.18520   0.01267  Uiso   1.00
C46    C     0.94950   0.54822   0.35550   0.01267  Uiso   1.00
C47    C     0.86390   0.59423   0.38840   0.01267  Uiso   1.00
C48    C     0.83940   0.59520   0.46540   0.01267  Uiso   1.00
C49    C     0.74990   0.63657   0.49410   0.01267  Uiso   1.00
C50    C     0.60590   0.69151   0.55910   0.01267  Uiso   1.00
C51    C     0.68810   0.67549   0.44680   0.01267  Uiso   1.00
C52    C     0.71980   0.67576   0.37010   0.01267  Uiso   1.00
C53    C     0.80610   0.63495   0.34100   0.01267  Uiso   1.00
C54    C     0.84050   0.63730   0.25790   0.01267  Uiso   1.00
C55    C     0.50970   0.48158   0.37250   0.01267  Uiso   1.00
C56    C     0.60550   0.44333   0.41820   0.01267  Uiso   1.00
C57    C     0.55450   0.43667   0.49140   0.01267  Uiso   1.00
C58    C     0.63880   0.40276   0.53750   0.01267  Uiso   1.00
C59    C     0.73260   0.35249   0.62690   0.01267  Uiso   1.00
C60    C     0.76060   0.37235   0.50940   0.01267  Uiso   1.00
C61    C     0.81390   0.37961   0.43710   0.01267  Uiso   1.00
C62    C     0.73970   0.41591   0.39140   0.01267  Uiso   1.00
C63    C     0.80650   0.42526   0.31480   0.01267  Uiso   1.00
C64    C     0.44950   0.45178   0.14450   0.01267  Uiso   1.00
C65    C     0.36390   0.40577   0.11160   0.01267  Uiso   1.00
C66    C     0.33940   0.40480   0.03460   0.01267  Uiso   1.00
C67    C     0.24990   0.36343   0.00590   0.01267  Uiso   1.00
C68    C     0.10590   0.30849   0.94090   0.01267  Uiso   1.00
C69    C     0.18810   0.32451   0.05320   0.01267  Uiso   1.00
C70    C     0.21980   0.32424   0.12990   0.01267  Uiso   1.00
C71    C     0.30610   0.36505   0.15900   0.01267  Uiso   1.00
C72    C     0.34050   0.36270   0.24210   0.01267  Uiso   1.00
N1     N     0.62600   0.11014   0.11220   0.01267  Uiso   1.00
N2     N     0.81470   0.16048   0.06700   0.01267  Uiso   1.00
N3     N     0.09600   0.20934   0.51020   0.01267  Uiso   1.00
N4     N     0.19600   0.14865   0.43510   0.01267  Uiso   1.00
N5     N     0.12600   0.88986   0.38780   0.01267  Uiso   1.00
N6     N     0.31470   0.83952   0.43300   0.01267  Uiso   1.00
N7     N     0.59600   0.79066   0.98980   0.01267  Uiso   1.00
N8     N     0.69600   0.85135   0.06490   0.01267  Uiso   1.00
N9     N     0.12600   0.61014   0.88780   0.01267  Uiso   1.00
N10    N     0.31470   0.66048   0.93300   0.01267  Uiso   1.00
N11    N     0.59600   0.70934   0.48980   0.01267  Uiso   1.00
N12    N     0.69600   0.64865   0.56490   0.01267  Uiso   1.00
N13    N     0.62600   0.38986   0.61220   0.01267  Uiso   1.00
N14    N     0.81470   0.33952   0.56700   0.01267  Uiso   1.00
N15    N     0.09600   0.29066   0.01020   0.01267  Uiso   1.00
N16    N     0.19600   0.35135   0.93510   0.01267  Uiso   1.00
O1     O     0.57550   0.97954   0.84091   0.01267  Uiso   1.00
O2     O     0.36560   0.02526   0.87358   0.01267  Uiso   1.00
O3     O     0.72030   0.06137   0.76125   0.01267  Uiso   1.00
O4     O     0.95160   0.08167   0.80785   0.01267  Uiso   1.00
O5     O     0.55910   0.02710   0.60982   0.01267  Uiso   1.00
O6     O     0.41050   0.03169   0.71002   0.01267  Uiso   1.00
O7     O     0.24630   0.11296   0.78570   0.01267  Uiso   1.00
O8     O     0.45030   0.16370   0.76440   0.01267  Uiso   1.00
O9     O     0.07550   0.02046   0.65909   0.01267  Uiso   1.00
O10    O     0.86560   0.97474   0.62642   0.01267  Uiso   1.00
O11    O     0.22030   0.93863   0.73875   0.01267  Uiso   1.00
O12    O     0.45160   0.91833   0.69215   0.01267  Uiso   1.00
O13    O     0.05910   0.97290   0.89018   0.01267  Uiso   1.00
O14    O     0.91050   0.96831   0.78998   0.01267  Uiso   1.00
O15    O     0.74630   0.88704   0.71430   0.01267  Uiso   1.00
O16    O     0.95030   0.83630   0.73560   0.01267  Uiso   1.00
O17    O     0.07550   0.47954   0.15909   0.01267  Uiso   1.00
O18    O     0.86560   0.52526   0.12642   0.01267  Uiso   1.00
O19    O     0.22030   0.56137   0.23875   0.01267  Uiso   1.00
O20    O     0.45160   0.58167   0.19215   0.01267  Uiso   1.00
O21    O     0.05910   0.52710   0.39018   0.01267  Uiso   1.00
O22    O     0.91050   0.53169   0.28998   0.01267  Uiso   1.00
O23    O     0.74630   0.61296   0.21430   0.01267  Uiso   1.00
O24    O     0.95030   0.66370   0.23560   0.01267  Uiso   1.00
O25    O     0.57550   0.52046   0.34091   0.01267  Uiso   1.00
O26    O     0.36560   0.47474   0.37358   0.01267  Uiso   1.00
O27    O     0.72030   0.43863   0.26125   0.01267  Uiso   1.00
O28    O     0.95160   0.41833   0.30785   0.01267  Uiso   1.00
O29    O     0.55910   0.47290   0.10982   0.01267  Uiso   1.00
O30    O     0.41050   0.46831   0.21002   0.01267  Uiso   1.00
O31    O     0.24630   0.38704   0.28570   0.01267  Uiso   1.00
O32    O     0.45030   0.33630   0.26440   0.01267  Uiso   1.00
Sm5    Sm    0.83696   0.52387   0.71637   0.01267  Uiso   1.00
Sm6    Sm    0.33696   0.47613   0.78363   0.01267  Uiso   1.00
Sm7    Sm    0.33696   0.02387   0.28363   0.01267  Uiso   1.00
Sm8    Sm    0.83696   0.97613   0.21637   0.01267  Uiso   1.00
Ag5    Ag    0.53900   0.22657   0.54946   0.01267  Uiso   1.00
Ag6    Ag    0.03900   0.77343   0.95054   0.01267  Uiso   1.00
Ag7    Ag    0.03900   0.72657   0.45054   0.01267  Uiso   1.00
Ag8    Ag    0.53900   0.27343   0.04946   0.01267  Uiso   1.00
H33    H     0.03310   0.45420   0.00910   0.01267  Uiso   1.00
H34    H     0.75300   0.33750   0.17400   0.01267  Uiso   1.00
H35    H     0.60160   0.36040   0.91930   0.01267  Uiso   1.00
H36    H     0.11910   0.43060   0.50340   0.01267  Uiso   1.00
H37    H     0.44450   0.29300   0.40040   0.01267  Uiso   1.00
H38    H     0.31650   0.29720   0.66060   0.01267  Uiso   1.00
H39    H     0.92900   0.40330   0.15090   0.01267  Uiso   1.00
H40    H     0.28100   0.36750   0.39160   0.01267  Uiso   1.00
H41    H     0.53310   0.54580   0.49090   0.01267  Uiso   1.00
H42    H     0.25300   0.66250   0.32600   0.01267  Uiso   1.00
H43    H     0.10160   0.63960   0.58070   0.01267  Uiso   1.00
H44    H     0.61910   0.56940   0.99660   0.01267  Uiso   1.00
H45    H     0.94450   0.70700   0.09960   0.01267  Uiso   1.00
H46    H     0.81650   0.70280   0.83940   0.01267  Uiso   1.00
H47    H     0.42900   0.59670   0.34910   0.01267  Uiso   1.00
H48    H     0.78100   0.63250   0.10840   0.01267  Uiso   1.00
H49    H     0.53310   0.95420   0.99090   0.01267  Uiso   1.00
H50    H     0.25300   0.83750   0.82600   0.01267  Uiso   1.00
H51    H     0.10160   0.86040   0.08070   0.01267  Uiso   1.00
H52    H     0.61910   0.93060   0.49660   0.01267  Uiso   1.00
H53    H     0.94450   0.79300   0.59960   0.01267  Uiso   1.00
H54    H     0.81650   0.79720   0.33940   0.01267  Uiso   1.00
H55    H     0.42900   0.90330   0.84910   0.01267  Uiso   1.00
H56    H     0.78100   0.86750   0.60840   0.01267  Uiso   1.00
H57    H     0.03310   0.04580   0.50910   0.01267  Uiso   1.00
H58    H     0.75300   0.16250   0.67400   0.01267  Uiso   1.00
H59    H     0.60160   0.13960   0.41930   0.01267  Uiso   1.00
H60    H     0.11910   0.06940   0.00340   0.01267  Uiso   1.00
H61    H     0.44450   0.20700   0.90040   0.01267  Uiso   1.00
H62    H     0.31650   0.20280   0.16060   0.01267  Uiso   1.00
H63    H     0.92900   0.09670   0.65090   0.01267  Uiso   1.00
H64    H     0.28100   0.13250   0.89160   0.01267  Uiso   1.00
C73    C     0.99030   0.48158   0.87250   0.01267  Uiso   1.00
C74    C     0.89450   0.44333   0.91820   0.01267  Uiso   1.00
C75    C     0.94550   0.43667   0.99140   0.01267  Uiso   1.00
C76    C     0.86120   0.40276   0.03750   0.01267  Uiso   1.00
C77    C     0.76740   0.35249   0.12690   0.01267  Uiso   1.00
C78    C     0.73940   0.37235   0.00940   0.01267  Uiso   1.00
C79    C     0.68610   0.37961   0.93710   0.01267  Uiso   1.00
C80    C     0.76030   0.41591   0.89140   0.01267  Uiso   1.00
C81    C     0.69350   0.42526   0.81480   0.01267  Uiso   1.00
C82    C     0.05050   0.45178   0.64450   0.01267  Uiso   1.00
C83    C     0.13610   0.40577   0.61160   0.01267  Uiso   1.00
C84    C     0.16060   0.40480   0.53460   0.01267  Uiso   1.00
C85    C     0.25010   0.36343   0.50590   0.01267  Uiso   1.00
C86    C     0.39410   0.30849   0.44090   0.01267  Uiso   1.00
C87    C     0.31190   0.32451   0.55320   0.01267  Uiso   1.00
C88    C     0.28020   0.32424   0.62990   0.01267  Uiso   1.00
C89    C     0.19390   0.36505   0.65900   0.01267  Uiso   1.00
C90    C     0.15950   0.36270   0.74210   0.01267  Uiso   1.00
C91    C     0.49030   0.51842   0.62750   0.01267  Uiso   1.00
C92    C     0.39450   0.55667   0.58180   0.01267  Uiso   1.00
C93    C     0.44550   0.56333   0.50860   0.01267  Uiso   1.00
C94    C     0.36120   0.59724   0.46250   0.01267  Uiso   1.00
C95    C     0.26740   0.64751   0.37310   0.01267  Uiso   1.00
C96    C     0.23940   0.62765   0.49060   0.01267  Uiso   1.00
C97    C     0.18610   0.62039   0.56290   0.01267  Uiso   1.00
C98    C     0.26030   0.58409   0.60860   0.01267  Uiso   1.00
C99    C     0.19350   0.57474   0.68520   0.01267  Uiso   1.00
C100   C     0.55050   0.54822   0.85550   0.01267  Uiso   1.00
C101   C     0.63610   0.59423   0.88840   0.01267  Uiso   1.00
C102   C     0.66060   0.59520   0.96540   0.01267  Uiso   1.00
C103   C     0.75010   0.63657   0.99410   0.01267  Uiso   1.00
C104   C     0.89410   0.69151   0.05910   0.01267  Uiso   1.00
C105   C     0.81190   0.67549   0.94680   0.01267  Uiso   1.00
C106   C     0.78020   0.67576   0.87010   0.01267  Uiso   1.00
C107   C     0.69390   0.63495   0.84100   0.01267  Uiso   1.00
C108   C     0.65950   0.63730   0.75790   0.01267  Uiso   1.00
C109   C     0.49030   0.98158   0.12750   0.01267  Uiso   1.00
C110   C     0.39450   0.94333   0.08180   0.01267  Uiso   1.00
C111   C     0.44550   0.93667   0.00860   0.01267  Uiso   1.00
C112   C     0.36120   0.90276   0.96250   0.01267  Uiso   1.00
C113   C     0.26740   0.85249   0.87310   0.01267  Uiso   1.00
C114   C     0.23940   0.87235   0.99060   0.01267  Uiso   1.00
C115   C     0.18610   0.87961   0.06290   0.01267  Uiso   1.00
C116   C     0.26030   0.91591   0.10860   0.01267  Uiso   1.00
C117   C     0.19350   0.92526   0.18520   0.01267  Uiso   1.00
C118   C     0.55050   0.95178   0.35550   0.01267  Uiso   1.00
C119   C     0.63610   0.90577   0.38840   0.01267  Uiso   1.00
C120   C     0.66060   0.90480   0.46540   0.01267  Uiso   1.00
C121   C     0.75010   0.86343   0.49410   0.01267  Uiso   1.00
C122   C     0.89410   0.80849   0.55910   0.01267  Uiso   1.00
C123   C     0.81190   0.82451   0.44680   0.01267  Uiso   1.00
C124   C     0.78020   0.82424   0.37010   0.01267  Uiso   1.00
C125   C     0.69390   0.86505   0.34100   0.01267  Uiso   1.00
C126   C     0.65950   0.86270   0.25790   0.01267  Uiso   1.00
C127   C     0.99030   0.01842   0.37250   0.01267  Uiso   1.00
C128   C     0.89450   0.05667   0.41820   0.01267  Uiso   1.00
C129   C     0.94550   0.06333   0.49140   0.01267  Uiso   1.00
C130   C     0.86120   0.09724   0.53750   0.01267  Uiso   1.00
C131   C     0.76740   0.14751   0.62690   0.01267  Uiso   1.00
C132   C     0.73940   0.12765   0.50940   0.01267  Uiso   1.00
C133   C     0.68610   0.12039   0.43710   0.01267  Uiso   1.00
C134   C     0.76030   0.08409   0.39140   0.01267  Uiso   1.00
C135   C     0.69350   0.07474   0.31480   0.01267  Uiso   1.00
C136   C     0.05050   0.04822   0.14450   0.01267  Uiso   1.00
C137   C     0.13610   0.09423   0.11160   0.01267  Uiso   1.00
C138   C     0.16060   0.09520   0.03460   0.01267  Uiso   1.00
C139   C     0.25010   0.13657   0.00590   0.01267  Uiso   1.00
C140   C     0.39410   0.19151   0.94090   0.01267  Uiso   1.00
C141   C     0.31190   0.17549   0.05320   0.01267  Uiso   1.00
C142   C     0.28020   0.17576   0.12990   0.01267  Uiso   1.00
C143   C     0.19390   0.13495   0.15900   0.01267  Uiso   1.00
C144   C     0.15950   0.13730   0.24210   0.01267  Uiso   1.00
N17    N     0.87400   0.38986   0.11220   0.01267  Uiso   1.00
N18    N     0.68530   0.33952   0.06700   0.01267  Uiso   1.00
N19    N     0.40400   0.29066   0.51020   0.01267  Uiso   1.00
N20    N     0.30400   0.35135   0.43510   0.01267  Uiso   1.00
N21    N     0.37400   0.61014   0.38780   0.01267  Uiso   1.00
N22    N     0.18530   0.66048   0.43300   0.01267  Uiso   1.00
N23    N     0.90400   0.70934   0.98980   0.01267  Uiso   1.00
N24    N     0.80400   0.64865   0.06490   0.01267  Uiso   1.00
N25    N     0.37400   0.88986   0.88780   0.01267  Uiso   1.00
N26    N     0.18530   0.83952   0.93300   0.01267  Uiso   1.00
N27    N     0.90400   0.79066   0.48980   0.01267  Uiso   1.00
N28    N     0.80400   0.85135   0.56490   0.01267  Uiso   1.00
N29    N     0.87400   0.11014   0.61220   0.01267  Uiso   1.00
N30    N     0.68530   0.16048   0.56700   0.01267  Uiso   1.00
N31    N     0.40400   0.20934   0.01020   0.01267  Uiso   1.00
N32    N     0.30400   0.14865   0.93510   0.01267  Uiso   1.00
O33    O     0.92450   0.52046   0.84091   0.01267  Uiso   1.00
O34    O     0.13440   0.47474   0.87358   0.01267  Uiso   1.00
O35    O     0.77970   0.43863   0.76125   0.01267  Uiso   1.00
O36    O     0.54840   0.41833   0.80785   0.01267  Uiso   1.00
O37    O     0.94090   0.47290   0.60982   0.01267  Uiso   1.00
O38    O     0.08950   0.46831   0.71002   0.01267  Uiso   1.00
O39    O     0.25370   0.38704   0.78570   0.01267  Uiso   1.00
O40    O     0.04970   0.33630   0.76440   0.01267  Uiso   1.00
O41    O     0.42450   0.47954   0.65909   0.01267  Uiso   1.00
O42    O     0.63440   0.52526   0.62642   0.01267  Uiso   1.00
O43    O     0.27970   0.56137   0.73875   0.01267  Uiso   1.00
O44    O     0.04840   0.58167   0.69215   0.01267  Uiso   1.00
O45    O     0.44090   0.52710   0.89018   0.01267  Uiso   1.00
O46    O     0.58950   0.53169   0.78998   0.01267  Uiso   1.00
O47    O     0.75370   0.61296   0.71430   0.01267  Uiso   1.00
O48    O     0.54970   0.66370   0.73560   0.01267  Uiso   1.00
O49    O     0.42450   0.02046   0.15909   0.01267  Uiso   1.00
O50    O     0.63440   0.97474   0.12642   0.01267  Uiso   1.00
O51    O     0.27970   0.93863   0.23875   0.01267  Uiso   1.00
O52    O     0.04840   0.91833   0.19215   0.01267  Uiso   1.00
O53    O     0.44090   0.97290   0.39018   0.01267  Uiso   1.00
O54    O     0.58950   0.96831   0.28998   0.01267  Uiso   1.00
O55    O     0.75370   0.88704   0.21430   0.01267  Uiso   1.00
O56    O     0.54970   0.83630   0.23560   0.01267  Uiso   1.00
O57    O     0.92450   0.97954   0.34091   0.01267  Uiso   1.00
O58    O     0.13440   0.02526   0.37358   0.01267  Uiso   1.00
O59    O     0.77970   0.06137   0.26125   0.01267  Uiso   1.00
O60    O     0.54840   0.08167   0.30785   0.01267  Uiso   1.00
O61    O     0.94090   0.02710   0.10982   0.01267  Uiso   1.00
O62    O     0.08950   0.03169   0.21002   0.01267  Uiso   1.00
O63    O     0.25370   0.11296   0.28570   0.01267  Uiso   1.00
O64    O     0.04970   0.16370   0.26440   0.01267  Uiso   1.00
