data_BASTAS_clean
_audit_creation_date              2014-07-02
_audit_creation_method            'Materials Studio'
_symmetry_space_group_name_H-M    'P1'
_symmetry_Int_Tables_number       1
_symmetry_cell_setting            triclinic
loop_
_symmetry_equiv_pos_as_xyz
  x,y,z
_cell_length_a                    8.5525
_cell_length_b                    25.2870
_cell_length_c                    17.8270
_cell_angle_alpha                 90.0000
_cell_angle_beta                  90.0000
_cell_angle_gamma                 90.0000
loop_
_atom_site_label
_atom_site_type_symbol
_atom_site_fract_x
_atom_site_fract_y
_atom_site_fract_z
_atom_site_U_iso_or_equiv
_atom_site_adp_type
_atom_site_occupancy
Gd1    Gd    0.16435   0.97638   0.21692   0.01267  Uiso   1.00
Gd2    Gd    0.66435   0.02362   0.28308   0.01267  Uiso   1.00
Gd3    Gd    0.66435   0.47638   0.78308   0.01267  Uiso   1.00
Gd4    Gd    0.16435   0.52362   0.71692   0.01267  Uiso   1.00
Ag1    Ag    0.46123   0.27310   0.04865   0.01267  Uiso   1.00
Ag2    Ag    0.96123   0.72690   0.45135   0.01267  Uiso   1.00
Ag3    Ag    0.96123   0.77310   0.95135   0.01267  Uiso   1.00
Ag4    Ag    0.46123   0.22690   0.54865   0.01267  Uiso   1.00
H1     H     0.39910   0.14040   0.41890   0.01267  Uiso   1.00
H2     H     0.68340   0.20290   0.15960   0.01267  Uiso   1.00
H3     H     0.06220   0.09660   0.64330   0.01267  Uiso   1.00
H4     H     0.24600   0.16290   0.67310   0.01267  Uiso   1.00
H5     H     0.88240   0.06860   0.00400   0.01267  Uiso   1.00
H6     H     0.96650   0.04550   0.50810   0.01267  Uiso   1.00
H7     H     0.55740   0.20630   0.89970   0.01267  Uiso   1.00
H8     H     0.72070   0.13140   0.89440   0.01267  Uiso   1.00
H9     H     0.89910   0.85960   0.08110   0.01267  Uiso   1.00
H10    H     0.18340   0.79710   0.34040   0.01267  Uiso   1.00
H11    H     0.56220   0.90340   0.85670   0.01267  Uiso   1.00
H12    H     0.74600   0.83710   0.82690   0.01267  Uiso   1.00
H13    H     0.38240   0.93140   0.49600   0.01267  Uiso   1.00
H14    H     0.46650   0.95450   0.99190   0.01267  Uiso   1.00
H15    H     0.05740   0.79370   0.60030   0.01267  Uiso   1.00
H16    H     0.22070   0.86860   0.60560   0.01267  Uiso   1.00
H17    H     0.89910   0.64040   0.58110   0.01267  Uiso   1.00
H18    H     0.18340   0.70290   0.84040   0.01267  Uiso   1.00
H19    H     0.56220   0.59660   0.35670   0.01267  Uiso   1.00
H20    H     0.74600   0.66290   0.32690   0.01267  Uiso   1.00
H21    H     0.38240   0.56860   0.99600   0.01267  Uiso   1.00
H22    H     0.46650   0.54550   0.49190   0.01267  Uiso   1.00
H23    H     0.05740   0.70630   0.10030   0.01267  Uiso   1.00
H24    H     0.22070   0.63140   0.10560   0.01267  Uiso   1.00
H25    H     0.39910   0.35960   0.91890   0.01267  Uiso   1.00
H26    H     0.68340   0.29710   0.65960   0.01267  Uiso   1.00
H27    H     0.06220   0.40340   0.14330   0.01267  Uiso   1.00
H28    H     0.24600   0.33710   0.17310   0.01267  Uiso   1.00
H29    H     0.88240   0.43140   0.50400   0.01267  Uiso   1.00
H30    H     0.96650   0.45450   0.00810   0.01267  Uiso   1.00
H31    H     0.55740   0.29370   0.39970   0.01267  Uiso   1.00
H32    H     0.72070   0.36860   0.39440   0.01267  Uiso   1.00
C1     C     0.95070   0.04790   0.14520   0.01267  Uiso   1.00
C2     C     0.86500   0.09360   0.11160   0.01267  Uiso   1.00
C3     C     0.10530   0.05660   0.41780   0.01267  Uiso   1.00
C4     C     0.00980   0.01810   0.37190   0.01267  Uiso   1.00
C5     C     0.30850   0.07460   0.31490   0.01267  Uiso   1.00
C6     C     0.24000   0.08400   0.39060   0.01267  Uiso   1.00
C7     C     0.31460   0.12090   0.43660   0.01267  Uiso   1.00
C8     C     0.72020   0.17570   0.12920   0.01267  Uiso   1.00
C9     C     0.68960   0.17530   0.05260   0.01267  Uiso   1.00
C10    C     0.33970   0.86260   0.25830   0.01267  Uiso   1.00
C11    C     0.23190   0.14770   0.62610   0.01267  Uiso   1.00
C12    C     0.84080   0.09460   0.03510   0.01267  Uiso   1.00
C13    C     0.05430   0.06330   0.49050   0.01267  Uiso   1.00
C14    C     0.80640   0.13480   0.15880   0.01267  Uiso   1.00
C15    C     0.26090   0.12790   0.50910   0.01267  Uiso   1.00
C16    C     0.13850   0.09750   0.53680   0.01267  Uiso   1.00
C17    C     0.75140   0.13620   0.00570   0.01267  Uiso   1.00
C18    C     0.60820   0.19090   0.94030   0.01267  Uiso   1.00
C19    C     0.45070   0.95210   0.35480   0.01267  Uiso   1.00
C20    C     0.36500   0.90640   0.38840   0.01267  Uiso   1.00
C21    C     0.60530   0.94340   0.08220   0.01267  Uiso   1.00
C22    C     0.50980   0.98190   0.12810   0.01267  Uiso   1.00
C23    C     0.80850   0.92540   0.18510   0.01267  Uiso   1.00
C24    C     0.74000   0.91600   0.10940   0.01267  Uiso   1.00
C25    C     0.81460   0.87910   0.06340   0.01267  Uiso   1.00
C26    C     0.22020   0.82430   0.37080   0.01267  Uiso   1.00
C27    C     0.18960   0.82470   0.44740   0.01267  Uiso   1.00
C28    C     0.83970   0.13740   0.24170   0.01267  Uiso   1.00
C29    C     0.73190   0.85230   0.87390   0.01267  Uiso   1.00
C30    C     0.34080   0.90540   0.46490   0.01267  Uiso   1.00
C31    C     0.55430   0.93670   0.00950   0.01267  Uiso   1.00
C32    C     0.30640   0.86520   0.34120   0.01267  Uiso   1.00
C33    C     0.76090   0.87210   0.99090   0.01267  Uiso   1.00
C34    C     0.63850   0.90250   0.96320   0.01267  Uiso   1.00
C35    C     0.25140   0.86380   0.49430   0.01267  Uiso   1.00
C36    C     0.10820   0.80910   0.55970   0.01267  Uiso   1.00
C37    C     0.45070   0.54790   0.85480   0.01267  Uiso   1.00
C38    C     0.36500   0.59360   0.88840   0.01267  Uiso   1.00
C39    C     0.60530   0.55660   0.58220   0.01267  Uiso   1.00
C40    C     0.50980   0.51810   0.62810   0.01267  Uiso   1.00
C41    C     0.80850   0.57460   0.68510   0.01267  Uiso   1.00
C42    C     0.74000   0.58400   0.60940   0.01267  Uiso   1.00
C43    C     0.81460   0.62090   0.56340   0.01267  Uiso   1.00
C44    C     0.22020   0.67570   0.87080   0.01267  Uiso   1.00
C45    C     0.18960   0.67530   0.94740   0.01267  Uiso   1.00
C46    C     0.83970   0.36260   0.74170   0.01267  Uiso   1.00
C47    C     0.73190   0.64770   0.37390   0.01267  Uiso   1.00
C48    C     0.34080   0.59460   0.96490   0.01267  Uiso   1.00
C49    C     0.55430   0.56330   0.50950   0.01267  Uiso   1.00
C50    C     0.30640   0.63480   0.84120   0.01267  Uiso   1.00
C51    C     0.76090   0.62790   0.49090   0.01267  Uiso   1.00
C52    C     0.63850   0.59750   0.46320   0.01267  Uiso   1.00
C53    C     0.25140   0.63620   0.99430   0.01267  Uiso   1.00
C54    C     0.10820   0.69090   0.05970   0.01267  Uiso   1.00
C55    C     0.95070   0.45210   0.64520   0.01267  Uiso   1.00
C56    C     0.86500   0.40640   0.61160   0.01267  Uiso   1.00
C57    C     0.10530   0.44340   0.91780   0.01267  Uiso   1.00
C58    C     0.00980   0.48190   0.87190   0.01267  Uiso   1.00
C59    C     0.30850   0.42540   0.81490   0.01267  Uiso   1.00
C60    C     0.24000   0.41600   0.89060   0.01267  Uiso   1.00
C61    C     0.31460   0.37910   0.93660   0.01267  Uiso   1.00
C62    C     0.72020   0.32430   0.62920   0.01267  Uiso   1.00
C63    C     0.68960   0.32470   0.55260   0.01267  Uiso   1.00
C64    C     0.33970   0.63740   0.75830   0.01267  Uiso   1.00
C65    C     0.23190   0.35230   0.12610   0.01267  Uiso   1.00
C66    C     0.84080   0.40540   0.53510   0.01267  Uiso   1.00
C67    C     0.05430   0.43670   0.99050   0.01267  Uiso   1.00
C68    C     0.80640   0.36520   0.65880   0.01267  Uiso   1.00
C69    C     0.26090   0.37210   0.00910   0.01267  Uiso   1.00
C70    C     0.13850   0.40250   0.03680   0.01267  Uiso   1.00
C71    C     0.75140   0.36380   0.50570   0.01267  Uiso   1.00
C72    C     0.60820   0.30910   0.44030   0.01267  Uiso   1.00
N1     N     0.12630   0.11028   0.61160   0.01267  Uiso   1.00
N2     N     0.31390   0.16080   0.56640   0.01267  Uiso   1.00
N3     N     0.59820   0.20890   0.00920   0.01267  Uiso   1.00
N4     N     0.69890   0.14830   0.93490   0.01267  Uiso   1.00
N5     N     0.62630   0.88972   0.88840   0.01267  Uiso   1.00
N6     N     0.81390   0.83920   0.93360   0.01267  Uiso   1.00
N7     N     0.09820   0.79110   0.49080   0.01267  Uiso   1.00
N8     N     0.19890   0.85170   0.56510   0.01267  Uiso   1.00
N9     N     0.62630   0.61028   0.38840   0.01267  Uiso   1.00
N10    N     0.81390   0.66080   0.43360   0.01267  Uiso   1.00
N11    N     0.09820   0.70890   0.99080   0.01267  Uiso   1.00
N12    N     0.19890   0.64830   0.06510   0.01267  Uiso   1.00
N13    N     0.12630   0.38972   0.11160   0.01267  Uiso   1.00
N14    N     0.31390   0.33920   0.06640   0.01267  Uiso   1.00
N15    N     0.59820   0.29110   0.50920   0.01267  Uiso   1.00
N16    N     0.69890   0.35170   0.43490   0.01267  Uiso   1.00
O1     O     0.07740   0.97937   0.34020   0.01267  Uiso   1.00
O2     O     0.91140   0.03151   0.21080   0.01267  Uiso   1.00
O3     O     0.06180   0.02660   0.11140   0.01267  Uiso   1.00
O4     O     0.86530   0.02476   0.37250   0.01267  Uiso   1.00
O5     O     0.22230   0.06118   0.26100   0.01267  Uiso   1.00
O6     O     0.24670   0.88789   0.21460   0.01267  Uiso   1.00
O7     O     0.44670   0.83480   0.23510   0.01267  Uiso   1.00
O8     O     0.45410   0.08098   0.30850   0.01267  Uiso   1.00
O9     O     0.57740   0.02063   0.15980   0.01267  Uiso   1.00
O10    O     0.41140   0.96849   0.28920   0.01267  Uiso   1.00
O11    O     0.56180   0.97340   0.38860   0.01267  Uiso   1.00
O12    O     0.36530   0.97524   0.12750   0.01267  Uiso   1.00
O13    O     0.72230   0.93882   0.23900   0.01267  Uiso   1.00
O14    O     0.74670   0.11211   0.28540   0.01267  Uiso   1.00
O15    O     0.94670   0.16520   0.26490   0.01267  Uiso   1.00
O16    O     0.95410   0.91902   0.19150   0.01267  Uiso   1.00
O17    O     0.57740   0.47937   0.65980   0.01267  Uiso   1.00
O18    O     0.41140   0.53151   0.78920   0.01267  Uiso   1.00
O19    O     0.56180   0.52660   0.88860   0.01267  Uiso   1.00
O20    O     0.36530   0.52476   0.62750   0.01267  Uiso   1.00
O21    O     0.72230   0.56118   0.73900   0.01267  Uiso   1.00
O22    O     0.74670   0.38789   0.78540   0.01267  Uiso   1.00
O23    O     0.94670   0.33480   0.76490   0.01267  Uiso   1.00
O24    O     0.95410   0.58098   0.69150   0.01267  Uiso   1.00
O25    O     0.07740   0.52063   0.84020   0.01267  Uiso   1.00
O26    O     0.91140   0.46849   0.71080   0.01267  Uiso   1.00
O27    O     0.06180   0.47340   0.61140   0.01267  Uiso   1.00
O28    O     0.86530   0.47524   0.87250   0.01267  Uiso   1.00
O29    O     0.22230   0.43882   0.76100   0.01267  Uiso   1.00
O30    O     0.24670   0.61211   0.71460   0.01267  Uiso   1.00
O31    O     0.44670   0.66520   0.73510   0.01267  Uiso   1.00
O32    O     0.45410   0.41902   0.80850   0.01267  Uiso   1.00
Gd5    Gd    0.33565   0.52362   0.21692   0.01267  Uiso   1.00
Gd6    Gd    0.83565   0.47638   0.28308   0.01267  Uiso   1.00
Gd7    Gd    0.83565   0.02362   0.78308   0.01267  Uiso   1.00
Gd8    Gd    0.33565   0.97638   0.71692   0.01267  Uiso   1.00
Ag5    Ag    0.03877   0.22690   0.04865   0.01267  Uiso   1.00
Ag6    Ag    0.53877   0.77310   0.45135   0.01267  Uiso   1.00
Ag7    Ag    0.53877   0.72690   0.95135   0.01267  Uiso   1.00
Ag8    Ag    0.03877   0.27310   0.54865   0.01267  Uiso   1.00
H33    H     0.10090   0.35960   0.41890   0.01267  Uiso   1.00
H34    H     0.81660   0.29710   0.15960   0.01267  Uiso   1.00
H35    H     0.43780   0.40340   0.64330   0.01267  Uiso   1.00
H36    H     0.25400   0.33710   0.67310   0.01267  Uiso   1.00
H37    H     0.61760   0.43140   0.00400   0.01267  Uiso   1.00
H38    H     0.53350   0.45450   0.50810   0.01267  Uiso   1.00
H39    H     0.94260   0.29370   0.89970   0.01267  Uiso   1.00
H40    H     0.77930   0.36860   0.89440   0.01267  Uiso   1.00
H41    H     0.60090   0.64040   0.08110   0.01267  Uiso   1.00
H42    H     0.31660   0.70290   0.34040   0.01267  Uiso   1.00
H43    H     0.93780   0.59660   0.85670   0.01267  Uiso   1.00
H44    H     0.75400   0.66290   0.82690   0.01267  Uiso   1.00
H45    H     0.11760   0.56860   0.49600   0.01267  Uiso   1.00
H46    H     0.03350   0.54550   0.99190   0.01267  Uiso   1.00
H47    H     0.44260   0.70630   0.60030   0.01267  Uiso   1.00
H48    H     0.27930   0.63140   0.60560   0.01267  Uiso   1.00
H49    H     0.60090   0.85960   0.58110   0.01267  Uiso   1.00
H50    H     0.31660   0.79710   0.84040   0.01267  Uiso   1.00
H51    H     0.93780   0.90340   0.35670   0.01267  Uiso   1.00
H52    H     0.75400   0.83710   0.32690   0.01267  Uiso   1.00
H53    H     0.11760   0.93140   0.99600   0.01267  Uiso   1.00
H54    H     0.03350   0.95450   0.49190   0.01267  Uiso   1.00
H55    H     0.44260   0.79370   0.10030   0.01267  Uiso   1.00
H56    H     0.27930   0.86860   0.10560   0.01267  Uiso   1.00
H57    H     0.10090   0.14040   0.91890   0.01267  Uiso   1.00
H58    H     0.81660   0.20290   0.65960   0.01267  Uiso   1.00
H59    H     0.43780   0.09660   0.14330   0.01267  Uiso   1.00
H60    H     0.25400   0.16290   0.17310   0.01267  Uiso   1.00
H61    H     0.61760   0.06860   0.50400   0.01267  Uiso   1.00
H62    H     0.53350   0.04550   0.00810   0.01267  Uiso   1.00
H63    H     0.94260   0.20630   0.39970   0.01267  Uiso   1.00
H64    H     0.77930   0.13140   0.39440   0.01267  Uiso   1.00
C73    C     0.54930   0.45210   0.14520   0.01267  Uiso   1.00
C74    C     0.63500   0.40640   0.11160   0.01267  Uiso   1.00
C75    C     0.39470   0.44340   0.41780   0.01267  Uiso   1.00
C76    C     0.49020   0.48190   0.37190   0.01267  Uiso   1.00
C77    C     0.19150   0.42540   0.31490   0.01267  Uiso   1.00
C78    C     0.26000   0.41600   0.39060   0.01267  Uiso   1.00
C79    C     0.18540   0.37910   0.43660   0.01267  Uiso   1.00
C80    C     0.77980   0.32430   0.12920   0.01267  Uiso   1.00
C81    C     0.81040   0.32470   0.05260   0.01267  Uiso   1.00
C82    C     0.16030   0.63740   0.25830   0.01267  Uiso   1.00
C83    C     0.26810   0.35230   0.62610   0.01267  Uiso   1.00
C84    C     0.65920   0.40540   0.03510   0.01267  Uiso   1.00
C85    C     0.44570   0.43670   0.49050   0.01267  Uiso   1.00
C86    C     0.69360   0.36520   0.15880   0.01267  Uiso   1.00
C87    C     0.23910   0.37210   0.50910   0.01267  Uiso   1.00
C88    C     0.36150   0.40250   0.53680   0.01267  Uiso   1.00
C89    C     0.74860   0.36380   0.00570   0.01267  Uiso   1.00
C90    C     0.89180   0.30910   0.94030   0.01267  Uiso   1.00
C91    C     0.04930   0.54790   0.35480   0.01267  Uiso   1.00
C92    C     0.13500   0.59360   0.38840   0.01267  Uiso   1.00
C93    C     0.89470   0.55660   0.08220   0.01267  Uiso   1.00
C94    C     0.99020   0.51810   0.12810   0.01267  Uiso   1.00
C95    C     0.69150   0.57460   0.18510   0.01267  Uiso   1.00
C96    C     0.76000   0.58400   0.10940   0.01267  Uiso   1.00
C97    C     0.68540   0.62090   0.06340   0.01267  Uiso   1.00
C98    C     0.27980   0.67570   0.37080   0.01267  Uiso   1.00
C99    C     0.31040   0.67530   0.44740   0.01267  Uiso   1.00
C100   C     0.66030   0.36260   0.24170   0.01267  Uiso   1.00
C101   C     0.76810   0.64770   0.87390   0.01267  Uiso   1.00
C102   C     0.15920   0.59460   0.46490   0.01267  Uiso   1.00
C103   C     0.94570   0.56330   0.00950   0.01267  Uiso   1.00
C104   C     0.19360   0.63480   0.34120   0.01267  Uiso   1.00
C105   C     0.73910   0.62790   0.99090   0.01267  Uiso   1.00
C106   C     0.86150   0.59750   0.96320   0.01267  Uiso   1.00
C107   C     0.24860   0.63620   0.49430   0.01267  Uiso   1.00
C108   C     0.39180   0.69090   0.55970   0.01267  Uiso   1.00
C109   C     0.04930   0.95210   0.85480   0.01267  Uiso   1.00
C110   C     0.13500   0.90640   0.88840   0.01267  Uiso   1.00
C111   C     0.89470   0.94340   0.58220   0.01267  Uiso   1.00
C112   C     0.99020   0.98190   0.62810   0.01267  Uiso   1.00
C113   C     0.69150   0.92540   0.68510   0.01267  Uiso   1.00
C114   C     0.76000   0.91600   0.60940   0.01267  Uiso   1.00
C115   C     0.68540   0.87910   0.56340   0.01267  Uiso   1.00
C116   C     0.27980   0.82430   0.87080   0.01267  Uiso   1.00
C117   C     0.31040   0.82470   0.94740   0.01267  Uiso   1.00
C118   C     0.66030   0.13740   0.74170   0.01267  Uiso   1.00
C119   C     0.76810   0.85230   0.37390   0.01267  Uiso   1.00
C120   C     0.15920   0.90540   0.96490   0.01267  Uiso   1.00
C121   C     0.94570   0.93670   0.50950   0.01267  Uiso   1.00
C122   C     0.19360   0.86520   0.84120   0.01267  Uiso   1.00
C123   C     0.73910   0.87210   0.49090   0.01267  Uiso   1.00
C124   C     0.86150   0.90250   0.46320   0.01267  Uiso   1.00
C125   C     0.24860   0.86380   0.99430   0.01267  Uiso   1.00
C126   C     0.39180   0.80910   0.05970   0.01267  Uiso   1.00
C127   C     0.54930   0.04790   0.64520   0.01267  Uiso   1.00
C128   C     0.63500   0.09360   0.61160   0.01267  Uiso   1.00
C129   C     0.39470   0.05660   0.91780   0.01267  Uiso   1.00
C130   C     0.49020   0.01810   0.87190   0.01267  Uiso   1.00
C131   C     0.19150   0.07460   0.81490   0.01267  Uiso   1.00
C132   C     0.26000   0.08400   0.89060   0.01267  Uiso   1.00
C133   C     0.18540   0.12090   0.93660   0.01267  Uiso   1.00
C134   C     0.77980   0.17570   0.62920   0.01267  Uiso   1.00
C135   C     0.81040   0.17530   0.55260   0.01267  Uiso   1.00
C136   C     0.16030   0.86260   0.75830   0.01267  Uiso   1.00
C137   C     0.26810   0.14770   0.12610   0.01267  Uiso   1.00
C138   C     0.65920   0.09460   0.53510   0.01267  Uiso   1.00
C139   C     0.44570   0.06330   0.99050   0.01267  Uiso   1.00
C140   C     0.69360   0.13480   0.65880   0.01267  Uiso   1.00
C141   C     0.23910   0.12790   0.00910   0.01267  Uiso   1.00
C142   C     0.36150   0.09750   0.03680   0.01267  Uiso   1.00
C143   C     0.74860   0.13620   0.50570   0.01267  Uiso   1.00
C144   C     0.89180   0.19090   0.44030   0.01267  Uiso   1.00
N17    N     0.37370   0.38972   0.61160   0.01267  Uiso   1.00
N18    N     0.18610   0.33920   0.56640   0.01267  Uiso   1.00
N19    N     0.90180   0.29110   0.00920   0.01267  Uiso   1.00
N20    N     0.80110   0.35170   0.93490   0.01267  Uiso   1.00
N21    N     0.87370   0.61028   0.88840   0.01267  Uiso   1.00
N22    N     0.68610   0.66080   0.93360   0.01267  Uiso   1.00
N23    N     0.40180   0.70890   0.49080   0.01267  Uiso   1.00
N24    N     0.30110   0.64830   0.56510   0.01267  Uiso   1.00
N25    N     0.87370   0.88972   0.38840   0.01267  Uiso   1.00
N26    N     0.68610   0.83920   0.43360   0.01267  Uiso   1.00
N27    N     0.40180   0.79110   0.99080   0.01267  Uiso   1.00
N28    N     0.30110   0.85170   0.06510   0.01267  Uiso   1.00
N29    N     0.37370   0.11028   0.11160   0.01267  Uiso   1.00
N30    N     0.18610   0.16080   0.06640   0.01267  Uiso   1.00
N31    N     0.90180   0.20890   0.50920   0.01267  Uiso   1.00
N32    N     0.80110   0.14830   0.43490   0.01267  Uiso   1.00
O33    O     0.42260   0.52063   0.34020   0.01267  Uiso   1.00
O34    O     0.58860   0.46849   0.21080   0.01267  Uiso   1.00
O35    O     0.43820   0.47340   0.11140   0.01267  Uiso   1.00
O36    O     0.63470   0.47524   0.37250   0.01267  Uiso   1.00
O37    O     0.27770   0.43882   0.26100   0.01267  Uiso   1.00
O38    O     0.25330   0.61211   0.21460   0.01267  Uiso   1.00
O39    O     0.05330   0.66520   0.23510   0.01267  Uiso   1.00
O40    O     0.04590   0.41902   0.30850   0.01267  Uiso   1.00
O41    O     0.92260   0.47937   0.15980   0.01267  Uiso   1.00
O42    O     0.08860   0.53151   0.28920   0.01267  Uiso   1.00
O43    O     0.93820   0.52660   0.38860   0.01267  Uiso   1.00
O44    O     0.13470   0.52476   0.12750   0.01267  Uiso   1.00
O45    O     0.77770   0.56118   0.23900   0.01267  Uiso   1.00
O46    O     0.75330   0.38789   0.28540   0.01267  Uiso   1.00
O47    O     0.55330   0.33480   0.26490   0.01267  Uiso   1.00
O48    O     0.54590   0.58098   0.19150   0.01267  Uiso   1.00
O49    O     0.92260   0.02063   0.65980   0.01267  Uiso   1.00
O50    O     0.08860   0.96849   0.78920   0.01267  Uiso   1.00
O51    O     0.93820   0.97340   0.88860   0.01267  Uiso   1.00
O52    O     0.13470   0.97524   0.62750   0.01267  Uiso   1.00
O53    O     0.77770   0.93882   0.73900   0.01267  Uiso   1.00
O54    O     0.75330   0.11211   0.78540   0.01267  Uiso   1.00
O55    O     0.55330   0.16520   0.76490   0.01267  Uiso   1.00
O56    O     0.54590   0.91902   0.69150   0.01267  Uiso   1.00
O57    O     0.42260   0.97937   0.84020   0.01267  Uiso   1.00
O58    O     0.58860   0.03151   0.71080   0.01267  Uiso   1.00
O59    O     0.43820   0.02660   0.61140   0.01267  Uiso   1.00
O60    O     0.63470   0.02476   0.87250   0.01267  Uiso   1.00
O61    O     0.27770   0.06118   0.76100   0.01267  Uiso   1.00
O62    O     0.25330   0.88789   0.71460   0.01267  Uiso   1.00
O63    O     0.05330   0.83480   0.73510   0.01267  Uiso   1.00
O64    O     0.04590   0.08098   0.80850   0.01267  Uiso   1.00
