data_BASTUM_clean
_audit_creation_date              2014-07-02
_audit_creation_method            'Materials Studio'
_symmetry_space_group_name_H-M    'P1'
_symmetry_Int_Tables_number       1
_symmetry_cell_setting            triclinic
loop_
_symmetry_equiv_pos_as_xyz
  x,y,z
_cell_length_a                    8.4884
_cell_length_b                    25.3700
_cell_length_c                    17.8060
_cell_angle_alpha                 90.0000
_cell_angle_beta                  90.0000
_cell_angle_gamma                 90.0000
loop_
_atom_site_label
_atom_site_type_symbol
_atom_site_fract_x
_atom_site_fract_y
_atom_site_fract_z
_atom_site_U_iso_or_equiv
_atom_site_adp_type
_atom_site_occupancy
Ho1    Ho    0.16574   0.02336   0.78249   0.01267  Uiso   1.00
Ho2    Ho    0.66574   0.97664   0.71751   0.01267  Uiso   1.00
Ho3    Ho    0.66574   0.52336   0.21751   0.01267  Uiso   1.00
Ho4    Ho    0.16574   0.47664   0.28249   0.01267  Uiso   1.00
Ag1    Ag    0.46163   0.72731   0.95174   0.01267  Uiso   1.00
Ag2    Ag    0.96163   0.27269   0.54826   0.01267  Uiso   1.00
Ag3    Ag    0.96163   0.22731   0.04826   0.01267  Uiso   1.00
Ag4    Ag    0.46163   0.77269   0.45174   0.01267  Uiso   1.00
H1     H     0.05980   0.90370   0.35770   0.01267  Uiso   1.00
H2     H     0.72080   0.86930   0.10590   0.01267  Uiso   1.00
H3     H     0.96470   0.95490   0.49260   0.01267  Uiso   1.00
H4     H     0.24690   0.83790   0.32720   0.01267  Uiso   1.00
H5     H     0.40110   0.86070   0.58240   0.01267  Uiso   1.00
H6     H     0.88280   0.93290   0.99670   0.01267  Uiso   1.00
H7     H     0.55650   0.79490   0.10040   0.01267  Uiso   1.00
H8     H     0.68790   0.79810   0.84050   0.01267  Uiso   1.00
H9     H     0.55980   0.09630   0.14230   0.01267  Uiso   1.00
H10    H     0.22080   0.13070   0.39410   0.01267  Uiso   1.00
H11    H     0.46470   0.04510   0.00740   0.01267  Uiso   1.00
H12    H     0.74690   0.16210   0.17280   0.01267  Uiso   1.00
H13    H     0.90110   0.13930   0.91760   0.01267  Uiso   1.00
H14    H     0.38280   0.06710   0.50330   0.01267  Uiso   1.00
H15    H     0.05650   0.20510   0.39960   0.01267  Uiso   1.00
H16    H     0.18790   0.20190   0.65950   0.01267  Uiso   1.00
H17    H     0.55980   0.40370   0.64230   0.01267  Uiso   1.00
H18    H     0.22080   0.36930   0.89410   0.01267  Uiso   1.00
H19    H     0.46470   0.45490   0.50740   0.01267  Uiso   1.00
H20    H     0.74690   0.33790   0.67280   0.01267  Uiso   1.00
H21    H     0.90110   0.36070   0.41760   0.01267  Uiso   1.00
H22    H     0.38280   0.43290   0.00330   0.01267  Uiso   1.00
H23    H     0.05650   0.29490   0.89960   0.01267  Uiso   1.00
H24    H     0.18790   0.29810   0.15950   0.01267  Uiso   1.00
H25    H     0.05980   0.59630   0.85770   0.01267  Uiso   1.00
H26    H     0.72080   0.63070   0.60590   0.01267  Uiso   1.00
H27    H     0.96470   0.54510   0.99260   0.01267  Uiso   1.00
H28    H     0.24690   0.66210   0.82720   0.01267  Uiso   1.00
H29    H     0.40110   0.63930   0.08240   0.01267  Uiso   1.00
H30    H     0.88280   0.56710   0.49670   0.01267  Uiso   1.00
H31    H     0.55650   0.70510   0.60040   0.01267  Uiso   1.00
H32    H     0.68790   0.70190   0.34050   0.01267  Uiso   1.00
C1     C     0.01020   0.98272   0.62930   0.01267  Uiso   1.00
C2     C     0.10540   0.94435   0.58320   0.01267  Uiso   1.00
C3     C     0.05350   0.93741   0.51030   0.01267  Uiso   1.00
C4     C     0.13830   0.90334   0.46420   0.01267  Uiso   1.00
C5     C     0.23230   0.85281   0.37440   0.01267  Uiso   1.00
C6     C     0.26070   0.87250   0.49210   0.01267  Uiso   1.00
C7     C     0.31570   0.87999   0.56450   0.01267  Uiso   1.00
C8     C     0.24110   0.91690   0.61000   0.01267  Uiso   1.00
C9     C     0.31080   0.92663   0.68590   0.01267  Uiso   1.00
C10    C     0.95200   0.95335   0.85400   0.01267  Uiso   1.00
C11    C     0.86600   0.90770   0.88790   0.01267  Uiso   1.00
C12    C     0.84170   0.90684   0.96560   0.01267  Uiso   1.00
C13    C     0.75310   0.86514   0.99430   0.01267  Uiso   1.00
C14    C     0.60830   0.81011   0.05980   0.01267  Uiso   1.00
C15    C     0.69140   0.82586   0.94760   0.01267  Uiso   1.00
C16    C     0.72340   0.82545   0.87090   0.01267  Uiso   1.00
C17    C     0.80900   0.86670   0.84090   0.01267  Uiso   1.00
C18    C     0.84270   0.86473   0.75780   0.01267  Uiso   1.00
C19    C     0.51020   0.01728   0.87070   0.01267  Uiso   1.00
C20    C     0.60540   0.05565   0.91680   0.01267  Uiso   1.00
C21    C     0.55350   0.06259   0.98970   0.01267  Uiso   1.00
C22    C     0.63830   0.09666   0.03580   0.01267  Uiso   1.00
C23    C     0.73230   0.14719   0.12560   0.01267  Uiso   1.00
C24    C     0.76070   0.12750   0.00790   0.01267  Uiso   1.00
C25    C     0.81570   0.12001   0.93550   0.01267  Uiso   1.00
C26    C     0.74110   0.08310   0.89000   0.01267  Uiso   1.00
C27    C     0.81080   0.07337   0.81410   0.01267  Uiso   1.00
C28    C     0.45200   0.04665   0.64600   0.01267  Uiso   1.00
C29    C     0.36600   0.09230   0.61210   0.01267  Uiso   1.00
C30    C     0.34170   0.09316   0.53440   0.01267  Uiso   1.00
C31    C     0.25310   0.13486   0.50570   0.01267  Uiso   1.00
C32    C     0.10830   0.18989   0.44020   0.01267  Uiso   1.00
C33    C     0.19140   0.17414   0.55240   0.01267  Uiso   1.00
C34    C     0.22340   0.17455   0.62910   0.01267  Uiso   1.00
C35    C     0.30900   0.13330   0.65910   0.01267  Uiso   1.00
C36    C     0.34270   0.13527   0.74220   0.01267  Uiso   1.00
C37    C     0.51020   0.48272   0.37070   0.01267  Uiso   1.00
C38    C     0.60540   0.44435   0.41680   0.01267  Uiso   1.00
C39    C     0.55350   0.43741   0.48970   0.01267  Uiso   1.00
C40    C     0.63830   0.40334   0.53580   0.01267  Uiso   1.00
C41    C     0.73230   0.35281   0.62560   0.01267  Uiso   1.00
C42    C     0.76070   0.37250   0.50790   0.01267  Uiso   1.00
C43    C     0.81570   0.37999   0.43550   0.01267  Uiso   1.00
C44    C     0.74110   0.41690   0.39000   0.01267  Uiso   1.00
C45    C     0.81080   0.42663   0.31410   0.01267  Uiso   1.00
C46    C     0.45200   0.45335   0.14600   0.01267  Uiso   1.00
C47    C     0.36600   0.40770   0.11210   0.01267  Uiso   1.00
C48    C     0.34170   0.40684   0.03440   0.01267  Uiso   1.00
C49    C     0.25310   0.36514   0.00570   0.01267  Uiso   1.00
C50    C     0.10830   0.31011   0.94020   0.01267  Uiso   1.00
C51    C     0.19140   0.32586   0.05240   0.01267  Uiso   1.00
C52    C     0.22340   0.32545   0.12910   0.01267  Uiso   1.00
C53    C     0.30900   0.36670   0.15910   0.01267  Uiso   1.00
C54    C     0.34270   0.36473   0.24220   0.01267  Uiso   1.00
C55    C     0.01020   0.51728   0.12930   0.01267  Uiso   1.00
C56    C     0.10540   0.55565   0.08320   0.01267  Uiso   1.00
C57    C     0.05350   0.56259   0.01030   0.01267  Uiso   1.00
C58    C     0.13830   0.59666   0.96420   0.01267  Uiso   1.00
C59    C     0.23230   0.64719   0.87440   0.01267  Uiso   1.00
C60    C     0.26070   0.62750   0.99210   0.01267  Uiso   1.00
C61    C     0.31570   0.62001   0.06450   0.01267  Uiso   1.00
C62    C     0.24110   0.58310   0.11000   0.01267  Uiso   1.00
C63    C     0.31080   0.57337   0.18590   0.01267  Uiso   1.00
C64    C     0.95200   0.54665   0.35400   0.01267  Uiso   1.00
C65    C     0.86600   0.59230   0.38790   0.01267  Uiso   1.00
C66    C     0.84170   0.59316   0.46560   0.01267  Uiso   1.00
C67    C     0.75310   0.63486   0.49430   0.01267  Uiso   1.00
C68    C     0.60830   0.68989   0.55980   0.01267  Uiso   1.00
C69    C     0.69140   0.67414   0.44760   0.01267  Uiso   1.00
C70    C     0.72340   0.67455   0.37090   0.01267  Uiso   1.00
C71    C     0.80900   0.63330   0.34090   0.01267  Uiso   1.00
C72    C     0.84270   0.63527   0.25780   0.01267  Uiso   1.00
N1     N     0.12510   0.89028   0.38929   0.01267  Uiso   1.00
N2     N     0.31460   0.83955   0.43452   0.01267  Uiso   1.00
N3     N     0.59950   0.79178   0.99055   0.01267  Uiso   1.00
N4     N     0.69920   0.85255   0.06521   0.01267  Uiso   1.00
N5     N     0.62510   0.10972   0.11071   0.01267  Uiso   1.00
N6     N     0.81460   0.16045   0.06548   0.01267  Uiso   1.00
N7     N     0.09950   0.20822   0.50945   0.01267  Uiso   1.00
N8     N     0.19920   0.14745   0.43479   0.01267  Uiso   1.00
N9     N     0.62510   0.39028   0.61071   0.01267  Uiso   1.00
N10    N     0.81460   0.33955   0.56548   0.01267  Uiso   1.00
N11    N     0.09950   0.29178   0.00945   0.01267  Uiso   1.00
N12    N     0.19920   0.35255   0.93479   0.01267  Uiso   1.00
N13    N     0.12510   0.60972   0.88929   0.01267  Uiso   1.00
N14    N     0.31460   0.66045   0.93452   0.01267  Uiso   1.00
N15    N     0.59950   0.70822   0.49055   0.01267  Uiso   1.00
N16    N     0.69920   0.64745   0.56521   0.01267  Uiso   1.00
O1     O     0.07790   0.02106   0.66116   0.01267  Uiso   1.00
O2     O     0.86390   0.97599   0.62882   0.01267  Uiso   1.00
O3     O     0.22440   0.94015   0.74011   0.01267  Uiso   1.00
O4     O     0.45780   0.92025   0.69172   0.01267  Uiso   1.00
O5     O     0.06460   0.97478   0.88761   0.01267  Uiso   1.00
O6     O     0.91190   0.96901   0.78855   0.01267  Uiso   1.00
O7     O     0.74780   0.88979   0.71460   0.01267  Uiso   1.00
O8     O     0.94970   0.83663   0.73435   0.01267  Uiso   1.00
O9     O     0.57790   0.97894   0.83884   0.01267  Uiso   1.00
O10    O     0.36390   0.02401   0.87118   0.01267  Uiso   1.00
O11    O     0.72440   0.05985   0.75989   0.01267  Uiso   1.00
O12    O     0.95780   0.07975   0.80828   0.01267  Uiso   1.00
O13    O     0.56460   0.02522   0.61239   0.01267  Uiso   1.00
O14    O     0.41190   0.03099   0.71145   0.01267  Uiso   1.00
O15    O     0.24780   0.11021   0.78540   0.01267  Uiso   1.00
O16    O     0.44970   0.16337   0.76565   0.01267  Uiso   1.00
O17    O     0.57790   0.52106   0.33884   0.01267  Uiso   1.00
O18    O     0.36390   0.47599   0.37118   0.01267  Uiso   1.00
O19    O     0.72440   0.44015   0.25989   0.01267  Uiso   1.00
O20    O     0.95780   0.42025   0.30828   0.01267  Uiso   1.00
O21    O     0.56460   0.47478   0.11239   0.01267  Uiso   1.00
O22    O     0.41190   0.46901   0.21145   0.01267  Uiso   1.00
O23    O     0.24780   0.38979   0.28540   0.01267  Uiso   1.00
O24    O     0.44970   0.33663   0.26565   0.01267  Uiso   1.00
O25    O     0.07790   0.47894   0.16116   0.01267  Uiso   1.00
O26    O     0.86390   0.52401   0.12882   0.01267  Uiso   1.00
O27    O     0.22440   0.55985   0.24011   0.01267  Uiso   1.00
O28    O     0.45780   0.57975   0.19172   0.01267  Uiso   1.00
O29    O     0.06460   0.52522   0.38761   0.01267  Uiso   1.00
O30    O     0.91190   0.53099   0.28855   0.01267  Uiso   1.00
O31    O     0.74780   0.61021   0.21460   0.01267  Uiso   1.00
O32    O     0.94970   0.66337   0.23435   0.01267  Uiso   1.00
Ho5    Ho    0.33426   0.47664   0.78249   0.01267  Uiso   1.00
Ho6    Ho    0.83426   0.52336   0.71751   0.01267  Uiso   1.00
Ho7    Ho    0.83426   0.97664   0.21751   0.01267  Uiso   1.00
Ho8    Ho    0.33426   0.02336   0.28249   0.01267  Uiso   1.00
Ag5    Ag    0.03837   0.77269   0.95174   0.01267  Uiso   1.00
Ag6    Ag    0.53837   0.22731   0.54826   0.01267  Uiso   1.00
Ag7    Ag    0.53837   0.27269   0.04826   0.01267  Uiso   1.00
Ag8    Ag    0.03837   0.72731   0.45174   0.01267  Uiso   1.00
H33    H     0.44020   0.59630   0.35770   0.01267  Uiso   1.00
H34    H     0.77920   0.63070   0.10590   0.01267  Uiso   1.00
H35    H     0.53530   0.54510   0.49260   0.01267  Uiso   1.00
H36    H     0.25310   0.66210   0.32720   0.01267  Uiso   1.00
H37    H     0.09890   0.63930   0.58240   0.01267  Uiso   1.00
H38    H     0.61720   0.56710   0.99670   0.01267  Uiso   1.00
H39    H     0.94350   0.70510   0.10040   0.01267  Uiso   1.00
H40    H     0.81210   0.70190   0.84050   0.01267  Uiso   1.00
H41    H     0.94020   0.40370   0.14230   0.01267  Uiso   1.00
H42    H     0.27920   0.36930   0.39410   0.01267  Uiso   1.00
H43    H     0.03530   0.45490   0.00740   0.01267  Uiso   1.00
H44    H     0.75310   0.33790   0.17280   0.01267  Uiso   1.00
H45    H     0.59890   0.36070   0.91760   0.01267  Uiso   1.00
H46    H     0.11720   0.43290   0.50330   0.01267  Uiso   1.00
H47    H     0.44350   0.29490   0.39960   0.01267  Uiso   1.00
H48    H     0.31210   0.29810   0.65950   0.01267  Uiso   1.00
H49    H     0.94020   0.09630   0.64230   0.01267  Uiso   1.00
H50    H     0.27920   0.13070   0.89410   0.01267  Uiso   1.00
H51    H     0.03530   0.04510   0.50740   0.01267  Uiso   1.00
H52    H     0.75310   0.16210   0.67280   0.01267  Uiso   1.00
H53    H     0.59890   0.13930   0.41760   0.01267  Uiso   1.00
H54    H     0.11720   0.06710   0.00330   0.01267  Uiso   1.00
H55    H     0.44350   0.20510   0.89960   0.01267  Uiso   1.00
H56    H     0.31210   0.20190   0.15950   0.01267  Uiso   1.00
H57    H     0.44020   0.90370   0.85770   0.01267  Uiso   1.00
H58    H     0.77920   0.86930   0.60590   0.01267  Uiso   1.00
H59    H     0.53530   0.95490   0.99260   0.01267  Uiso   1.00
H60    H     0.25310   0.83790   0.82720   0.01267  Uiso   1.00
H61    H     0.09890   0.86070   0.08240   0.01267  Uiso   1.00
H62    H     0.61720   0.93290   0.49670   0.01267  Uiso   1.00
H63    H     0.94350   0.79490   0.60040   0.01267  Uiso   1.00
H64    H     0.81210   0.79810   0.34050   0.01267  Uiso   1.00
C73    C     0.48980   0.51728   0.62930   0.01267  Uiso   1.00
C74    C     0.39460   0.55565   0.58320   0.01267  Uiso   1.00
C75    C     0.44650   0.56259   0.51030   0.01267  Uiso   1.00
C76    C     0.36170   0.59666   0.46420   0.01267  Uiso   1.00
C77    C     0.26770   0.64719   0.37440   0.01267  Uiso   1.00
C78    C     0.23930   0.62750   0.49210   0.01267  Uiso   1.00
C79    C     0.18430   0.62001   0.56450   0.01267  Uiso   1.00
C80    C     0.25890   0.58310   0.61000   0.01267  Uiso   1.00
C81    C     0.18920   0.57337   0.68590   0.01267  Uiso   1.00
C82    C     0.54800   0.54665   0.85400   0.01267  Uiso   1.00
C83    C     0.63400   0.59230   0.88790   0.01267  Uiso   1.00
C84    C     0.65830   0.59316   0.96560   0.01267  Uiso   1.00
C85    C     0.74690   0.63486   0.99430   0.01267  Uiso   1.00
C86    C     0.89170   0.68989   0.05980   0.01267  Uiso   1.00
C87    C     0.80860   0.67414   0.94760   0.01267  Uiso   1.00
C88    C     0.77660   0.67455   0.87090   0.01267  Uiso   1.00
C89    C     0.69100   0.63330   0.84090   0.01267  Uiso   1.00
C90    C     0.65730   0.63527   0.75780   0.01267  Uiso   1.00
C91    C     0.98980   0.48272   0.87070   0.01267  Uiso   1.00
C92    C     0.89460   0.44435   0.91680   0.01267  Uiso   1.00
C93    C     0.94650   0.43741   0.98970   0.01267  Uiso   1.00
C94    C     0.86170   0.40334   0.03580   0.01267  Uiso   1.00
C95    C     0.76770   0.35281   0.12560   0.01267  Uiso   1.00
C96    C     0.73930   0.37250   0.00790   0.01267  Uiso   1.00
C97    C     0.68430   0.37999   0.93550   0.01267  Uiso   1.00
C98    C     0.75890   0.41690   0.89000   0.01267  Uiso   1.00
C99    C     0.68920   0.42663   0.81410   0.01267  Uiso   1.00
C100   C     0.04800   0.45335   0.64600   0.01267  Uiso   1.00
C101   C     0.13400   0.40770   0.61210   0.01267  Uiso   1.00
C102   C     0.15830   0.40684   0.53440   0.01267  Uiso   1.00
C103   C     0.24690   0.36514   0.50570   0.01267  Uiso   1.00
C104   C     0.39170   0.31011   0.44020   0.01267  Uiso   1.00
C105   C     0.30860   0.32586   0.55240   0.01267  Uiso   1.00
C106   C     0.27660   0.32545   0.62910   0.01267  Uiso   1.00
C107   C     0.19100   0.36670   0.65910   0.01267  Uiso   1.00
C108   C     0.15730   0.36473   0.74220   0.01267  Uiso   1.00
C109   C     0.98980   0.01728   0.37070   0.01267  Uiso   1.00
C110   C     0.89460   0.05565   0.41680   0.01267  Uiso   1.00
C111   C     0.94650   0.06259   0.48970   0.01267  Uiso   1.00
C112   C     0.86170   0.09666   0.53580   0.01267  Uiso   1.00
C113   C     0.76770   0.14719   0.62560   0.01267  Uiso   1.00
C114   C     0.73930   0.12750   0.50790   0.01267  Uiso   1.00
C115   C     0.68430   0.12001   0.43550   0.01267  Uiso   1.00
C116   C     0.75890   0.08310   0.39000   0.01267  Uiso   1.00
C117   C     0.68920   0.07337   0.31410   0.01267  Uiso   1.00
C118   C     0.04800   0.04665   0.14600   0.01267  Uiso   1.00
C119   C     0.13400   0.09230   0.11210   0.01267  Uiso   1.00
C120   C     0.15830   0.09316   0.03440   0.01267  Uiso   1.00
C121   C     0.24690   0.13486   0.00570   0.01267  Uiso   1.00
C122   C     0.39170   0.18989   0.94020   0.01267  Uiso   1.00
C123   C     0.30860   0.17414   0.05240   0.01267  Uiso   1.00
C124   C     0.27660   0.17455   0.12910   0.01267  Uiso   1.00
C125   C     0.19100   0.13330   0.15910   0.01267  Uiso   1.00
C126   C     0.15730   0.13527   0.24220   0.01267  Uiso   1.00
C127   C     0.48980   0.98272   0.12930   0.01267  Uiso   1.00
C128   C     0.39460   0.94435   0.08320   0.01267  Uiso   1.00
C129   C     0.44650   0.93741   0.01030   0.01267  Uiso   1.00
C130   C     0.36170   0.90334   0.96420   0.01267  Uiso   1.00
C131   C     0.26770   0.85281   0.87440   0.01267  Uiso   1.00
C132   C     0.23930   0.87250   0.99210   0.01267  Uiso   1.00
C133   C     0.18430   0.87999   0.06450   0.01267  Uiso   1.00
C134   C     0.25890   0.91690   0.11000   0.01267  Uiso   1.00
C135   C     0.18920   0.92663   0.18590   0.01267  Uiso   1.00
C136   C     0.54800   0.95335   0.35400   0.01267  Uiso   1.00
C137   C     0.63400   0.90770   0.38790   0.01267  Uiso   1.00
C138   C     0.65830   0.90684   0.46560   0.01267  Uiso   1.00
C139   C     0.74690   0.86514   0.49430   0.01267  Uiso   1.00
C140   C     0.89170   0.81011   0.55980   0.01267  Uiso   1.00
C141   C     0.80860   0.82586   0.44760   0.01267  Uiso   1.00
C142   C     0.77660   0.82545   0.37090   0.01267  Uiso   1.00
C143   C     0.69100   0.86670   0.34090   0.01267  Uiso   1.00
C144   C     0.65730   0.86473   0.25780   0.01267  Uiso   1.00
N17    N     0.37490   0.60972   0.38929   0.01267  Uiso   1.00
N18    N     0.18540   0.66045   0.43452   0.01267  Uiso   1.00
N19    N     0.90050   0.70822   0.99055   0.01267  Uiso   1.00
N20    N     0.80080   0.64745   0.06521   0.01267  Uiso   1.00
N21    N     0.87490   0.39028   0.11071   0.01267  Uiso   1.00
N22    N     0.68540   0.33955   0.06548   0.01267  Uiso   1.00
N23    N     0.40050   0.29178   0.50945   0.01267  Uiso   1.00
N24    N     0.30080   0.35255   0.43479   0.01267  Uiso   1.00
N25    N     0.87490   0.10972   0.61071   0.01267  Uiso   1.00
N26    N     0.68540   0.16045   0.56548   0.01267  Uiso   1.00
N27    N     0.40050   0.20822   0.00945   0.01267  Uiso   1.00
N28    N     0.30080   0.14745   0.93479   0.01267  Uiso   1.00
N29    N     0.37490   0.89028   0.88929   0.01267  Uiso   1.00
N30    N     0.18540   0.83955   0.93452   0.01267  Uiso   1.00
N31    N     0.90050   0.79178   0.49055   0.01267  Uiso   1.00
N32    N     0.80080   0.85255   0.56521   0.01267  Uiso   1.00
O33    O     0.42210   0.47894   0.66116   0.01267  Uiso   1.00
O34    O     0.63610   0.52401   0.62882   0.01267  Uiso   1.00
O35    O     0.27560   0.55985   0.74011   0.01267  Uiso   1.00
O36    O     0.04220   0.57975   0.69172   0.01267  Uiso   1.00
O37    O     0.43540   0.52522   0.88761   0.01267  Uiso   1.00
O38    O     0.58810   0.53099   0.78855   0.01267  Uiso   1.00
O39    O     0.75220   0.61021   0.71460   0.01267  Uiso   1.00
O40    O     0.55030   0.66337   0.73435   0.01267  Uiso   1.00
O41    O     0.92210   0.52106   0.83884   0.01267  Uiso   1.00
O42    O     0.13610   0.47599   0.87118   0.01267  Uiso   1.00
O43    O     0.77560   0.44015   0.75989   0.01267  Uiso   1.00
O44    O     0.54220   0.42025   0.80828   0.01267  Uiso   1.00
O45    O     0.93540   0.47478   0.61239   0.01267  Uiso   1.00
O46    O     0.08810   0.46901   0.71145   0.01267  Uiso   1.00
O47    O     0.25220   0.38979   0.78540   0.01267  Uiso   1.00
O48    O     0.05030   0.33663   0.76565   0.01267  Uiso   1.00
O49    O     0.92210   0.97894   0.33884   0.01267  Uiso   1.00
O50    O     0.13610   0.02401   0.37118   0.01267  Uiso   1.00
O51    O     0.77560   0.05985   0.25989   0.01267  Uiso   1.00
O52    O     0.54220   0.07975   0.30828   0.01267  Uiso   1.00
O53    O     0.93540   0.02522   0.11239   0.01267  Uiso   1.00
O54    O     0.08810   0.03099   0.21145   0.01267  Uiso   1.00
O55    O     0.25220   0.11021   0.28540   0.01267  Uiso   1.00
O56    O     0.05030   0.16337   0.26565   0.01267  Uiso   1.00
O57    O     0.42210   0.02106   0.16116   0.01267  Uiso   1.00
O58    O     0.63610   0.97599   0.12882   0.01267  Uiso   1.00
O59    O     0.27560   0.94015   0.24011   0.01267  Uiso   1.00
O60    O     0.04220   0.92025   0.19172   0.01267  Uiso   1.00
O61    O     0.43540   0.97478   0.38761   0.01267  Uiso   1.00
O62    O     0.58810   0.96901   0.28855   0.01267  Uiso   1.00
O63    O     0.75220   0.88979   0.21460   0.01267  Uiso   1.00
O64    O     0.55030   0.83663   0.23435   0.01267  Uiso   1.00
