data_image0
_cell_length_a       8.0306
_cell_length_b       19.408
_cell_length_c       8.8862
_cell_angle_alpha    90
_cell_angle_beta     92.816
_cell_angle_gamma    90

_symmetry_space_group_name_H-M    "P 1"
_symmetry_int_tables_number       1

loop_
  _symmetry_equiv_pos_as_xyz
  'x, y, z'

loop_
  _atom_site_label
  _atom_site_occupancy
  _atom_site_fract_x
  _atom_site_fract_y
  _atom_site_fract_z
  _atom_site_thermal_displace_type
  _atom_site_B_iso_or_equiv
  _atom_site_type_symbol
  N1       1.0000 0.86380  0.08010  0.08400  Biso   1.000  N
  N2       1.0000 0.69440  0.08630  0.06980  Biso   1.000  N
  N3       1.0000 0.79620  0.17830  0.16330  Biso   1.000  N
  N4       1.0000 0.82540  0.24340  0.22390  Biso   1.000  N
  N5       1.0000 0.69330  0.27450  0.22240  Biso   1.000  N
  N6       1.0000 0.72050  0.33810  0.28230  Biso   1.000  N
  N7       1.0000 0.64600  0.42910  0.39560  Biso   1.000  N
  N8       1.0000 0.81650  0.42520  0.40450  Biso   1.000  N
  N9       1.0000 0.15450  0.00360  0.19280  Biso   1.000  N
  N10      1.0000 0.07920  0.00490  0.33170  Biso   1.000  N
  N11      1.0000 0.34440  0.00250  0.36820  Biso   1.000  N
  N12      1.0000 0.50180  0.99990  0.43060  Biso   1.000  N
  C1       1.0000 0.92170  0.13460  0.14120  Biso   1.000  C
  H1       1.0000 0.03390  0.14330  0.16460  Biso   1.000  H
  C2       1.0000 0.65680  0.14500  0.11870  Biso   1.000  C
  H2       1.0000 0.54910  0.16230  0.12300  Biso   1.000  H
  C3       1.0000 0.59270  0.37680  0.32140  Biso   1.000  C
  H3       1.0000 0.48100  0.36720  0.29790  Biso   1.000  H
  C4       1.0000 0.85650  0.36980  0.33970  Biso   1.000  C
  H4       1.0000 0.96490  0.35370  0.33310  Biso   1.000  H
  C5       1.0000 0.31380  0.00270  0.21940  Biso   1.000  C
  H5       1.0000 0.39370  0.00220  0.14710  Biso   1.000  H
  C6       1.0000 0.19480  0.00370  0.43370  Biso   1.000  C
  H6       1.0000 0.17990  0.00360  0.53690  Biso   1.000  H
  N13      1.0000 0.63620  0.58010  0.41600  Biso   1.000  N
  N14      1.0000 0.80560  0.58630  0.43020  Biso   1.000  N
  N15      1.0000 0.70380  0.67830  0.33670  Biso   1.000  N
  N16      1.0000 0.67460  0.74340  0.27610  Biso   1.000  N
  N17      1.0000 0.80670  0.77450  0.27760  Biso   1.000  N
  N18      1.0000 0.77950  0.83810  0.21770  Biso   1.000  N
  N19      1.0000 0.85400  0.92910  0.10440  Biso   1.000  N
  N20      1.0000 0.68350  0.92520  0.09550  Biso   1.000  N
  N21      1.0000 0.34550  0.50360  0.30720  Biso   1.000  N
  N22      1.0000 0.42080  0.50490  0.16830  Biso   1.000  N
  N23      1.0000 0.15560  0.50250  0.13180  Biso   1.000  N
  N24      1.0000 0.99820  0.49990  0.06940  Biso   1.000  N
  C7       1.0000 0.57830  0.63460  0.35880  Biso   1.000  C
  H7       1.0000 0.46610  0.64330  0.33540  Biso   1.000  H
  C8       1.0000 0.84320  0.64500  0.38130  Biso   1.000  C
  H8       1.0000 0.95090  0.66230  0.37700  Biso   1.000  H
  C9       1.0000 0.90730  0.87680  0.17860  Biso   1.000  C
  H9       1.0000 0.01900  0.86720  0.20210  Biso   1.000  H
  C10      1.0000 0.64350  0.86980  0.16030  Biso   1.000  C
  H10      1.0000 0.53510  0.85370  0.16690  Biso   1.000  H
  C11      1.0000 0.18620  0.50270  0.28060  Biso   1.000  C
  H11      1.0000 0.10630  0.50220  0.35290  Biso   1.000  H
  C12      1.0000 0.30520  0.50370  0.06630  Biso   1.000  C
  H12      1.0000 0.32010  0.50360  0.96310  Biso   1.000  H
  N25      1.0000 0.13620  0.91990  0.91600  Biso   1.000  N
  N26      1.0000 0.30560  0.91370  0.93020  Biso   1.000  N
  N27      1.0000 0.20380  0.82170  0.83670  Biso   1.000  N
  N28      1.0000 0.17460  0.75660  0.77610  Biso   1.000  N
  N29      1.0000 0.30670  0.72550  0.77760  Biso   1.000  N
  N30      1.0000 0.27950  0.66190  0.71770  Biso   1.000  N
  N31      1.0000 0.35400  0.57090  0.60440  Biso   1.000  N
  N32      1.0000 0.18350  0.57480  0.59550  Biso   1.000  N
  N33      1.0000 0.84550  0.99640  0.80720  Biso   1.000  N
  N34      1.0000 0.92080  0.99510  0.66830  Biso   1.000  N
  N35      1.0000 0.65560  0.99750  0.63180  Biso   1.000  N
  N36      1.0000 0.49820  0.00010  0.56940  Biso   1.000  N
  C13      1.0000 0.07830  0.86540  0.85880  Biso   1.000  C
  H13      1.0000 0.96610  0.85670  0.83540  Biso   1.000  H
  C14      1.0000 0.34320  0.85500  0.88130  Biso   1.000  C
  H14      1.0000 0.45090  0.83770  0.87700  Biso   1.000  H
  C15      1.0000 0.40730  0.62320  0.67860  Biso   1.000  C
  H15      1.0000 0.51900  0.63280  0.70210  Biso   1.000  H
  C16      1.0000 0.14350  0.63020  0.66030  Biso   1.000  C
  H16      1.0000 0.03510  0.64630  0.66690  Biso   1.000  H
  C17      1.0000 0.68620  0.99730  0.78060  Biso   1.000  C
  H17      1.0000 0.60630  0.99780  0.85290  Biso   1.000  H
  C18      1.0000 0.80520  0.99630  0.56630  Biso   1.000  C
  H18      1.0000 0.82010  0.99640  0.46310  Biso   1.000  H
  N37      1.0000 0.36380  0.41990  0.58400  Biso   1.000  N
  N38      1.0000 0.19440  0.41370  0.56980  Biso   1.000  N
  N39      1.0000 0.29620  0.32170  0.66330  Biso   1.000  N
  N40      1.0000 0.32540  0.25660  0.72390  Biso   1.000  N
  N41      1.0000 0.19330  0.22550  0.72240  Biso   1.000  N
  N42      1.0000 0.22050  0.16190  0.78230  Biso   1.000  N
  N43      1.0000 0.14600  0.07090  0.89560  Biso   1.000  N
  N44      1.0000 0.31650  0.07480  0.90450  Biso   1.000  N
  N45      1.0000 0.65450  0.49640  0.69280  Biso   1.000  N
  N46      1.0000 0.57920  0.49510  0.83170  Biso   1.000  N
  N47      1.0000 0.84440  0.49750  0.86820  Biso   1.000  N
  N48      1.0000 0.00180  0.50010  0.93060  Biso   1.000  N
  C19      1.0000 0.42170  0.36540  0.64120  Biso   1.000  C
  H19      1.0000 0.53390  0.35670  0.66460  Biso   1.000  H
  C20      1.0000 0.15680  0.35500  0.61870  Biso   1.000  C
  H20      1.0000 0.04910  0.33770  0.62300  Biso   1.000  H
  C21      1.0000 0.09270  0.12320  0.82140  Biso   1.000  C
  H21      1.0000 0.98100  0.13280  0.79790  Biso   1.000  H
  C22      1.0000 0.35650  0.13020  0.83970  Biso   1.000  C
  H22      1.0000 0.46490  0.14630  0.83310  Biso   1.000  H
  C23      1.0000 0.81380  0.49730  0.71940  Biso   1.000  C
  H23      1.0000 0.89370  0.49780  0.64710  Biso   1.000  H
  C24      1.0000 0.69480  0.49630  0.93370  Biso   1.000  C
  H24      1.0000 0.67990  0.49640  0.03690  Biso   1.000  H
  Fe1      1.0000 0.00000  0.00000  0.00000  Biso   1.000  Fe
  Fe2      1.0000 0.50000  0.50000  0.50000  Biso   1.000  Fe
