data_image0
_cell_length_a       8.1446
_cell_length_b       20.2603
_cell_length_c       8.8515
_cell_angle_alpha    90
_cell_angle_beta     90.061
_cell_angle_gamma    90

_symmetry_space_group_name_H-M    "P 1"
_symmetry_int_tables_number       1

loop_
  _symmetry_equiv_pos_as_xyz
  'x, y, z'

loop_
  _atom_site_label
  _atom_site_occupancy
  _atom_site_fract_x
  _atom_site_fract_y
  _atom_site_fract_z
  _atom_site_thermal_displace_type
  _atom_site_B_iso_or_equiv
  _atom_site_type_symbol
  N1       1.0000 0.85700  0.91870  0.90450  Biso   1.000  N
  N2       1.0000 0.68800  0.91400  0.91230  Biso   1.000  N
  N3       1.0000 0.79100  0.82140  0.83100  Biso   1.000  N
  N4       1.0000 0.82170  0.75661  0.77450  Biso   1.000  N
  N5       1.0000 0.69200  0.72924  0.77610  Biso   1.000  N
  N6       1.0000 0.72320  0.66446  0.71640  Biso   1.000  N
  N7       1.0000 0.64900  0.57345  0.61430  Biso   1.000  N
  N8       1.0000 0.81910  0.57841  0.60190  Biso   1.000  N
  N9       1.0000 0.16250  0.99635  0.80420  Biso   1.000  N
  N10      1.0000 0.08530  0.99584  0.66400  Biso   1.000  N
  N11      1.0000 0.34900  0.99880  0.63100  Biso   1.000  N
  N12      1.0000 0.50370  0.00117  0.56980  Biso   1.000  N
  C1       1.0000 0.91340  0.86310  0.85430  Biso   1.000  C
  C2       1.0000 0.65260  0.85420  0.86760  Biso   1.000  C
  C3       1.0000 0.85830  0.63430  0.66270  Biso   1.000  C
  C4       1.0000 0.59670  0.62520  0.68360  Biso   1.000  C
  C5       1.0000 0.31950  0.99851  0.78150  Biso   1.000  C
  C6       1.0000 0.19960  0.99800  0.56320  Biso   1.000  C
  H1       1.0000 0.02600  0.85200  0.83400  Biso   1.000  H
  H2       1.0000 0.56100  0.83960  0.85000  Biso   1.000  H
  H3       1.0000 0.96900  0.64680  0.67300  Biso   1.000  H
  H4       1.0000 0.49700  0.63200  0.70500  Biso   1.000  H
  H5       1.0000 0.39700  0.99930  0.85500  Biso   1.000  H
  H6       1.0000 0.18200  0.99700  0.46700  Biso   1.000  H
  N13      1.0000 0.64300  0.41870  0.59550  Biso   1.000  N
  N14      1.0000 0.81200  0.41400  0.58770  Biso   1.000  N
  N15      1.0000 0.70900  0.32140  0.66900  Biso   1.000  N
  N16      1.0000 0.67830  0.25661  0.72550  Biso   1.000  N
  N17      1.0000 0.80800  0.22924  0.72390  Biso   1.000  N
  N18      1.0000 0.77680  0.16446  0.78360  Biso   1.000  N
  N19      1.0000 0.85100  0.07345  0.88570  Biso   1.000  N
  N20      1.0000 0.68090  0.07841  0.89810  Biso   1.000  N
  N21      1.0000 0.33750  0.49635  0.69580  Biso   1.000  N
  N22      1.0000 0.41470  0.49584  0.83600  Biso   1.000  N
  N23      1.0000 0.15100  0.49880  0.86900  Biso   1.000  N
  N24      1.0000 0.99630  0.50117  0.93020  Biso   1.000  N
  C7       1.0000 0.58660  0.36310  0.64570  Biso   1.000  C
  C8       1.0000 0.84740  0.35420  0.63240  Biso   1.000  C
  C9       1.0000 0.64170  0.13430  0.83730  Biso   1.000  C
  C10      1.0000 0.90330  0.12520  0.81640  Biso   1.000  C
  C11      1.0000 0.18050  0.49851  0.71850  Biso   1.000  C
  C12      1.0000 0.30040  0.49800  0.93680  Biso   1.000  C
  H7       1.0000 0.47400  0.35200  0.66600  Biso   1.000  H
  H8       1.0000 0.93900  0.33960  0.65000  Biso   1.000  H
  H9       1.0000 0.53100  0.14680  0.82700  Biso   1.000  H
  H10      1.0000 0.00300  0.13200  0.79500  Biso   1.000  H
  H11      1.0000 0.10300  0.49930  0.64500  Biso   1.000  H
  H12      1.0000 0.31800  0.49700  0.03300  Biso   1.000  H
  N25      1.0000 0.14300  0.08130  0.09550  Biso   1.000  N
  N26      1.0000 0.31200  0.08600  0.08770  Biso   1.000  N
  N27      1.0000 0.20900  0.17860  0.16900  Biso   1.000  N
  N28      1.0000 0.17830  0.24339  0.22550  Biso   1.000  N
  N29      1.0000 0.30800  0.27076  0.22390  Biso   1.000  N
  N30      1.0000 0.27680  0.33554  0.28360  Biso   1.000  N
  N31      1.0000 0.35100  0.42655  0.38570  Biso   1.000  N
  N32      1.0000 0.18090  0.42159  0.39810  Biso   1.000  N
  N33      1.0000 0.83750  0.00365  0.19580  Biso   1.000  N
  N34      1.0000 0.91470  0.00416  0.33600  Biso   1.000  N
  N35      1.0000 0.65100  0.00120  0.36900  Biso   1.000  N
  N36      1.0000 0.49630  0.99883  0.43020  Biso   1.000  N
  C13      1.0000 0.08660  0.13690  0.14570  Biso   1.000  C
  C14      1.0000 0.34740  0.14580  0.13240  Biso   1.000  C
  C15      1.0000 0.14170  0.36570  0.33730  Biso   1.000  C
  C16      1.0000 0.40330  0.37480  0.31640  Biso   1.000  C
  C17      1.0000 0.68050  0.00149  0.21850  Biso   1.000  C
  C18      1.0000 0.80040  0.00200  0.43680  Biso   1.000  C
  H13      1.0000 0.97400  0.14800  0.16600  Biso   1.000  H
  H14      1.0000 0.43900  0.16040  0.15000  Biso   1.000  H
  H15      1.0000 0.03100  0.35320  0.32700  Biso   1.000  H
  H16      1.0000 0.50300  0.36800  0.29500  Biso   1.000  H
  H17      1.0000 0.60300  0.00070  0.14500  Biso   1.000  H
  H18      1.0000 0.81800  0.00300  0.53300  Biso   1.000  H
  N37      1.0000 0.35700  0.58130  0.40450  Biso   1.000  N
  N38      1.0000 0.18800  0.58600  0.41230  Biso   1.000  N
  N39      1.0000 0.29100  0.67860  0.33100  Biso   1.000  N
  N40      1.0000 0.32170  0.74339  0.27450  Biso   1.000  N
  N41      1.0000 0.19200  0.77076  0.27610  Biso   1.000  N
  N42      1.0000 0.22320  0.83554  0.21640  Biso   1.000  N
  N43      1.0000 0.14900  0.92655  0.11430  Biso   1.000  N
  N44      1.0000 0.31910  0.92159  0.10190  Biso   1.000  N
  N45      1.0000 0.66250  0.50365  0.30420  Biso   1.000  N
  N46      1.0000 0.58530  0.50416  0.16400  Biso   1.000  N
  N47      1.0000 0.84900  0.50120  0.13100  Biso   1.000  N
  N48      1.0000 0.00370  0.49883  0.06980  Biso   1.000  N
  C19      1.0000 0.41340  0.63690  0.35430  Biso   1.000  C
  C20      1.0000 0.15260  0.64580  0.36760  Biso   1.000  C
  C21      1.0000 0.35830  0.86570  0.16270  Biso   1.000  C
  C22      1.0000 0.09670  0.87480  0.18360  Biso   1.000  C
  C23      1.0000 0.81950  0.50149  0.28150  Biso   1.000  C
  C24      1.0000 0.69960  0.50200  0.06320  Biso   1.000  C
  H19      1.0000 0.52600  0.64800  0.33400  Biso   1.000  H
  H20      1.0000 0.06100  0.66040  0.35000  Biso   1.000  H
  H21      1.0000 0.46900  0.85320  0.17300  Biso   1.000  H
  H22      1.0000 0.99700  0.86800  0.20500  Biso   1.000  H
  H23      1.0000 0.89700  0.50070  0.35500  Biso   1.000  H
  H24      1.0000 0.68200  0.50300  0.96700  Biso   1.000  H
  Fe1      1.0000 0.00000  0.00000  0.00000  Biso   1.000  Fe
  Fe2      1.0000 0.50000  0.50000  0.50000  Biso   1.000  Fe
