data_image0
_cell_length_a       8.0112
_cell_length_b       19.4392
_cell_length_c       8.9648
_cell_angle_alpha    90
_cell_angle_beta     93.382
_cell_angle_gamma    90

_symmetry_space_group_name_H-M    "P 1"
_symmetry_int_tables_number       1

loop_
  _symmetry_equiv_pos_as_xyz
  'x, y, z'

loop_
  _atom_site_label
  _atom_site_occupancy
  _atom_site_fract_x
  _atom_site_fract_y
  _atom_site_fract_z
  _atom_site_thermal_displace_type
  _atom_site_B_iso_or_equiv
  _atom_site_type_symbol
  C1       1.0000 0.69080  0.99914  0.78550  Biso   1.000  C
  C2       1.0000 0.80930  0.99551  0.57140  Biso   1.000  C
  C3       1.0000 0.42370  0.36960  0.64870  Biso   1.000  C
  C4       1.0000 0.15140  0.36417  0.63800  Biso   1.000  C
  C5       1.0000 0.07760  0.12564  0.83080  Biso   1.000  C
  C6       1.0000 0.34750  0.13674  0.86540  Biso   1.000  C
  N1       1.0000 0.85270  0.99803  0.81280  Biso   1.000  N
  N2       1.0000 0.92840  0.99556  0.67560  Biso   1.000  N
  N3       1.0000 0.65760  0.99774  0.63450  Biso   1.000  N
  N4       1.0000 0.49760  0.99951  0.56900  Biso   1.000  N
  N5       1.0000 0.13340  0.07309  0.90880  Biso   1.000  N
  N6       1.0000 0.30700  0.07955  0.92940  Biso   1.000  N
  N7       1.0000 0.20780  0.16702  0.80040  Biso   1.000  N
  N8       1.0000 0.18340  0.23147  0.73580  Biso   1.000  N
  N9       1.0000 0.36540  0.42559  0.58530  Biso   1.000  N
  N10      1.0000 0.19060  0.42259  0.57960  Biso   1.000  N
  N11      1.0000 0.29390  0.32858  0.68140  Biso   1.000  N
  N12      1.0000 0.31680  0.26386  0.74420  Biso   1.000  N
  H1       1.0000 0.61200  0.00100  0.85600  Biso   1.000  H
  H2       1.0000 0.83000  0.99420  0.47200  Biso   1.000  H
  H3       1.0000 0.53400  0.35800  0.66800  Biso   1.000  H
  H4       1.0000 0.04300  0.34680  0.65000  Biso   1.000  H
  H5       1.0000 0.97300  0.13640  0.80200  Biso   1.000  H
  H6       1.0000 0.46000  0.15420  0.86000  Biso   1.000  H
  C7       1.0000 0.80920  0.49914  0.71450  Biso   1.000  C
  C8       1.0000 0.69070  0.49551  0.92860  Biso   1.000  C
  C9       1.0000 0.07630  0.86960  0.85130  Biso   1.000  C
  C10      1.0000 0.34860  0.86417  0.86200  Biso   1.000  C
  C11      1.0000 0.42240  0.62564  0.66920  Biso   1.000  C
  C12      1.0000 0.15250  0.63674  0.63460  Biso   1.000  C
  N13      1.0000 0.64730  0.49803  0.68720  Biso   1.000  N
  N14      1.0000 0.57160  0.49556  0.82440  Biso   1.000  N
  N15      1.0000 0.84240  0.49774  0.86550  Biso   1.000  N
  N16      1.0000 0.00240  0.49951  0.93100  Biso   1.000  N
  N17      1.0000 0.36660  0.57309  0.59120  Biso   1.000  N
  N18      1.0000 0.19300  0.57955  0.57060  Biso   1.000  N
  N19      1.0000 0.29220  0.66702  0.69960  Biso   1.000  N
  N20      1.0000 0.31660  0.73147  0.76420  Biso   1.000  N
  N21      1.0000 0.13460  0.92559  0.91470  Biso   1.000  N
  N22      1.0000 0.30940  0.92259  0.92040  Biso   1.000  N
  N23      1.0000 0.20610  0.82858  0.81860  Biso   1.000  N
  N24      1.0000 0.18320  0.76386  0.75580  Biso   1.000  N
  H7       1.0000 0.88800  0.50100  0.64400  Biso   1.000  H
  H8       1.0000 0.67000  0.49420  0.02800  Biso   1.000  H
  H9       1.0000 0.96600  0.85800  0.83200  Biso   1.000  H
  H10      1.0000 0.45700  0.84680  0.85000  Biso   1.000  H
  H11      1.0000 0.52700  0.63640  0.69800  Biso   1.000  H
  H12      1.0000 0.04000  0.65420  0.64000  Biso   1.000  H
  C13      1.0000 0.30920  0.00086  0.21450  Biso   1.000  C
  C14      1.0000 0.19070  0.00449  0.42860  Biso   1.000  C
  C15      1.0000 0.57630  0.63040  0.35130  Biso   1.000  C
  C16      1.0000 0.84860  0.63583  0.36200  Biso   1.000  C
  C17      1.0000 0.92240  0.87436  0.16920  Biso   1.000  C
  C18      1.0000 0.65250  0.86326  0.13460  Biso   1.000  C
  N25      1.0000 0.14730  0.00197  0.18720  Biso   1.000  N
  N26      1.0000 0.07160  0.00444  0.32440  Biso   1.000  N
  N27      1.0000 0.34240  0.00226  0.36550  Biso   1.000  N
  N28      1.0000 0.50240  0.00049  0.43100  Biso   1.000  N
  N29      1.0000 0.86660  0.92691  0.09120  Biso   1.000  N
  N30      1.0000 0.69300  0.92045  0.07060  Biso   1.000  N
  N31      1.0000 0.79220  0.83298  0.19960  Biso   1.000  N
  N32      1.0000 0.81660  0.76853  0.26420  Biso   1.000  N
  N33      1.0000 0.63460  0.57441  0.41470  Biso   1.000  N
  N34      1.0000 0.80940  0.57741  0.42040  Biso   1.000  N
  N35      1.0000 0.70610  0.67142  0.31860  Biso   1.000  N
  N36      1.0000 0.68320  0.73614  0.25580  Biso   1.000  N
  H13      1.0000 0.38800  0.99900  0.14400  Biso   1.000  H
  H14      1.0000 0.17000  0.00580  0.52800  Biso   1.000  H
  H15      1.0000 0.46600  0.64200  0.33200  Biso   1.000  H
  H16      1.0000 0.95700  0.65320  0.35000  Biso   1.000  H
  H17      1.0000 0.02700  0.86360  0.19800  Biso   1.000  H
  H18      1.0000 0.54000  0.84580  0.14000  Biso   1.000  H
  C19      1.0000 0.19080  0.50086  0.28550  Biso   1.000  C
  C20      1.0000 0.30930  0.50449  0.07140  Biso   1.000  C
  C21      1.0000 0.92370  0.13040  0.14870  Biso   1.000  C
  C22      1.0000 0.65140  0.13583  0.13800  Biso   1.000  C
  C23      1.0000 0.57760  0.37436  0.33080  Biso   1.000  C
  C24      1.0000 0.84750  0.36326  0.36540  Biso   1.000  C
  N37      1.0000 0.35270  0.50197  0.31280  Biso   1.000  N
  N38      1.0000 0.42840  0.50444  0.17560  Biso   1.000  N
  N39      1.0000 0.15760  0.50226  0.13450  Biso   1.000  N
  N40      1.0000 0.99760  0.50049  0.06900  Biso   1.000  N
  N41      1.0000 0.63340  0.42691  0.40880  Biso   1.000  N
  N42      1.0000 0.80700  0.42045  0.42940  Biso   1.000  N
  N43      1.0000 0.70780  0.33298  0.30040  Biso   1.000  N
  N44      1.0000 0.68340  0.26853  0.23580  Biso   1.000  N
  N45      1.0000 0.86540  0.07441  0.08530  Biso   1.000  N
  N46      1.0000 0.69060  0.07741  0.07960  Biso   1.000  N
  N47      1.0000 0.79390  0.17142  0.18140  Biso   1.000  N
  N48      1.0000 0.81680  0.23614  0.24420  Biso   1.000  N
  H19      1.0000 0.11200  0.49900  0.35600  Biso   1.000  H
  H20      1.0000 0.33000  0.50580  0.97200  Biso   1.000  H
  H21      1.0000 0.03400  0.14200  0.16800  Biso   1.000  H
  H22      1.0000 0.54300  0.15320  0.15000  Biso   1.000  H
  H23      1.0000 0.47300  0.36360  0.30200  Biso   1.000  H
  H24      1.0000 0.96000  0.34580  0.36000  Biso   1.000  H
  Fe1      1.0000 0.00000  0.00000  0.00000  Biso   1.000  Fe
  Fe2      1.0000 0.50000  0.50000  0.50000  Biso   1.000  Fe
