data_image0
_cell_length_a       27.418
_cell_length_b       27.418
_cell_length_c       27.418
_cell_angle_alpha    90
_cell_angle_beta     90
_cell_angle_gamma    90

_symmetry_space_group_name_H-M    "P 1"
_symmetry_int_tables_number       1

loop_
  _symmetry_equiv_pos_as_xyz
  'x, y, z'

loop_
  _atom_site_label
  _atom_site_occupancy
  _atom_site_fract_x
  _atom_site_fract_y
  _atom_site_fract_z
  _atom_site_thermal_displace_type
  _atom_site_B_iso_or_equiv
  _atom_site_type_symbol
  O1       1.0000 0.95047  0.79068  0.54980  Biso   1.000  O
  C1       1.0000 0.87800  0.79300  0.62160  Biso   1.000  C
  H1       1.0000 0.88940  0.82240  0.60900  Biso   1.000  H
  C2       1.0000 0.84360  0.79380  0.65730  Biso   1.000  C
  H2       1.0000 0.83260  0.82340  0.66970  Biso   1.000  H
  O2       1.0000 0.04953  0.20932  0.54980  Biso   1.000  O
  C3       1.0000 0.12200  0.20700  0.62160  Biso   1.000  C
  H3       1.0000 0.11060  0.17760  0.60900  Biso   1.000  H
  C4       1.0000 0.15640  0.20620  0.65730  Biso   1.000  C
  H4       1.0000 0.16740  0.17660  0.66970  Biso   1.000  H
  O3       1.0000 0.04953  0.79068  0.45020  Biso   1.000  O
  C5       1.0000 0.12200  0.79300  0.37840  Biso   1.000  C
  H5       1.0000 0.11060  0.82240  0.39100  Biso   1.000  H
  C6       1.0000 0.15640  0.79380  0.34270  Biso   1.000  C
  H6       1.0000 0.16740  0.82340  0.33030  Biso   1.000  H
  O4       1.0000 0.95047  0.20932  0.45020  Biso   1.000  O
  C7       1.0000 0.87800  0.20700  0.37840  Biso   1.000  C
  H7       1.0000 0.88940  0.17760  0.39100  Biso   1.000  H
  C8       1.0000 0.84360  0.20620  0.34270  Biso   1.000  C
  H8       1.0000 0.83260  0.17660  0.33030  Biso   1.000  H
  O5       1.0000 0.54980  0.95047  0.79068  Biso   1.000  O
  C9       1.0000 0.62160  0.87800  0.79300  Biso   1.000  C
  H9       1.0000 0.60900  0.88940  0.82240  Biso   1.000  H
  C10      1.0000 0.65730  0.84360  0.79380  Biso   1.000  C
  H10      1.0000 0.66970  0.83260  0.82340  Biso   1.000  H
  O6       1.0000 0.54980  0.04953  0.20932  Biso   1.000  O
  C11      1.0000 0.62160  0.12200  0.20700  Biso   1.000  C
  H11      1.0000 0.60900  0.11060  0.17760  Biso   1.000  H
  C12      1.0000 0.65730  0.15640  0.20620  Biso   1.000  C
  H12      1.0000 0.66970  0.16740  0.17660  Biso   1.000  H
  O7       1.0000 0.45020  0.04953  0.79068  Biso   1.000  O
  C13      1.0000 0.37840  0.12200  0.79300  Biso   1.000  C
  H13      1.0000 0.39100  0.11060  0.82240  Biso   1.000  H
  C14      1.0000 0.34270  0.15640  0.79380  Biso   1.000  C
  H14      1.0000 0.33030  0.16740  0.82340  Biso   1.000  H
  O8       1.0000 0.45020  0.95047  0.20932  Biso   1.000  O
  C15      1.0000 0.37840  0.87800  0.20700  Biso   1.000  C
  H15      1.0000 0.39100  0.88940  0.17760  Biso   1.000  H
  C16      1.0000 0.34270  0.84360  0.20620  Biso   1.000  C
  H16      1.0000 0.33030  0.83260  0.17660  Biso   1.000  H
  O9       1.0000 0.79068  0.54980  0.95047  Biso   1.000  O
  C17      1.0000 0.79300  0.62160  0.87800  Biso   1.000  C
  H17      1.0000 0.82240  0.60900  0.88940  Biso   1.000  H
  C18      1.0000 0.79380  0.65730  0.84360  Biso   1.000  C
  H18      1.0000 0.82340  0.66970  0.83260  Biso   1.000  H
  O10      1.0000 0.20932  0.54980  0.04953  Biso   1.000  O
  C19      1.0000 0.20700  0.62160  0.12200  Biso   1.000  C
  H19      1.0000 0.17760  0.60900  0.11060  Biso   1.000  H
  C20      1.0000 0.20620  0.65730  0.15640  Biso   1.000  C
  H20      1.0000 0.17660  0.66970  0.16740  Biso   1.000  H
  O11      1.0000 0.79068  0.45020  0.04953  Biso   1.000  O
  C21      1.0000 0.79300  0.37840  0.12200  Biso   1.000  C
  H21      1.0000 0.82240  0.39100  0.11060  Biso   1.000  H
  C22      1.0000 0.79380  0.34270  0.15640  Biso   1.000  C
  H22      1.0000 0.82340  0.33030  0.16740  Biso   1.000  H
  O12      1.0000 0.20932  0.45020  0.95047  Biso   1.000  O
  C23      1.0000 0.20700  0.37840  0.87800  Biso   1.000  C
  H23      1.0000 0.17760  0.39100  0.88940  Biso   1.000  H
  C24      1.0000 0.20620  0.34270  0.84360  Biso   1.000  C
  H24      1.0000 0.17660  0.33030  0.83260  Biso   1.000  H
  O13      1.0000 0.29068  0.45047  0.95020  Biso   1.000  O
  C25      1.0000 0.29300  0.37800  0.87840  Biso   1.000  C
  H25      1.0000 0.32240  0.38940  0.89100  Biso   1.000  H
  C26      1.0000 0.29380  0.34360  0.84270  Biso   1.000  C
  H26      1.0000 0.32340  0.33260  0.83030  Biso   1.000  H
  O14      1.0000 0.70932  0.54953  0.95020  Biso   1.000  O
  C27      1.0000 0.70700  0.62200  0.87840  Biso   1.000  C
  H27      1.0000 0.67760  0.61060  0.89100  Biso   1.000  H
  C28      1.0000 0.70620  0.65640  0.84270  Biso   1.000  C
  H28      1.0000 0.67660  0.66740  0.83030  Biso   1.000  H
  O15      1.0000 0.29068  0.54953  0.04980  Biso   1.000  O
  C29      1.0000 0.29300  0.62200  0.12160  Biso   1.000  C
  H29      1.0000 0.32240  0.61060  0.10900  Biso   1.000  H
  C30      1.0000 0.29380  0.65640  0.15730  Biso   1.000  C
  H30      1.0000 0.32340  0.66740  0.16970  Biso   1.000  H
  O16      1.0000 0.70932  0.45047  0.04980  Biso   1.000  O
  C31      1.0000 0.70700  0.37800  0.12160  Biso   1.000  C
  H31      1.0000 0.67760  0.38940  0.10900  Biso   1.000  H
  C32      1.0000 0.70620  0.34360  0.15730  Biso   1.000  C
  H32      1.0000 0.67660  0.33260  0.16970  Biso   1.000  H
  O17      1.0000 0.45047  0.04980  0.70932  Biso   1.000  O
  C33      1.0000 0.37800  0.12160  0.70700  Biso   1.000  C
  H33      1.0000 0.38940  0.10900  0.67760  Biso   1.000  H
  C34      1.0000 0.34360  0.15730  0.70620  Biso   1.000  C
  H34      1.0000 0.33260  0.16970  0.67660  Biso   1.000  H
  O18      1.0000 0.54953  0.04980  0.29068  Biso   1.000  O
  C35      1.0000 0.62200  0.12160  0.29300  Biso   1.000  C
  H35      1.0000 0.61060  0.10900  0.32240  Biso   1.000  H
  C36      1.0000 0.65640  0.15730  0.29380  Biso   1.000  C
  H36      1.0000 0.66740  0.16970  0.32340  Biso   1.000  H
  O19      1.0000 0.54953  0.95020  0.70932  Biso   1.000  O
  C37      1.0000 0.62200  0.87840  0.70700  Biso   1.000  C
  H37      1.0000 0.61060  0.89100  0.67760  Biso   1.000  H
  C38      1.0000 0.65640  0.84270  0.70620  Biso   1.000  C
  H38      1.0000 0.66740  0.83030  0.67660  Biso   1.000  H
  O20      1.0000 0.45047  0.95020  0.29068  Biso   1.000  O
  C39      1.0000 0.37800  0.87840  0.29300  Biso   1.000  C
  H39      1.0000 0.38940  0.89100  0.32240  Biso   1.000  H
  C40      1.0000 0.34360  0.84270  0.29380  Biso   1.000  C
  H40      1.0000 0.33260  0.83030  0.32340  Biso   1.000  H
  O21      1.0000 0.04980  0.29068  0.54953  Biso   1.000  O
  C41      1.0000 0.12160  0.29300  0.62200  Biso   1.000  C
  H41      1.0000 0.10900  0.32240  0.61060  Biso   1.000  H
  C42      1.0000 0.15730  0.29380  0.65640  Biso   1.000  C
  H42      1.0000 0.16970  0.32340  0.66740  Biso   1.000  H
  O22      1.0000 0.04980  0.70932  0.45047  Biso   1.000  O
  C43      1.0000 0.12160  0.70700  0.37800  Biso   1.000  C
  H43      1.0000 0.10900  0.67760  0.38940  Biso   1.000  H
  C44      1.0000 0.15730  0.70620  0.34360  Biso   1.000  C
  H44      1.0000 0.16970  0.67660  0.33260  Biso   1.000  H
  O23      1.0000 0.95020  0.29068  0.45047  Biso   1.000  O
  C45      1.0000 0.87840  0.29300  0.37800  Biso   1.000  C
  H45      1.0000 0.89100  0.32240  0.38940  Biso   1.000  H
  C46      1.0000 0.84270  0.29380  0.34360  Biso   1.000  C
  H46      1.0000 0.83030  0.32340  0.33260  Biso   1.000  H
  O24      1.0000 0.95020  0.70932  0.54953  Biso   1.000  O
  C47      1.0000 0.87840  0.70700  0.62200  Biso   1.000  C
  H47      1.0000 0.89100  0.67760  0.61060  Biso   1.000  H
  C48      1.0000 0.84270  0.70620  0.65640  Biso   1.000  C
  H48      1.0000 0.83030  0.67660  0.66740  Biso   1.000  H
  O25      1.0000 0.04953  0.20932  0.45020  Biso   1.000  O
  C49      1.0000 0.12200  0.20700  0.37840  Biso   1.000  C
  H49      1.0000 0.11060  0.17760  0.39100  Biso   1.000  H
  C50      1.0000 0.15640  0.20620  0.34270  Biso   1.000  C
  H50      1.0000 0.16740  0.17660  0.33030  Biso   1.000  H
  O26      1.0000 0.95047  0.79068  0.45020  Biso   1.000  O
  C51      1.0000 0.87800  0.79300  0.37840  Biso   1.000  C
  H51      1.0000 0.88940  0.82240  0.39100  Biso   1.000  H
  C52      1.0000 0.84360  0.79380  0.34270  Biso   1.000  C
  H52      1.0000 0.83260  0.82340  0.33030  Biso   1.000  H
  O27      1.0000 0.95047  0.20932  0.54980  Biso   1.000  O
  C53      1.0000 0.87800  0.20700  0.62160  Biso   1.000  C
  H53      1.0000 0.88940  0.17760  0.60900  Biso   1.000  H
  C54      1.0000 0.84360  0.20620  0.65730  Biso   1.000  C
  H54      1.0000 0.83260  0.17660  0.66970  Biso   1.000  H
  O28      1.0000 0.04953  0.79068  0.54980  Biso   1.000  O
  C55      1.0000 0.12200  0.79300  0.62160  Biso   1.000  C
  H55      1.0000 0.11060  0.82240  0.60900  Biso   1.000  H
  C56      1.0000 0.15640  0.79380  0.65730  Biso   1.000  C
  H56      1.0000 0.16740  0.82340  0.66970  Biso   1.000  H
  O29      1.0000 0.45020  0.04953  0.20932  Biso   1.000  O
  C57      1.0000 0.37840  0.12200  0.20700  Biso   1.000  C
  H57      1.0000 0.39100  0.11060  0.17760  Biso   1.000  H
  C58      1.0000 0.34270  0.15640  0.20620  Biso   1.000  C
  H58      1.0000 0.33030  0.16740  0.17660  Biso   1.000  H
  O30      1.0000 0.45020  0.95047  0.79068  Biso   1.000  O
  C59      1.0000 0.37840  0.87800  0.79300  Biso   1.000  C
  H59      1.0000 0.39100  0.88940  0.82240  Biso   1.000  H
  C60      1.0000 0.34270  0.84360  0.79380  Biso   1.000  C
  H60      1.0000 0.33030  0.83260  0.82340  Biso   1.000  H
  O31      1.0000 0.54980  0.95047  0.20932  Biso   1.000  O
  C61      1.0000 0.62160  0.87800  0.20700  Biso   1.000  C
  H61      1.0000 0.60900  0.88940  0.17760  Biso   1.000  H
  C62      1.0000 0.65730  0.84360  0.20620  Biso   1.000  C
  H62      1.0000 0.66970  0.83260  0.17660  Biso   1.000  H
  O32      1.0000 0.54980  0.04953  0.79068  Biso   1.000  O
  C63      1.0000 0.62160  0.12200  0.79300  Biso   1.000  C
  H63      1.0000 0.60900  0.11060  0.82240  Biso   1.000  H
  C64      1.0000 0.65730  0.15640  0.79380  Biso   1.000  C
  H64      1.0000 0.66970  0.16740  0.82340  Biso   1.000  H
  O33      1.0000 0.20932  0.45020  0.04953  Biso   1.000  O
  C65      1.0000 0.20700  0.37840  0.12200  Biso   1.000  C
  H65      1.0000 0.17760  0.39100  0.11060  Biso   1.000  H
  C66      1.0000 0.20620  0.34270  0.15640  Biso   1.000  C
  H66      1.0000 0.17660  0.33030  0.16740  Biso   1.000  H
  O34      1.0000 0.79068  0.45020  0.95047  Biso   1.000  O
  C67      1.0000 0.79300  0.37840  0.87800  Biso   1.000  C
  H67      1.0000 0.82240  0.39100  0.88940  Biso   1.000  H
  C68      1.0000 0.79380  0.34270  0.84360  Biso   1.000  C
  H68      1.0000 0.82340  0.33030  0.83260  Biso   1.000  H
  O35      1.0000 0.20932  0.54980  0.95047  Biso   1.000  O
  C69      1.0000 0.20700  0.62160  0.87800  Biso   1.000  C
  H69      1.0000 0.17760  0.60900  0.88940  Biso   1.000  H
  C70      1.0000 0.20620  0.65730  0.84360  Biso   1.000  C
  H70      1.0000 0.17660  0.66970  0.83260  Biso   1.000  H
  O36      1.0000 0.79068  0.54980  0.04953  Biso   1.000  O
  C71      1.0000 0.79300  0.62160  0.12200  Biso   1.000  C
  H71      1.0000 0.82240  0.60900  0.11060  Biso   1.000  H
  C72      1.0000 0.79380  0.65730  0.15640  Biso   1.000  C
  H72      1.0000 0.82340  0.66970  0.16740  Biso   1.000  H
  O37      1.0000 0.70932  0.54953  0.04980  Biso   1.000  O
  C73      1.0000 0.70700  0.62200  0.12160  Biso   1.000  C
  H73      1.0000 0.67760  0.61060  0.10900  Biso   1.000  H
  C74      1.0000 0.70620  0.65640  0.15730  Biso   1.000  C
  H74      1.0000 0.67660  0.66740  0.16970  Biso   1.000  H
  O38      1.0000 0.29068  0.45047  0.04980  Biso   1.000  O
  C75      1.0000 0.29300  0.37800  0.12160  Biso   1.000  C
  H75      1.0000 0.32240  0.38940  0.10900  Biso   1.000  H
  C76      1.0000 0.29380  0.34360  0.15730  Biso   1.000  C
  H76      1.0000 0.32340  0.33260  0.16970  Biso   1.000  H
  O39      1.0000 0.70932  0.45047  0.95020  Biso   1.000  O
  C77      1.0000 0.70700  0.37800  0.87840  Biso   1.000  C
  H77      1.0000 0.67760  0.38940  0.89100  Biso   1.000  H
  C78      1.0000 0.70620  0.34360  0.84270  Biso   1.000  C
  H78      1.0000 0.67660  0.33260  0.83030  Biso   1.000  H
  O40      1.0000 0.29068  0.54953  0.95020  Biso   1.000  O
  C79      1.0000 0.29300  0.62200  0.87840  Biso   1.000  C
  H79      1.0000 0.32240  0.61060  0.89100  Biso   1.000  H
  C80      1.0000 0.29380  0.65640  0.84270  Biso   1.000  C
  H80      1.0000 0.32340  0.66740  0.83030  Biso   1.000  H
  O41      1.0000 0.54953  0.95020  0.29068  Biso   1.000  O
  C81      1.0000 0.62200  0.87840  0.29300  Biso   1.000  C
  H81      1.0000 0.61060  0.89100  0.32240  Biso   1.000  H
  C82      1.0000 0.65640  0.84270  0.29380  Biso   1.000  C
  H82      1.0000 0.66740  0.83030  0.32340  Biso   1.000  H
  O42      1.0000 0.45047  0.95020  0.70932  Biso   1.000  O
  C83      1.0000 0.37800  0.87840  0.70700  Biso   1.000  C
  H83      1.0000 0.38940  0.89100  0.67760  Biso   1.000  H
  C84      1.0000 0.34360  0.84270  0.70620  Biso   1.000  C
  H84      1.0000 0.33260  0.83030  0.67660  Biso   1.000  H
  O43      1.0000 0.45047  0.04980  0.29068  Biso   1.000  O
  C85      1.0000 0.37800  0.12160  0.29300  Biso   1.000  C
  H85      1.0000 0.38940  0.10900  0.32240  Biso   1.000  H
  C86      1.0000 0.34360  0.15730  0.29380  Biso   1.000  C
  H86      1.0000 0.33260  0.16970  0.32340  Biso   1.000  H
  O44      1.0000 0.54953  0.04980  0.70932  Biso   1.000  O
  C87      1.0000 0.62200  0.12160  0.70700  Biso   1.000  C
  H87      1.0000 0.61060  0.10900  0.67760  Biso   1.000  H
  C88      1.0000 0.65640  0.15730  0.70620  Biso   1.000  C
  H88      1.0000 0.66740  0.16970  0.67660  Biso   1.000  H
  O45      1.0000 0.95020  0.70932  0.45047  Biso   1.000  O
  C89      1.0000 0.87840  0.70700  0.37800  Biso   1.000  C
  H89      1.0000 0.89100  0.67760  0.38940  Biso   1.000  H
  C90      1.0000 0.84270  0.70620  0.34360  Biso   1.000  C
  H90      1.0000 0.83030  0.67660  0.33260  Biso   1.000  H
  O46      1.0000 0.95020  0.29068  0.54953  Biso   1.000  O
  C91      1.0000 0.87840  0.29300  0.62200  Biso   1.000  C
  H91      1.0000 0.89100  0.32240  0.61060  Biso   1.000  H
  C92      1.0000 0.84270  0.29380  0.65640  Biso   1.000  C
  H92      1.0000 0.83030  0.32340  0.66740  Biso   1.000  H
  O47      1.0000 0.04980  0.70932  0.54953  Biso   1.000  O
  C93      1.0000 0.12160  0.70700  0.62200  Biso   1.000  C
  H93      1.0000 0.10900  0.67760  0.61060  Biso   1.000  H
  C94      1.0000 0.15730  0.70620  0.65640  Biso   1.000  C
  H94      1.0000 0.16970  0.67660  0.66740  Biso   1.000  H
  O48      1.0000 0.04980  0.29068  0.45047  Biso   1.000  O
  C95      1.0000 0.12160  0.29300  0.37800  Biso   1.000  C
  H95      1.0000 0.10900  0.32240  0.38940  Biso   1.000  H
  C96      1.0000 0.15730  0.29380  0.34360  Biso   1.000  C
  H96      1.0000 0.16970  0.32340  0.33260  Biso   1.000  H
  Cu1      1.0000 0.00000  0.79822  0.50000  Biso   1.000  Cu
  Cu2      1.0000 0.00000  0.20178  0.50000  Biso   1.000  Cu
  Cu3      1.0000 0.50000  0.00000  0.79822  Biso   1.000  Cu
  Cu4      1.0000 0.50000  0.00000  0.20178  Biso   1.000  Cu
  Cu5      1.0000 0.79822  0.50000  0.00000  Biso   1.000  Cu
  Cu6      1.0000 0.20178  0.50000  0.00000  Biso   1.000  Cu
  Cu7      1.0000 0.29822  0.50000  0.00000  Biso   1.000  Cu
  Cu8      1.0000 0.70178  0.50000  0.00000  Biso   1.000  Cu
  Cu9      1.0000 0.50000  0.00000  0.70178  Biso   1.000  Cu
  Cu10     1.0000 0.50000  0.00000  0.29822  Biso   1.000  Cu
  Cu11     1.0000 0.00000  0.29822  0.50000  Biso   1.000  Cu
  Cu12     1.0000 0.00000  0.70178  0.50000  Biso   1.000  Cu
  C97      1.0000 0.89650  0.75000  0.60350  Biso   1.000  C
  C98      1.0000 0.93475  0.75000  0.56525  Biso   1.000  C
  C99      1.0000 0.78482  0.75000  0.71518  Biso   1.000  C
  C100     1.0000 0.82460  0.75000  0.67540  Biso   1.000  C
  C101     1.0000 0.10350  0.25000  0.60350  Biso   1.000  C
  C102     1.0000 0.06525  0.25000  0.56525  Biso   1.000  C
  C103     1.0000 0.21518  0.25000  0.71518  Biso   1.000  C
  C104     1.0000 0.17540  0.25000  0.67540  Biso   1.000  C
  C105     1.0000 0.10350  0.75000  0.39650  Biso   1.000  C
  C106     1.0000 0.06525  0.75000  0.43475  Biso   1.000  C
  C107     1.0000 0.21518  0.75000  0.28482  Biso   1.000  C
  C108     1.0000 0.17540  0.75000  0.32460  Biso   1.000  C
  C109     1.0000 0.89650  0.25000  0.39650  Biso   1.000  C
  C110     1.0000 0.93475  0.25000  0.43475  Biso   1.000  C
  C111     1.0000 0.78482  0.25000  0.28482  Biso   1.000  C
  C112     1.0000 0.82460  0.25000  0.32460  Biso   1.000  C
  C113     1.0000 0.60350  0.89650  0.75000  Biso   1.000  C
  C114     1.0000 0.56525  0.93475  0.75000  Biso   1.000  C
  C115     1.0000 0.71518  0.78482  0.75000  Biso   1.000  C
  C116     1.0000 0.67540  0.82460  0.75000  Biso   1.000  C
  C117     1.0000 0.60350  0.10350  0.25000  Biso   1.000  C
  C118     1.0000 0.56525  0.06525  0.25000  Biso   1.000  C
  C119     1.0000 0.71518  0.21518  0.25000  Biso   1.000  C
  C120     1.0000 0.67540  0.17540  0.25000  Biso   1.000  C
  C121     1.0000 0.39650  0.10350  0.75000  Biso   1.000  C
  C122     1.0000 0.43475  0.06525  0.75000  Biso   1.000  C
  C123     1.0000 0.28482  0.21518  0.75000  Biso   1.000  C
  C124     1.0000 0.32460  0.17540  0.75000  Biso   1.000  C
  C125     1.0000 0.39650  0.89650  0.25000  Biso   1.000  C
  C126     1.0000 0.43475  0.93475  0.25000  Biso   1.000  C
  C127     1.0000 0.28482  0.78482  0.25000  Biso   1.000  C
  C128     1.0000 0.32460  0.82460  0.25000  Biso   1.000  C
  C129     1.0000 0.75000  0.60350  0.89650  Biso   1.000  C
  C130     1.0000 0.75000  0.56525  0.93475  Biso   1.000  C
  C131     1.0000 0.75000  0.71518  0.78482  Biso   1.000  C
  C132     1.0000 0.75000  0.67540  0.82460  Biso   1.000  C
  C133     1.0000 0.25000  0.60350  0.10350  Biso   1.000  C
  C134     1.0000 0.25000  0.56525  0.06525  Biso   1.000  C
  C135     1.0000 0.25000  0.71518  0.21518  Biso   1.000  C
  C136     1.0000 0.25000  0.67540  0.17540  Biso   1.000  C
  C137     1.0000 0.75000  0.39650  0.10350  Biso   1.000  C
  C138     1.0000 0.75000  0.43475  0.06525  Biso   1.000  C
  C139     1.0000 0.75000  0.28482  0.21518  Biso   1.000  C
  C140     1.0000 0.75000  0.32460  0.17540  Biso   1.000  C
  C141     1.0000 0.25000  0.39650  0.89650  Biso   1.000  C
  C142     1.0000 0.25000  0.43475  0.93475  Biso   1.000  C
  C143     1.0000 0.25000  0.28482  0.78482  Biso   1.000  C
  C144     1.0000 0.25000  0.32460  0.82460  Biso   1.000  C
  C145     1.0000 0.10350  0.25000  0.39650  Biso   1.000  C
  C146     1.0000 0.06525  0.25000  0.43475  Biso   1.000  C
  C147     1.0000 0.21518  0.25000  0.28482  Biso   1.000  C
  C148     1.0000 0.17540  0.25000  0.32460  Biso   1.000  C
  C149     1.0000 0.89650  0.75000  0.39650  Biso   1.000  C
  C150     1.0000 0.93475  0.75000  0.43475  Biso   1.000  C
  C151     1.0000 0.78482  0.75000  0.28482  Biso   1.000  C
  C152     1.0000 0.82460  0.75000  0.32460  Biso   1.000  C
  C153     1.0000 0.89650  0.25000  0.60350  Biso   1.000  C
  C154     1.0000 0.93475  0.25000  0.56525  Biso   1.000  C
  C155     1.0000 0.78482  0.25000  0.71518  Biso   1.000  C
  C156     1.0000 0.82460  0.25000  0.67540  Biso   1.000  C
  C157     1.0000 0.10350  0.75000  0.60350  Biso   1.000  C
  C158     1.0000 0.06525  0.75000  0.56525  Biso   1.000  C
  C159     1.0000 0.21518  0.75000  0.71518  Biso   1.000  C
  C160     1.0000 0.17540  0.75000  0.67540  Biso   1.000  C
  C161     1.0000 0.39650  0.10350  0.25000  Biso   1.000  C
  C162     1.0000 0.43475  0.06525  0.25000  Biso   1.000  C
  C163     1.0000 0.28482  0.21518  0.25000  Biso   1.000  C
  C164     1.0000 0.32460  0.17540  0.25000  Biso   1.000  C
  C165     1.0000 0.39650  0.89650  0.75000  Biso   1.000  C
  C166     1.0000 0.43475  0.93475  0.75000  Biso   1.000  C
  C167     1.0000 0.28482  0.78482  0.75000  Biso   1.000  C
  C168     1.0000 0.32460  0.82460  0.75000  Biso   1.000  C
  C169     1.0000 0.60350  0.89650  0.25000  Biso   1.000  C
  C170     1.0000 0.56525  0.93475  0.25000  Biso   1.000  C
  C171     1.0000 0.71518  0.78482  0.25000  Biso   1.000  C
  C172     1.0000 0.67540  0.82460  0.25000  Biso   1.000  C
  C173     1.0000 0.60350  0.10350  0.75000  Biso   1.000  C
  C174     1.0000 0.56525  0.06525  0.75000  Biso   1.000  C
  C175     1.0000 0.71518  0.21518  0.75000  Biso   1.000  C
  C176     1.0000 0.67540  0.17540  0.75000  Biso   1.000  C
  C177     1.0000 0.25000  0.39650  0.10350  Biso   1.000  C
  C178     1.0000 0.25000  0.43475  0.06525  Biso   1.000  C
  C179     1.0000 0.25000  0.28482  0.21518  Biso   1.000  C
  C180     1.0000 0.25000  0.32460  0.17540  Biso   1.000  C
  C181     1.0000 0.75000  0.39650  0.89650  Biso   1.000  C
  C182     1.0000 0.75000  0.43475  0.93475  Biso   1.000  C
  C183     1.0000 0.75000  0.28482  0.78482  Biso   1.000  C
  C184     1.0000 0.75000  0.32460  0.82460  Biso   1.000  C
  C185     1.0000 0.25000  0.60350  0.89650  Biso   1.000  C
  C186     1.0000 0.25000  0.56525  0.93475  Biso   1.000  C
  C187     1.0000 0.25000  0.71518  0.78482  Biso   1.000  C
  C188     1.0000 0.25000  0.67540  0.82460  Biso   1.000  C
  C189     1.0000 0.75000  0.60350  0.10350  Biso   1.000  C
  C190     1.0000 0.75000  0.56525  0.06525  Biso   1.000  C
  C191     1.0000 0.75000  0.71518  0.21518  Biso   1.000  C
  C192     1.0000 0.75000  0.67540  0.17540  Biso   1.000  C
  C193     1.0000 0.75000  0.78610  0.71390  Biso   1.000  C
  H97      1.0000 0.75000  0.81010  0.68990  Biso   1.000  H
  C194     1.0000 0.25000  0.21390  0.71390  Biso   1.000  C
  H98      1.0000 0.25000  0.18990  0.68990  Biso   1.000  H
  C195     1.0000 0.25000  0.78610  0.28610  Biso   1.000  C
  H99      1.0000 0.25000  0.81010  0.31010  Biso   1.000  H
  C196     1.0000 0.75000  0.21390  0.28610  Biso   1.000  C
  H100     1.0000 0.75000  0.18990  0.31010  Biso   1.000  H
  C197     1.0000 0.71390  0.75000  0.78610  Biso   1.000  C
  H101     1.0000 0.68990  0.75000  0.81010  Biso   1.000  H
  C198     1.0000 0.71390  0.25000  0.21390  Biso   1.000  C
  H102     1.0000 0.68990  0.25000  0.18990  Biso   1.000  H
  C199     1.0000 0.28610  0.25000  0.78610  Biso   1.000  C
  H103     1.0000 0.31010  0.25000  0.81010  Biso   1.000  H
  C200     1.0000 0.28610  0.75000  0.21390  Biso   1.000  C
  H104     1.0000 0.31010  0.75000  0.18990  Biso   1.000  H
  C201     1.0000 0.78610  0.71390  0.75000  Biso   1.000  C
  H105     1.0000 0.81010  0.68990  0.75000  Biso   1.000  H
  C202     1.0000 0.21390  0.71390  0.25000  Biso   1.000  C
  H106     1.0000 0.18990  0.68990  0.25000  Biso   1.000  H
  C203     1.0000 0.78610  0.28610  0.25000  Biso   1.000  C
  H107     1.0000 0.81010  0.31010  0.25000  Biso   1.000  H
  C204     1.0000 0.21390  0.28610  0.75000  Biso   1.000  C
  H108     1.0000 0.18990  0.31010  0.75000  Biso   1.000  H
  C205     1.0000 0.25000  0.21390  0.28610  Biso   1.000  C
  H109     1.0000 0.25000  0.18990  0.31010  Biso   1.000  H
  C206     1.0000 0.75000  0.78610  0.28610  Biso   1.000  C
  H110     1.0000 0.75000  0.81010  0.31010  Biso   1.000  H
  C207     1.0000 0.75000  0.21390  0.71390  Biso   1.000  C
  H111     1.0000 0.75000  0.18990  0.68990  Biso   1.000  H
  C208     1.0000 0.25000  0.78610  0.71390  Biso   1.000  C
  H112     1.0000 0.25000  0.81010  0.68990  Biso   1.000  H
  C209     1.0000 0.28610  0.25000  0.21390  Biso   1.000  C
  H113     1.0000 0.31010  0.25000  0.18990  Biso   1.000  H
  C210     1.0000 0.28610  0.75000  0.78610  Biso   1.000  C
  H114     1.0000 0.31010  0.75000  0.81010  Biso   1.000  H
  C211     1.0000 0.71390  0.75000  0.21390  Biso   1.000  C
  H115     1.0000 0.68990  0.75000  0.18990  Biso   1.000  H
  C212     1.0000 0.71390  0.25000  0.78610  Biso   1.000  C
  H116     1.0000 0.68990  0.25000  0.81010  Biso   1.000  H
  C213     1.0000 0.21390  0.28610  0.25000  Biso   1.000  C
  H117     1.0000 0.18990  0.31010  0.25000  Biso   1.000  H
  C214     1.0000 0.78610  0.28610  0.75000  Biso   1.000  C
  H118     1.0000 0.81010  0.31010  0.75000  Biso   1.000  H
  C215     1.0000 0.21390  0.71390  0.75000  Biso   1.000  C
  H119     1.0000 0.18990  0.68990  0.75000  Biso   1.000  H
  C216     1.0000 0.78610  0.71390  0.25000  Biso   1.000  C
  H120     1.0000 0.81010  0.68990  0.25000  Biso   1.000  H
