data_BAZJIX_clean
_audit_creation_date              2014-07-02
_audit_creation_method            'Materials Studio'
_symmetry_space_group_name_H-M    'P1'
_symmetry_Int_Tables_number       1
_symmetry_cell_setting            triclinic
loop_
_symmetry_equiv_pos_as_xyz
  x,y,z
_cell_length_a                    15.9040
_cell_length_b                    20.0425
_cell_length_c                    21.5043
_cell_angle_alpha                 80.1146
_cell_angle_beta                  68.2976
_cell_angle_gamma                 66.6244
loop_
_atom_site_label
_atom_site_type_symbol
_atom_site_fract_x
_atom_site_fract_y
_atom_site_fract_z
_atom_site_U_iso_or_equiv
_atom_site_adp_type
_atom_site_occupancy
Mn1    Mn    0.85038   0.15365   0.87215   0.01267  Uiso   1.00
Mn2    Mn    0.88823   0.30992   0.91290   0.01267  Uiso   1.00
Mn3    Mn    0.87618   0.34635   0.62785   0.01267  Uiso   1.00
Mn4    Mn    0.11105   0.19008   0.58710   0.01267  Uiso   1.00
Mn5    Mn    0.14962   0.84635   0.12785   0.01267  Uiso   1.00
Mn6    Mn    0.11177   0.69008   0.08710   0.01267  Uiso   1.00
Mn7    Mn    0.12382   0.65365   0.37215   0.01267  Uiso   1.00
Mn8    Mn    0.88895   0.80992   0.41290   0.01267  Uiso   1.00
Mn9    Mn    0.00070   0.25000   0.75000   0.01267  Uiso   1.00
Mn10   Mn    0.99930   0.75000   0.25000   0.01267  Uiso   1.00
H1     H     0.01590   0.37380   0.96320   0.01267  Uiso   1.00
H2     H     0.03420   0.54320   0.83260   0.01267  Uiso   1.00
H3     H     0.98600   0.38760   0.08380   0.01267  Uiso   1.00
H4     H     0.02530   0.10940   0.53560   0.01267  Uiso   1.00
H5     H     0.91240   0.97350   0.67150   0.01267  Uiso   1.00
H6     H     0.92490   0.90990   0.58650   0.01267  Uiso   1.00
H7     H     0.57750   0.14550   0.12670   0.01267  Uiso   1.00
H8     H     0.61100   0.32020   0.17100   0.01267  Uiso   1.00
H9     H     0.50810   0.37880   0.28180   0.01267  Uiso   1.00
H10    H     0.39120   0.38080   0.38560   0.01267  Uiso   1.00
H11    H     0.36370   0.20220   0.34260   0.01267  Uiso   1.00
H12    H     0.46420   0.14530   0.23130   0.01267  Uiso   1.00
H13    H     0.35290   0.12620   0.53680   0.01267  Uiso   1.00
H14    H     0.41000   0.95680   0.66740   0.01267  Uiso   1.00
H15    H     0.45740   0.11240   0.41620   0.01267  Uiso   1.00
H16    H     0.67030   0.39060   0.96440   0.01267  Uiso   1.00
H17    H     0.55740   0.52650   0.82850   0.01267  Uiso   1.00
H18    H     0.42130   0.59010   0.91350   0.01267  Uiso   1.00
H19    H     0.84970   0.35450   0.37330   0.01267  Uiso   1.00
H20    H     0.10220   0.17980   0.32900   0.01267  Uiso   1.00
H21    H     0.16870   0.12120   0.21820   0.01267  Uiso   1.00
H22    H     0.15760   0.11920   0.11440   0.01267  Uiso   1.00
H23    H     0.90850   0.29780   0.15740   0.01267  Uiso   1.00
H24    H     0.84080   0.35470   0.26870   0.01267  Uiso   1.00
H25    H     0.98410   0.62620   0.03680   0.01267  Uiso   1.00
H26    H     0.96580   0.45680   0.16740   0.01267  Uiso   1.00
H27    H     0.01400   0.61240   0.91620   0.01267  Uiso   1.00
H28    H     0.97470   0.89060   0.46440   0.01267  Uiso   1.00
H29    H     0.08760   0.02650   0.32850   0.01267  Uiso   1.00
H30    H     0.07510   0.09010   0.41350   0.01267  Uiso   1.00
H31    H     0.42250   0.85450   0.87330   0.01267  Uiso   1.00
H32    H     0.38900   0.67980   0.82900   0.01267  Uiso   1.00
H33    H     0.49190   0.62120   0.71820   0.01267  Uiso   1.00
H34    H     0.60880   0.61920   0.61440   0.01267  Uiso   1.00
H35    H     0.63630   0.79780   0.65740   0.01267  Uiso   1.00
H36    H     0.53580   0.85470   0.76870   0.01267  Uiso   1.00
H37    H     0.64710   0.87380   0.46320   0.01267  Uiso   1.00
H38    H     0.59000   0.04320   0.33260   0.01267  Uiso   1.00
H39    H     0.54260   0.88760   0.58380   0.01267  Uiso   1.00
H40    H     0.32970   0.60940   0.03560   0.01267  Uiso   1.00
H41    H     0.44260   0.47350   0.17150   0.01267  Uiso   1.00
H42    H     0.57870   0.40990   0.08650   0.01267  Uiso   1.00
H43    H     0.15030   0.64550   0.62670   0.01267  Uiso   1.00
H44    H     0.89780   0.82020   0.67100   0.01267  Uiso   1.00
H45    H     0.83130   0.87880   0.78180   0.01267  Uiso   1.00
H46    H     0.84240   0.88080   0.88560   0.01267  Uiso   1.00
H47    H     0.09150   0.70220   0.84260   0.01267  Uiso   1.00
H48    H     0.15920   0.64530   0.73130   0.01267  Uiso   1.00
C1     C     0.03828   0.40980   0.83544   0.01267  Uiso   1.00
C2     C     0.00126   0.46377   0.00651   0.01267  Uiso   1.00
C3     C     0.01425   0.42244   0.95426   0.01267  Uiso   1.00
C4     C     0.02451   0.45255   0.89043   0.01267  Uiso   1.00
C5     C     0.02509   0.52347   0.87695   0.01267  Uiso   1.00
C6     C     0.98711   0.43534   0.07344   0.01267  Uiso   1.00
C7     C     0.96059   0.08756   0.66578   0.01267  Uiso   1.00
C8     C     0.00618   0.06854   0.54544   0.01267  Uiso   1.00
C9     C     0.97024   0.04703   0.61081   0.01267  Uiso   1.00
C10    C     0.93873   0.98740   0.62614   0.01267  Uiso   1.00
C11    C     0.94607   0.94989   0.57577   0.01267  Uiso   1.00
C12    C     0.01501   0.03005   0.49257   0.01267  Uiso   1.00
C13    C     0.68040   0.23091   0.07269   0.01267  Uiso   1.00
C14    C     0.56099   0.18073   0.15789   0.01267  Uiso   1.00
C15    C     0.60748   0.23285   0.13939   0.01267  Uiso   1.00
C16    C     0.58104   0.28505   0.18347   0.01267  Uiso   1.00
C17    C     0.50952   0.28773   0.24763   0.01267  Uiso   1.00
C18    C     0.47973   0.34267   0.29387   0.01267  Uiso   1.00
C19    C     0.41058   0.34384   0.35540   0.01267  Uiso   1.00
C20    C     0.36764   0.29017   0.37455   0.01267  Uiso   1.00
C21    C     0.39400   0.23709   0.33031   0.01267  Uiso   1.00
C22    C     0.46638   0.23462   0.26662   0.01267  Uiso   1.00
C23    C     0.49350   0.18087   0.21953   0.01267  Uiso   1.00
C24    C     0.29412   0.29019   0.44117   0.01267  Uiso   1.00
C25    C     0.28352   0.09020   0.66456   0.01267  Uiso   1.00
C26    C     0.47154   0.03623   0.49349   0.01267  Uiso   1.00
C27    C     0.39095   0.07756   0.54574   0.01267  Uiso   1.00
C28    C     0.36749   0.04745   0.60957   0.01267  Uiso   1.00
C29    C     0.42551   0.97653   0.62305   0.01267  Uiso   1.00
C30    C     0.49589   0.06466   0.42656   0.01267  Uiso   1.00
C31    C     0.71393   0.41244   0.83422   0.01267  Uiso   1.00
C32    C     0.62016   0.43146   0.95456   0.01267  Uiso   1.00
C33    C     0.62808   0.45297   0.88919   0.01267  Uiso   1.00
C34    C     0.55227   0.51260   0.87386   0.01267  Uiso   1.00
C35    C     0.47173   0.55011   0.92423   0.01267  Uiso   1.00
C36    C     0.53763   0.46995   0.00743   0.01267  Uiso   1.00
C37    C     0.98400   0.26909   0.42731   0.01267  Uiso   1.00
C38    C     0.89961   0.31927   0.34211   0.01267  Uiso   1.00
C39    C     0.97972   0.26715   0.36061   0.01267  Uiso   1.00
C40    C     0.04956   0.21495   0.31653   0.01267  Uiso   1.00
C41    C     0.04488   0.21227   0.25237   0.01267  Uiso   1.00
C42    C     0.11627   0.15733   0.20613   0.01267  Uiso   1.00
C43    C     0.10982   0.15616   0.14460   0.01267  Uiso   1.00
C44    C     0.03236   0.20983   0.12545   0.01267  Uiso   1.00
C45    C     0.96140   0.26291   0.16969   0.01267  Uiso   1.00
C46    C     0.96762   0.26538   0.23338   0.01267  Uiso   1.00
C47    C     0.89390   0.31913   0.28047   0.01267  Uiso   1.00
C48    C     0.02548   0.20981   0.05883   0.01267  Uiso   1.00
C49    C     0.96172   0.59020   0.16456   0.01267  Uiso   1.00
C50    C     0.99874   0.53623   0.99349   0.01267  Uiso   1.00
C51    C     0.98575   0.57756   0.04574   0.01267  Uiso   1.00
C52    C     0.97549   0.54745   0.10957   0.01267  Uiso   1.00
C53    C     0.97491   0.47653   0.12305   0.01267  Uiso   1.00
C54    C     0.01289   0.56466   0.92656   0.01267  Uiso   1.00
C55    C     0.03941   0.91244   0.33422   0.01267  Uiso   1.00
C56    C     0.99382   0.93146   0.45456   0.01267  Uiso   1.00
C57    C     0.02976   0.95297   0.38919   0.01267  Uiso   1.00
C58    C     0.06127   0.01260   0.37386   0.01267  Uiso   1.00
C59    C     0.05393   0.05011   0.42423   0.01267  Uiso   1.00
C60    C     0.98499   0.96995   0.50743   0.01267  Uiso   1.00
C61    C     0.31960   0.76909   0.92731   0.01267  Uiso   1.00
C62    C     0.43901   0.81927   0.84211   0.01267  Uiso   1.00
C63    C     0.39252   0.76715   0.86061   0.01267  Uiso   1.00
C64    C     0.41896   0.71495   0.81653   0.01267  Uiso   1.00
C65    C     0.49048   0.71227   0.75237   0.01267  Uiso   1.00
C66    C     0.52027   0.65733   0.70613   0.01267  Uiso   1.00
C67    C     0.58942   0.65616   0.64460   0.01267  Uiso   1.00
C68    C     0.63236   0.70983   0.62545   0.01267  Uiso   1.00
C69    C     0.60600   0.76291   0.66969   0.01267  Uiso   1.00
C70    C     0.53362   0.76538   0.73338   0.01267  Uiso   1.00
C71    C     0.50650   0.81913   0.78047   0.01267  Uiso   1.00
C72    C     0.70588   0.70981   0.55883   0.01267  Uiso   1.00
C73    C     0.71648   0.90980   0.33544   0.01267  Uiso   1.00
C74    C     0.52846   0.96377   0.50651   0.01267  Uiso   1.00
C75    C     0.60905   0.92244   0.45426   0.01267  Uiso   1.00
C76    C     0.63251   0.95255   0.39043   0.01267  Uiso   1.00
C77    C     0.57449   0.02347   0.37695   0.01267  Uiso   1.00
C78    C     0.50411   0.93534   0.57344   0.01267  Uiso   1.00
C79    C     0.28607   0.58756   0.16578   0.01267  Uiso   1.00
C80    C     0.37984   0.56854   0.04544   0.01267  Uiso   1.00
C81    C     0.37192   0.54703   0.11081   0.01267  Uiso   1.00
C82    C     0.44773   0.48740   0.12614   0.01267  Uiso   1.00
C83    C     0.52827   0.44989   0.07577   0.01267  Uiso   1.00
C84    C     0.46237   0.53005   0.99257   0.01267  Uiso   1.00
C85    C     0.01600   0.73091   0.57269   0.01267  Uiso   1.00
C86    C     0.10039   0.68073   0.65789   0.01267  Uiso   1.00
C87    C     0.02028   0.73285   0.63939   0.01267  Uiso   1.00
C88    C     0.95044   0.78505   0.68347   0.01267  Uiso   1.00
C89    C     0.95512   0.78773   0.74763   0.01267  Uiso   1.00
C90    C     0.88373   0.84267   0.79387   0.01267  Uiso   1.00
C91    C     0.89018   0.84384   0.85540   0.01267  Uiso   1.00
C92    C     0.96764   0.79017   0.87455   0.01267  Uiso   1.00
C93    C     0.03860   0.73709   0.83031   0.01267  Uiso   1.00
C94    C     0.03238   0.73462   0.76662   0.01267  Uiso   1.00
C95    C     0.10610   0.68087   0.71953   0.01267  Uiso   1.00
C96    C     0.97452   0.79019   0.94117   0.01267  Uiso   1.00
N1     N     0.00505   0.35641   0.84205   0.01267  Uiso   1.00
N2     N     0.03881   0.33294   0.77870   0.01267  Uiso   1.00
N3     N     0.08952   0.37106   0.73714   0.01267  Uiso   1.00
N4     N     0.09065   0.41990   0.77160   0.01267  Uiso   1.00
N5     N     0.99821   0.13887   0.65861   0.01267  Uiso   1.00
N6     N     0.96668   0.16298   0.72076   0.01267  Uiso   1.00
N7     N     0.91339   0.12733   0.76281   0.01267  Uiso   1.00
N8     N     0.90846   0.07905   0.72941   0.01267  Uiso   1.00
N9     N     0.71368   0.17907   0.02817   0.01267  Uiso   1.00
N10    N     0.77736   0.19897   0.97525   0.01267  Uiso   1.00
N11    N     0.78091   0.25929   0.98765   0.01267  Uiso   1.00
N12    N     0.72115   0.28083   0.04913   0.01267  Uiso   1.00
N13    N     0.26901   0.23350   0.46594   0.01267  Uiso   1.00
N14    N     0.20221   0.25531   0.52591   0.01267  Uiso   1.00
N15    N     0.18567   0.32277   0.53555   0.01267  Uiso   1.00
N16    N     0.24616   0.34580   0.48268   0.01267  Uiso   1.00
N17    N     0.20351   0.14359   0.65795   0.01267  Uiso   1.00
N18    N     0.15045   0.16706   0.72130   0.01267  Uiso   1.00
N19    N     0.19772   0.12894   0.76286   0.01267  Uiso   1.00
N20    N     0.28215   0.08010   0.72840   0.01267  Uiso   1.00
N21    N     0.79569   0.36113   0.84139   0.01267  Uiso   1.00
N22    N     0.85042   0.33702   0.77924   0.01267  Uiso   1.00
N23    N     0.80353   0.37267   0.73719   0.01267  Uiso   1.00
N24    N     0.71692   0.42095   0.77059   0.01267  Uiso   1.00
N25    N     0.92092   0.32093   0.47183   0.01267  Uiso   1.00
N26    N     0.95158   0.30103   0.52475   0.01267  Uiso   1.00
N27    N     0.02785   0.24071   0.51235   0.01267  Uiso   1.00
N28    N     0.05111   0.21917   0.45087   0.01267  Uiso   1.00
N29    N     0.96845   0.26650   0.03406   0.01267  Uiso   1.00
N30    N     0.98343   0.24469   0.97409   0.01267  Uiso   1.00
N31    N     0.04399   0.17723   0.96445   0.01267  Uiso   1.00
N32    N     0.07464   0.15420   0.01732   0.01267  Uiso   1.00
N33    N     0.99495   0.64359   0.15795   0.01267  Uiso   1.00
N34    N     0.96119   0.66706   0.22130   0.01267  Uiso   1.00
N35    N     0.91048   0.62894   0.26286   0.01267  Uiso   1.00
N36    N     0.90935   0.58010   0.22840   0.01267  Uiso   1.00
N37    N     0.00179   0.86113   0.34139   0.01267  Uiso   1.00
N38    N     0.03332   0.83702   0.27924   0.01267  Uiso   1.00
N39    N     0.08661   0.87267   0.23719   0.01267  Uiso   1.00
N40    N     0.09154   0.92095   0.27059   0.01267  Uiso   1.00
N41    N     0.28632   0.82093   0.97183   0.01267  Uiso   1.00
N42    N     0.22264   0.80103   0.02475   0.01267  Uiso   1.00
N43    N     0.21909   0.74071   0.01235   0.01267  Uiso   1.00
N44    N     0.27885   0.71917   0.95087   0.01267  Uiso   1.00
N45    N     0.73099   0.76650   0.53406   0.01267  Uiso   1.00
N46    N     0.79779   0.74469   0.47409   0.01267  Uiso   1.00
N47    N     0.81433   0.67723   0.46445   0.01267  Uiso   1.00
N48    N     0.75384   0.65420   0.51732   0.01267  Uiso   1.00
N49    N     0.79649   0.85641   0.34205   0.01267  Uiso   1.00
N50    N     0.84955   0.83294   0.27870   0.01267  Uiso   1.00
N51    N     0.80228   0.87106   0.23714   0.01267  Uiso   1.00
N52    N     0.71785   0.91990   0.27160   0.01267  Uiso   1.00
N53    N     0.20431   0.63887   0.15861   0.01267  Uiso   1.00
N54    N     0.14958   0.66298   0.22076   0.01267  Uiso   1.00
N55    N     0.19647   0.62733   0.26281   0.01267  Uiso   1.00
N56    N     0.28308   0.57905   0.22941   0.01267  Uiso   1.00
N57    N     0.07908   0.67907   0.52817   0.01267  Uiso   1.00
N58    N     0.04842   0.69897   0.47525   0.01267  Uiso   1.00
N59    N     0.97215   0.75929   0.48765   0.01267  Uiso   1.00
N60    N     0.94889   0.78083   0.54913   0.01267  Uiso   1.00
N61    N     0.03155   0.73350   0.96594   0.01267  Uiso   1.00
N62    N     0.01657   0.75531   0.02591   0.01267  Uiso   1.00
N63    N     0.95601   0.82277   0.03555   0.01267  Uiso   1.00
N64    N     0.92536   0.84580   0.98268   0.01267  Uiso   1.00
O1     O     0.94621   0.21550   0.85272   0.01267  Uiso   1.00
O2     O     0.01443   0.28450   0.64728   0.01267  Uiso   1.00
O3     O     0.05379   0.78450   0.14728   0.01267  Uiso   1.00
O4     O     0.98557   0.71550   0.35272   0.01267  Uiso   1.00
