data_BEDYEQ_clean
_audit_creation_date              2014-07-02
_audit_creation_method            'Materials Studio'
_symmetry_space_group_name_H-M    'P1'
_symmetry_Int_Tables_number       1
_symmetry_cell_setting            triclinic
loop_
_symmetry_equiv_pos_as_xyz
  x,y,z
_cell_length_a                    17.1430
_cell_length_b                    41.9680
_cell_length_c                    41.9680
_cell_angle_alpha                 120.0000
_cell_angle_beta                  90.0000
_cell_angle_gamma                 90.0000
loop_
_atom_site_label
_atom_site_type_symbol
_atom_site_fract_x
_atom_site_fract_y
_atom_site_fract_z
_atom_site_U_iso_or_equiv
_atom_site_adp_type
_atom_site_occupancy
Zr1    Zr    0.89734   0.54203   0.54203   0.01267  Uiso   1.00
Zr2    Zr    0.89734  -0.00000   0.45797   0.01267  Uiso   1.00
Zr3    Zr    0.89734   0.45797  -0.00000   0.01267  Uiso   1.00
Zr4    Zr    0.89734   0.45797   0.45797   0.01267  Uiso   1.00
Zr5    Zr    0.89734  -0.00000   0.54203   0.01267  Uiso   1.00
Zr6    Zr    0.89734   0.54203   0.00000   0.01267  Uiso   1.00
Zr7    Zr    0.10266  -0.00000   0.45797   0.01267  Uiso   1.00
Zr8    Zr    0.10266   0.54203   0.54203   0.01267  Uiso   1.00
Zr9    Zr    0.10266   0.45797   0.00000   0.01267  Uiso   1.00
Zr10   Zr    0.10266  -0.00000   0.54203   0.01267  Uiso   1.00
Zr11   Zr    0.10266   0.45797   0.45797   0.01267  Uiso   1.00
Zr12   Zr    0.10266   0.54203   0.00000   0.01267  Uiso   1.00
Zr13   Zr    0.00000   0.46618   0.53382   0.01267  Uiso   1.00
Zr14   Zr    0.00000   0.06764   0.53382   0.01267  Uiso   1.00
Zr15   Zr    0.00000   0.46618   0.93236   0.01267  Uiso   1.00
Zr16   Zr    0.00000   0.53382   0.46618   0.01267  Uiso   1.00
Zr17   Zr    0.00000   0.93236   0.46618   0.01267  Uiso   1.00
Zr18   Zr    0.00000   0.53382   0.06764   0.01267  Uiso   1.00
Fe1    Fe    0.50000   0.48800   0.74400   0.01267  Uiso   1.00
Fe2    Fe    0.50000   0.25600   0.51200   0.01267  Uiso   1.00
Fe3    Fe    0.50000   0.25600   0.74400   0.01267  Uiso   1.00
Fe4    Fe    0.50000   0.51200   0.25600   0.01267  Uiso   1.00
Fe5    Fe    0.50000   0.74400   0.48800   0.01267  Uiso   1.00
Fe6    Fe    0.50000   0.74400   0.25600   0.01267  Uiso   1.00
H1     H     0.84230   0.45320   0.60960   0.01267  Uiso   1.00
H2     H     0.79110   0.50190   0.72200   0.01267  Uiso   1.00
H3     H     0.76370   0.55450   0.63870   0.01267  Uiso   1.00
H4     H     0.67550   0.55040   0.67870   0.01267  Uiso   1.00
H5     H     0.75060   0.45030   0.64980   0.01267  Uiso   1.00
H6     H     0.57200   0.49690   0.63010   0.01267  Uiso   1.00
H7     H     0.84230   0.15640   0.54680   0.01267  Uiso   1.00
H8     H     0.79110   0.22010   0.49810   0.01267  Uiso   1.00
H9     H     0.76370   0.08420   0.44550   0.01267  Uiso   1.00
H10    H     0.67550   0.12830   0.44960   0.01267  Uiso   1.00
H11    H     0.75060   0.19950   0.54970   0.01267  Uiso   1.00
H12    H     0.57200   0.13320   0.50310   0.01267  Uiso   1.00
H13    H     0.84230   0.39040   0.84360   0.01267  Uiso   1.00
H14    H     0.79110   0.27800   0.77990   0.01267  Uiso   1.00
H15    H     0.76370   0.36130   0.91580   0.01267  Uiso   1.00
H16    H     0.67550   0.32130   0.87170   0.01267  Uiso   1.00
H17    H     0.75060   0.35020   0.80050   0.01267  Uiso   1.00
H18    H     0.57200   0.36990   0.86680   0.01267  Uiso   1.00
H19    H     0.84230   0.54680   0.39040   0.01267  Uiso   1.00
H20    H     0.79110   0.49810   0.27800   0.01267  Uiso   1.00
H21    H     0.76370   0.44550   0.36130   0.01267  Uiso   1.00
H22    H     0.67550   0.44960   0.32130   0.01267  Uiso   1.00
H23    H     0.75060   0.54970   0.35020   0.01267  Uiso   1.00
H24    H     0.57200   0.50310   0.36990   0.01267  Uiso   1.00
H25    H     0.84230   0.84360   0.45320   0.01267  Uiso   1.00
H26    H     0.79110   0.77990   0.50190   0.01267  Uiso   1.00
H27    H     0.76370   0.91580   0.55450   0.01267  Uiso   1.00
H28    H     0.67550   0.87170   0.55040   0.01267  Uiso   1.00
H29    H     0.75060   0.80050   0.45030   0.01267  Uiso   1.00
H30    H     0.57200   0.86680   0.49690   0.01267  Uiso   1.00
H31    H     0.84230   0.60960   0.15640   0.01267  Uiso   1.00
H32    H     0.79110   0.72200   0.22010   0.01267  Uiso   1.00
H33    H     0.76370   0.63870   0.08420   0.01267  Uiso   1.00
H34    H     0.67550   0.67870   0.12830   0.01267  Uiso   1.00
H35    H     0.75060   0.64980   0.19950   0.01267  Uiso   1.00
H36    H     0.57200   0.63010   0.13320   0.01267  Uiso   1.00
H37    H     0.15770   0.84360   0.39040   0.01267  Uiso   1.00
H38    H     0.20890   0.77990   0.27800   0.01267  Uiso   1.00
H39    H     0.23630   0.91580   0.36130   0.01267  Uiso   1.00
H40    H     0.32450   0.87170   0.32130   0.01267  Uiso   1.00
H41    H     0.24940   0.80050   0.35020   0.01267  Uiso   1.00
H42    H     0.42800   0.86680   0.36990   0.01267  Uiso   1.00
H43    H     0.15770   0.60960   0.45320   0.01267  Uiso   1.00
H44    H     0.20890   0.72200   0.50190   0.01267  Uiso   1.00
H45    H     0.23630   0.63870   0.55450   0.01267  Uiso   1.00
H46    H     0.32450   0.67870   0.55040   0.01267  Uiso   1.00
H47    H     0.24940   0.64980   0.45030   0.01267  Uiso   1.00
H48    H     0.42800   0.63010   0.49690   0.01267  Uiso   1.00
H49    H     0.15770   0.54680   0.15640   0.01267  Uiso   1.00
H50    H     0.20890   0.49810   0.22010   0.01267  Uiso   1.00
H51    H     0.23630   0.44550   0.08420   0.01267  Uiso   1.00
H52    H     0.32450   0.44960   0.12830   0.01267  Uiso   1.00
H53    H     0.24940   0.54970   0.19950   0.01267  Uiso   1.00
H54    H     0.42800   0.50310   0.13320   0.01267  Uiso   1.00
H55    H     0.15770   0.15640   0.60960   0.01267  Uiso   1.00
H56    H     0.20890   0.22010   0.72200   0.01267  Uiso   1.00
H57    H     0.23630   0.08420   0.63870   0.01267  Uiso   1.00
H58    H     0.32450   0.12830   0.67870   0.01267  Uiso   1.00
H59    H     0.24940   0.19950   0.64980   0.01267  Uiso   1.00
H60    H     0.42800   0.13320   0.63010   0.01267  Uiso   1.00
H61    H     0.15770   0.39040   0.54680   0.01267  Uiso   1.00
H62    H     0.20890   0.27800   0.49810   0.01267  Uiso   1.00
H63    H     0.23630   0.36130   0.44550   0.01267  Uiso   1.00
H64    H     0.32450   0.32130   0.44960   0.01267  Uiso   1.00
H65    H     0.24940   0.35020   0.54970   0.01267  Uiso   1.00
H66    H     0.42800   0.36990   0.50310   0.01267  Uiso   1.00
H67    H     0.15770   0.45320   0.84360   0.01267  Uiso   1.00
H68    H     0.20890   0.50190   0.77990   0.01267  Uiso   1.00
H69    H     0.23630   0.55450   0.91580   0.01267  Uiso   1.00
H70    H     0.32450   0.55040   0.87170   0.01267  Uiso   1.00
H71    H     0.24940   0.45030   0.80050   0.01267  Uiso   1.00
H72    H     0.42800   0.49690   0.86680   0.01267  Uiso   1.00
H73    H     0.15770   0.54680   0.39040   0.01267  Uiso   1.00
H74    H     0.20890   0.49810   0.27800   0.01267  Uiso   1.00
H75    H     0.23630   0.44550   0.36130   0.01267  Uiso   1.00
H76    H     0.32450   0.44960   0.32130   0.01267  Uiso   1.00
H77    H     0.24940   0.54970   0.35020   0.01267  Uiso   1.00
H78    H     0.42800   0.50310   0.36990   0.01267  Uiso   1.00
H79    H     0.15770   0.84360   0.45320   0.01267  Uiso   1.00
H80    H     0.20890   0.77990   0.50190   0.01267  Uiso   1.00
H81    H     0.23630   0.91580   0.55450   0.01267  Uiso   1.00
H82    H     0.32450   0.87170   0.55040   0.01267  Uiso   1.00
H83    H     0.24940   0.80050   0.45030   0.01267  Uiso   1.00
H84    H     0.42800   0.86680   0.49690   0.01267  Uiso   1.00
H85    H     0.15770   0.60960   0.15640   0.01267  Uiso   1.00
H86    H     0.20890   0.72200   0.22010   0.01267  Uiso   1.00
H87    H     0.23630   0.63870   0.08420   0.01267  Uiso   1.00
H88    H     0.32450   0.67870   0.12830   0.01267  Uiso   1.00
H89    H     0.24940   0.64980   0.19950   0.01267  Uiso   1.00
H90    H     0.42800   0.63010   0.13320   0.01267  Uiso   1.00
H91    H     0.15770   0.45320   0.60960   0.01267  Uiso   1.00
H92    H     0.20890   0.50190   0.72200   0.01267  Uiso   1.00
H93    H     0.23630   0.55450   0.63870   0.01267  Uiso   1.00
H94    H     0.32450   0.55040   0.67870   0.01267  Uiso   1.00
H95    H     0.24940   0.45030   0.64980   0.01267  Uiso   1.00
H96    H     0.42800   0.49690   0.63010   0.01267  Uiso   1.00
H97    H     0.15770   0.15640   0.54680   0.01267  Uiso   1.00
H98    H     0.20890   0.22010   0.49810   0.01267  Uiso   1.00
H99    H     0.23630   0.08420   0.44550   0.01267  Uiso   1.00
H100   H     0.32450   0.12830   0.44960   0.01267  Uiso   1.00
H101   H     0.24940   0.19950   0.54970   0.01267  Uiso   1.00
H102   H     0.42800   0.13320   0.50310   0.01267  Uiso   1.00
H103   H     0.15770   0.39040   0.84360   0.01267  Uiso   1.00
H104   H     0.20890   0.27800   0.77990   0.01267  Uiso   1.00
H105   H     0.23630   0.36130   0.91580   0.01267  Uiso   1.00
H106   H     0.32450   0.32130   0.87170   0.01267  Uiso   1.00
H107   H     0.24940   0.35020   0.80050   0.01267  Uiso   1.00
H108   H     0.42800   0.36990   0.86680   0.01267  Uiso   1.00
H109   H     0.84230   0.15640   0.60960   0.01267  Uiso   1.00
H110   H     0.79110   0.22010   0.72200   0.01267  Uiso   1.00
H111   H     0.76370   0.08420   0.63870   0.01267  Uiso   1.00
H112   H     0.67550   0.12830   0.67870   0.01267  Uiso   1.00
H113   H     0.75060   0.19950   0.64980   0.01267  Uiso   1.00
H114   H     0.57200   0.13320   0.63010   0.01267  Uiso   1.00
H115   H     0.84230   0.39040   0.54680   0.01267  Uiso   1.00
H116   H     0.79110   0.27800   0.49810   0.01267  Uiso   1.00
H117   H     0.76370   0.36130   0.44550   0.01267  Uiso   1.00
H118   H     0.67550   0.32130   0.44960   0.01267  Uiso   1.00
H119   H     0.75060   0.35020   0.54970   0.01267  Uiso   1.00
H120   H     0.57200   0.36990   0.50310   0.01267  Uiso   1.00
H121   H     0.84230   0.45320   0.84360   0.01267  Uiso   1.00
H122   H     0.79110   0.50190   0.77990   0.01267  Uiso   1.00
H123   H     0.76370   0.55450   0.91580   0.01267  Uiso   1.00
H124   H     0.67550   0.55040   0.87170   0.01267  Uiso   1.00
H125   H     0.75060   0.45030   0.80050   0.01267  Uiso   1.00
H126   H     0.57200   0.49690   0.86680   0.01267  Uiso   1.00
H127   H     0.84230   0.84360   0.39040   0.01267  Uiso   1.00
H128   H     0.79110   0.77990   0.27800   0.01267  Uiso   1.00
H129   H     0.76370   0.91580   0.36130   0.01267  Uiso   1.00
H130   H     0.67550   0.87170   0.32130   0.01267  Uiso   1.00
H131   H     0.75060   0.80050   0.35020   0.01267  Uiso   1.00
H132   H     0.57200   0.86680   0.36990   0.01267  Uiso   1.00
H133   H     0.84230   0.60960   0.45320   0.01267  Uiso   1.00
H134   H     0.79110   0.72200   0.50190   0.01267  Uiso   1.00
H135   H     0.76370   0.63870   0.55450   0.01267  Uiso   1.00
H136   H     0.67550   0.67870   0.55040   0.01267  Uiso   1.00
H137   H     0.75060   0.64980   0.45030   0.01267  Uiso   1.00
H138   H     0.57200   0.63010   0.49690   0.01267  Uiso   1.00
H139   H     0.84230   0.54680   0.15640   0.01267  Uiso   1.00
H140   H     0.79110   0.49810   0.22010   0.01267  Uiso   1.00
H141   H     0.76370   0.44550   0.08420   0.01267  Uiso   1.00
H142   H     0.67550   0.44960   0.12830   0.01267  Uiso   1.00
H143   H     0.75060   0.54970   0.19950   0.01267  Uiso   1.00
H144   H     0.57200   0.50310   0.13320   0.01267  Uiso   1.00
C1     C     0.64190   0.49774   0.69122   0.01267  Uiso   1.00
C2     C     0.56460   0.49713   0.68105   0.01267  Uiso   1.00
C3     C     0.80810   0.47335   0.62354   0.01267  Uiso   1.00
C4     C     0.74640   0.50031   0.73446   0.01267  Uiso   1.00
C5     C     0.81240   0.50408   0.62070   0.01267  Uiso   1.00
C6     C     0.86860   0.50640   0.59408   0.01267  Uiso   1.00
C7     C     0.76190   0.53299   0.64078   0.01267  Uiso   1.00
C8     C     0.66660   0.49742   0.72229   0.01267  Uiso   1.00
C9     C     0.70870   0.53009   0.66405   0.01267  Uiso   1.00
C10    C     0.70250   0.49952   0.66653   0.01267  Uiso   1.00
C11    C     0.75280   0.47152   0.64721   0.01267  Uiso   1.00
C12    C     0.53930   0.49700   0.64841   0.01267  Uiso   1.00
C13    C     0.64190   0.19348   0.50226   0.01267  Uiso   1.00
C14    C     0.56460   0.18392   0.50287   0.01267  Uiso   1.00
C15    C     0.80810   0.15019   0.52665   0.01267  Uiso   1.00
C16    C     0.74640   0.23415   0.49969   0.01267  Uiso   1.00
C17    C     0.81240   0.11662   0.49592   0.01267  Uiso   1.00
C18    C     0.86860   0.08768   0.49360   0.01267  Uiso   1.00
C19    C     0.76190   0.10779   0.46701   0.01267  Uiso   1.00
C20    C     0.66660   0.22487   0.50258   0.01267  Uiso   1.00
C21    C     0.70870   0.13396   0.46991   0.01267  Uiso   1.00
C22    C     0.70250   0.16701   0.50048   0.01267  Uiso   1.00
C23    C     0.75280   0.17569   0.52848   0.01267  Uiso   1.00
C24    C     0.53930   0.15141   0.50300   0.01267  Uiso   1.00
C25    C     0.64190   0.30878   0.80652   0.01267  Uiso   1.00
C26    C     0.56460   0.31895   0.81608   0.01267  Uiso   1.00
C27    C     0.80810   0.37646   0.84981   0.01267  Uiso   1.00
C28    C     0.74640   0.26554   0.76585   0.01267  Uiso   1.00
C29    C     0.81240   0.37930   0.88338   0.01267  Uiso   1.00
C30    C     0.86860   0.40592   0.91232   0.01267  Uiso   1.00
C31    C     0.76190   0.35922   0.89221   0.01267  Uiso   1.00
C32    C     0.66660   0.27771   0.77513   0.01267  Uiso   1.00
C33    C     0.70870   0.33595   0.86604   0.01267  Uiso   1.00
C34    C     0.70250   0.33347   0.83299   0.01267  Uiso   1.00
C35    C     0.75280   0.35279   0.82431   0.01267  Uiso   1.00
C36    C     0.53930   0.35159   0.84859   0.01267  Uiso   1.00
C37    C     0.64190   0.50226   0.30878   0.01267  Uiso   1.00
C38    C     0.56460   0.50287   0.31895   0.01267  Uiso   1.00
C39    C     0.80810   0.52665   0.37646   0.01267  Uiso   1.00
C40    C     0.74640   0.49969   0.26554   0.01267  Uiso   1.00
C41    C     0.81240   0.49592   0.37930   0.01267  Uiso   1.00
C42    C     0.86860   0.49360   0.40592   0.01267  Uiso   1.00
C43    C     0.76190   0.46701   0.35922   0.01267  Uiso   1.00
C44    C     0.66660   0.50258   0.27771   0.01267  Uiso   1.00
C45    C     0.70870   0.46991   0.33595   0.01267  Uiso   1.00
C46    C     0.70250   0.50048   0.33347   0.01267  Uiso   1.00
C47    C     0.75280   0.52848   0.35279   0.01267  Uiso   1.00
C48    C     0.53930   0.50300   0.35159   0.01267  Uiso   1.00
C49    C     0.64190   0.80652   0.49774   0.01267  Uiso   1.00
C50    C     0.56460   0.81608   0.49713   0.01267  Uiso   1.00
C51    C     0.80810   0.84981   0.47335   0.01267  Uiso   1.00
C52    C     0.74640   0.76585   0.50031   0.01267  Uiso   1.00
C53    C     0.81240   0.88338   0.50408   0.01267  Uiso   1.00
C54    C     0.86860   0.91232   0.50640   0.01267  Uiso   1.00
C55    C     0.76190   0.89221   0.53299   0.01267  Uiso   1.00
C56    C     0.66660   0.77513   0.49742   0.01267  Uiso   1.00
C57    C     0.70870   0.86604   0.53009   0.01267  Uiso   1.00
C58    C     0.70250   0.83299   0.49952   0.01267  Uiso   1.00
C59    C     0.75280   0.82431   0.47152   0.01267  Uiso   1.00
C60    C     0.53930   0.84859   0.49700   0.01267  Uiso   1.00
C61    C     0.64190   0.69122   0.19348   0.01267  Uiso   1.00
C62    C     0.56460   0.68105   0.18392   0.01267  Uiso   1.00
C63    C     0.80810   0.62354   0.15019   0.01267  Uiso   1.00
C64    C     0.74640   0.73446   0.23415   0.01267  Uiso   1.00
C65    C     0.81240   0.62070   0.11662   0.01267  Uiso   1.00
C66    C     0.86860   0.59408   0.08768   0.01267  Uiso   1.00
C67    C     0.76190   0.64078   0.10779   0.01267  Uiso   1.00
C68    C     0.66660   0.72229   0.22487   0.01267  Uiso   1.00
C69    C     0.70870   0.66405   0.13396   0.01267  Uiso   1.00
C70    C     0.70250   0.66653   0.16701   0.01267  Uiso   1.00
C71    C     0.75280   0.64721   0.17569   0.01267  Uiso   1.00
C72    C     0.53930   0.64841   0.15141   0.01267  Uiso   1.00
C73    C     0.35810   0.80652   0.30878   0.01267  Uiso   1.00
C74    C     0.43540   0.81608   0.31895   0.01267  Uiso   1.00
C75    C     0.19190   0.84981   0.37646   0.01267  Uiso   1.00
C76    C     0.25360   0.76585   0.26554   0.01267  Uiso   1.00
C77    C     0.18760   0.88338   0.37930   0.01267  Uiso   1.00
C78    C     0.13140   0.91232   0.40592   0.01267  Uiso   1.00
C79    C     0.23810   0.89221   0.35922   0.01267  Uiso   1.00
C80    C     0.33340   0.77513   0.27771   0.01267  Uiso   1.00
C81    C     0.29130   0.86604   0.33595   0.01267  Uiso   1.00
C82    C     0.29750   0.83299   0.33347   0.01267  Uiso   1.00
C83    C     0.24720   0.82431   0.35279   0.01267  Uiso   1.00
C84    C     0.46070   0.84859   0.35159   0.01267  Uiso   1.00
C85    C     0.35810   0.69122   0.49774   0.01267  Uiso   1.00
C86    C     0.43540   0.68105   0.49713   0.01267  Uiso   1.00
C87    C     0.19190   0.62354   0.47335   0.01267  Uiso   1.00
C88    C     0.25360   0.73446   0.50031   0.01267  Uiso   1.00
C89    C     0.18760   0.62070   0.50408   0.01267  Uiso   1.00
C90    C     0.13140   0.59408   0.50640   0.01267  Uiso   1.00
C91    C     0.23810   0.64078   0.53299   0.01267  Uiso   1.00
C92    C     0.33340   0.72229   0.49742   0.01267  Uiso   1.00
C93    C     0.29130   0.66405   0.53009   0.01267  Uiso   1.00
C94    C     0.29750   0.66653   0.49952   0.01267  Uiso   1.00
C95    C     0.24720   0.64721   0.47152   0.01267  Uiso   1.00
C96    C     0.46070   0.64841   0.49700   0.01267  Uiso   1.00
C97    C     0.35810   0.50226   0.19348   0.01267  Uiso   1.00
C98    C     0.43540   0.50287   0.18392   0.01267  Uiso   1.00
C99    C     0.19190   0.52665   0.15019   0.01267  Uiso   1.00
C100   C     0.25360   0.49969   0.23415   0.01267  Uiso   1.00
C101   C     0.18760   0.49592   0.11662   0.01267  Uiso   1.00
C102   C     0.13140   0.49360   0.08768   0.01267  Uiso   1.00
C103   C     0.23810   0.46701   0.10779   0.01267  Uiso   1.00
C104   C     0.33340   0.50258   0.22487   0.01267  Uiso   1.00
C105   C     0.29130   0.46991   0.13396   0.01267  Uiso   1.00
C106   C     0.29750   0.50048   0.16701   0.01267  Uiso   1.00
C107   C     0.24720   0.52848   0.17569   0.01267  Uiso   1.00
C108   C     0.46070   0.50300   0.15141   0.01267  Uiso   1.00
C109   C     0.35810   0.19348   0.69122   0.01267  Uiso   1.00
C110   C     0.43540   0.18392   0.68105   0.01267  Uiso   1.00
C111   C     0.19190   0.15019   0.62354   0.01267  Uiso   1.00
C112   C     0.25360   0.23415   0.73446   0.01267  Uiso   1.00
C113   C     0.18760   0.11662   0.62070   0.01267  Uiso   1.00
C114   C     0.13140   0.08768   0.59408   0.01267  Uiso   1.00
C115   C     0.23810   0.10779   0.64078   0.01267  Uiso   1.00
C116   C     0.33340   0.22487   0.72229   0.01267  Uiso   1.00
C117   C     0.29130   0.13396   0.66405   0.01267  Uiso   1.00
C118   C     0.29750   0.16701   0.66653   0.01267  Uiso   1.00
C119   C     0.24720   0.17569   0.64721   0.01267  Uiso   1.00
C120   C     0.46070   0.15141   0.64841   0.01267  Uiso   1.00
C121   C     0.35810   0.30878   0.50226   0.01267  Uiso   1.00
C122   C     0.43540   0.31895   0.50287   0.01267  Uiso   1.00
C123   C     0.19190   0.37646   0.52665   0.01267  Uiso   1.00
C124   C     0.25360   0.26554   0.49969   0.01267  Uiso   1.00
C125   C     0.18760   0.37930   0.49592   0.01267  Uiso   1.00
C126   C     0.13140   0.40592   0.49360   0.01267  Uiso   1.00
C127   C     0.23810   0.35922   0.46701   0.01267  Uiso   1.00
C128   C     0.33340   0.27771   0.50258   0.01267  Uiso   1.00
C129   C     0.29130   0.33595   0.46991   0.01267  Uiso   1.00
C130   C     0.29750   0.33347   0.50048   0.01267  Uiso   1.00
C131   C     0.24720   0.35279   0.52848   0.01267  Uiso   1.00
C132   C     0.46070   0.35159   0.50300   0.01267  Uiso   1.00
C133   C     0.35810   0.49774   0.80652   0.01267  Uiso   1.00
C134   C     0.43540   0.49713   0.81608   0.01267  Uiso   1.00
C135   C     0.19190   0.47335   0.84981   0.01267  Uiso   1.00
C136   C     0.25360   0.50031   0.76585   0.01267  Uiso   1.00
C137   C     0.18760   0.50408   0.88338   0.01267  Uiso   1.00
C138   C     0.13140   0.50640   0.91232   0.01267  Uiso   1.00
C139   C     0.23810   0.53299   0.89221   0.01267  Uiso   1.00
C140   C     0.33340   0.49742   0.77513   0.01267  Uiso   1.00
C141   C     0.29130   0.53009   0.86604   0.01267  Uiso   1.00
C142   C     0.29750   0.49952   0.83299   0.01267  Uiso   1.00
C143   C     0.24720   0.47152   0.82431   0.01267  Uiso   1.00
C144   C     0.46070   0.49700   0.84859   0.01267  Uiso   1.00
C145   C     0.35810   0.50226   0.30878   0.01267  Uiso   1.00
C146   C     0.43540   0.50287   0.31895   0.01267  Uiso   1.00
C147   C     0.19190   0.52665   0.37646   0.01267  Uiso   1.00
C148   C     0.25360   0.49969   0.26554   0.01267  Uiso   1.00
C149   C     0.18760   0.49592   0.37930   0.01267  Uiso   1.00
C150   C     0.13140   0.49360   0.40592   0.01267  Uiso   1.00
C151   C     0.23810   0.46701   0.35922   0.01267  Uiso   1.00
C152   C     0.33340   0.50258   0.27771   0.01267  Uiso   1.00
C153   C     0.29130   0.46991   0.33595   0.01267  Uiso   1.00
C154   C     0.29750   0.50048   0.33347   0.01267  Uiso   1.00
C155   C     0.24720   0.52848   0.35279   0.01267  Uiso   1.00
C156   C     0.46070   0.50300   0.35159   0.01267  Uiso   1.00
C157   C     0.35810   0.80652   0.49774   0.01267  Uiso   1.00
C158   C     0.43540   0.81608   0.49713   0.01267  Uiso   1.00
C159   C     0.19190   0.84981   0.47335   0.01267  Uiso   1.00
C160   C     0.25360   0.76585   0.50031   0.01267  Uiso   1.00
C161   C     0.18760   0.88338   0.50408   0.01267  Uiso   1.00
C162   C     0.13140   0.91232   0.50640   0.01267  Uiso   1.00
C163   C     0.23810   0.89221   0.53299   0.01267  Uiso   1.00
C164   C     0.33340   0.77513   0.49742   0.01267  Uiso   1.00
C165   C     0.29130   0.86604   0.53009   0.01267  Uiso   1.00
C166   C     0.29750   0.83299   0.49952   0.01267  Uiso   1.00
C167   C     0.24720   0.82431   0.47152   0.01267  Uiso   1.00
C168   C     0.46070   0.84859   0.49700   0.01267  Uiso   1.00
C169   C     0.35810   0.69122   0.19348   0.01267  Uiso   1.00
C170   C     0.43540   0.68105   0.18392   0.01267  Uiso   1.00
C171   C     0.19190   0.62354   0.15019   0.01267  Uiso   1.00
C172   C     0.25360   0.73446   0.23415   0.01267  Uiso   1.00
C173   C     0.18760   0.62070   0.11662   0.01267  Uiso   1.00
C174   C     0.13140   0.59408   0.08768   0.01267  Uiso   1.00
C175   C     0.23810   0.64078   0.10779   0.01267  Uiso   1.00
C176   C     0.33340   0.72229   0.22487   0.01267  Uiso   1.00
C177   C     0.29130   0.66405   0.13396   0.01267  Uiso   1.00
C178   C     0.29750   0.66653   0.16701   0.01267  Uiso   1.00
C179   C     0.24720   0.64721   0.17569   0.01267  Uiso   1.00
C180   C     0.46070   0.64841   0.15141   0.01267  Uiso   1.00
C181   C     0.35810   0.49774   0.69122   0.01267  Uiso   1.00
C182   C     0.43540   0.49713   0.68105   0.01267  Uiso   1.00
C183   C     0.19190   0.47335   0.62354   0.01267  Uiso   1.00
C184   C     0.25360   0.50031   0.73446   0.01267  Uiso   1.00
C185   C     0.18760   0.50408   0.62070   0.01267  Uiso   1.00
C186   C     0.13140   0.50640   0.59408   0.01267  Uiso   1.00
C187   C     0.23810   0.53299   0.64078   0.01267  Uiso   1.00
C188   C     0.33340   0.49742   0.72229   0.01267  Uiso   1.00
C189   C     0.29130   0.53009   0.66405   0.01267  Uiso   1.00
C190   C     0.29750   0.49952   0.66653   0.01267  Uiso   1.00
C191   C     0.24720   0.47152   0.64721   0.01267  Uiso   1.00
C192   C     0.46070   0.49700   0.64841   0.01267  Uiso   1.00
C193   C     0.35810   0.19348   0.50226   0.01267  Uiso   1.00
C194   C     0.43540   0.18392   0.50287   0.01267  Uiso   1.00
C195   C     0.19190   0.15019   0.52665   0.01267  Uiso   1.00
C196   C     0.25360   0.23415   0.49969   0.01267  Uiso   1.00
C197   C     0.18760   0.11662   0.49592   0.01267  Uiso   1.00
C198   C     0.13140   0.08768   0.49360   0.01267  Uiso   1.00
C199   C     0.23810   0.10779   0.46701   0.01267  Uiso   1.00
C200   C     0.33340   0.22487   0.50258   0.01267  Uiso   1.00
C201   C     0.29130   0.13396   0.46991   0.01267  Uiso   1.00
C202   C     0.29750   0.16701   0.50048   0.01267  Uiso   1.00
C203   C     0.24720   0.17569   0.52848   0.01267  Uiso   1.00
C204   C     0.46070   0.15141   0.50300   0.01267  Uiso   1.00
C205   C     0.35810   0.30878   0.80652   0.01267  Uiso   1.00
C206   C     0.43540   0.31895   0.81608   0.01267  Uiso   1.00
C207   C     0.19190   0.37646   0.84981   0.01267  Uiso   1.00
C208   C     0.25360   0.26554   0.76585   0.01267  Uiso   1.00
C209   C     0.18760   0.37930   0.88338   0.01267  Uiso   1.00
C210   C     0.13140   0.40592   0.91232   0.01267  Uiso   1.00
C211   C     0.23810   0.35922   0.89221   0.01267  Uiso   1.00
C212   C     0.33340   0.27771   0.77513   0.01267  Uiso   1.00
C213   C     0.29130   0.33595   0.86604   0.01267  Uiso   1.00
C214   C     0.29750   0.33347   0.83299   0.01267  Uiso   1.00
C215   C     0.24720   0.35279   0.82431   0.01267  Uiso   1.00
C216   C     0.46070   0.35159   0.84859   0.01267  Uiso   1.00
C217   C     0.64190   0.19348   0.69122   0.01267  Uiso   1.00
C218   C     0.56460   0.18392   0.68105   0.01267  Uiso   1.00
C219   C     0.80810   0.15019   0.62354   0.01267  Uiso   1.00
C220   C     0.74640   0.23415   0.73446   0.01267  Uiso   1.00
C221   C     0.81240   0.11662   0.62070   0.01267  Uiso   1.00
C222   C     0.86860   0.08768   0.59408   0.01267  Uiso   1.00
C223   C     0.76190   0.10779   0.64078   0.01267  Uiso   1.00
C224   C     0.66660   0.22487   0.72229   0.01267  Uiso   1.00
C225   C     0.70870   0.13396   0.66405   0.01267  Uiso   1.00
C226   C     0.70250   0.16701   0.66653   0.01267  Uiso   1.00
C227   C     0.75280   0.17569   0.64721   0.01267  Uiso   1.00
C228   C     0.53930   0.15141   0.64841   0.01267  Uiso   1.00
C229   C     0.64190   0.30878   0.50226   0.01267  Uiso   1.00
C230   C     0.56460   0.31895   0.50287   0.01267  Uiso   1.00
C231   C     0.80810   0.37646   0.52665   0.01267  Uiso   1.00
C232   C     0.74640   0.26554   0.49969   0.01267  Uiso   1.00
C233   C     0.81240   0.37930   0.49592   0.01267  Uiso   1.00
C234   C     0.86860   0.40592   0.49360   0.01267  Uiso   1.00
C235   C     0.76190   0.35922   0.46701   0.01267  Uiso   1.00
C236   C     0.66660   0.27771   0.50258   0.01267  Uiso   1.00
C237   C     0.70870   0.33595   0.46991   0.01267  Uiso   1.00
C238   C     0.70250   0.33347   0.50048   0.01267  Uiso   1.00
C239   C     0.75280   0.35279   0.52848   0.01267  Uiso   1.00
C240   C     0.53930   0.35159   0.50300   0.01267  Uiso   1.00
C241   C     0.64190   0.49774   0.80652   0.01267  Uiso   1.00
C242   C     0.56460   0.49713   0.81608   0.01267  Uiso   1.00
C243   C     0.80810   0.47335   0.84981   0.01267  Uiso   1.00
C244   C     0.74640   0.50031   0.76585   0.01267  Uiso   1.00
C245   C     0.81240   0.50408   0.88338   0.01267  Uiso   1.00
C246   C     0.86860   0.50640   0.91232   0.01267  Uiso   1.00
C247   C     0.76190   0.53299   0.89221   0.01267  Uiso   1.00
C248   C     0.66660   0.49742   0.77513   0.01267  Uiso   1.00
C249   C     0.70870   0.53009   0.86604   0.01267  Uiso   1.00
C250   C     0.70250   0.49952   0.83299   0.01267  Uiso   1.00
C251   C     0.75280   0.47152   0.82431   0.01267  Uiso   1.00
C252   C     0.53930   0.49700   0.84859   0.01267  Uiso   1.00
C253   C     0.64190   0.80652   0.30878   0.01267  Uiso   1.00
C254   C     0.56460   0.81608   0.31895   0.01267  Uiso   1.00
C255   C     0.80810   0.84981   0.37646   0.01267  Uiso   1.00
C256   C     0.74640   0.76585   0.26554   0.01267  Uiso   1.00
C257   C     0.81240   0.88338   0.37930   0.01267  Uiso   1.00
C258   C     0.86860   0.91232   0.40592   0.01267  Uiso   1.00
C259   C     0.76190   0.89221   0.35922   0.01267  Uiso   1.00
C260   C     0.66660   0.77513   0.27771   0.01267  Uiso   1.00
C261   C     0.70870   0.86604   0.33595   0.01267  Uiso   1.00
C262   C     0.70250   0.83299   0.33347   0.01267  Uiso   1.00
C263   C     0.75280   0.82431   0.35279   0.01267  Uiso   1.00
C264   C     0.53930   0.84859   0.35159   0.01267  Uiso   1.00
C265   C     0.64190   0.69122   0.49774   0.01267  Uiso   1.00
C266   C     0.56460   0.68105   0.49713   0.01267  Uiso   1.00
C267   C     0.80810   0.62354   0.47335   0.01267  Uiso   1.00
C268   C     0.74640   0.73446   0.50031   0.01267  Uiso   1.00
C269   C     0.81240   0.62070   0.50408   0.01267  Uiso   1.00
C270   C     0.86860   0.59408   0.50640   0.01267  Uiso   1.00
C271   C     0.76190   0.64078   0.53299   0.01267  Uiso   1.00
C272   C     0.66660   0.72229   0.49742   0.01267  Uiso   1.00
C273   C     0.70870   0.66405   0.53009   0.01267  Uiso   1.00
C274   C     0.70250   0.66653   0.49952   0.01267  Uiso   1.00
C275   C     0.75280   0.64721   0.47152   0.01267  Uiso   1.00
C276   C     0.53930   0.64841   0.49700   0.01267  Uiso   1.00
C277   C     0.64190   0.50226   0.19348   0.01267  Uiso   1.00
C278   C     0.56460   0.50287   0.18392   0.01267  Uiso   1.00
C279   C     0.80810   0.52665   0.15019   0.01267  Uiso   1.00
C280   C     0.74640   0.49969   0.23415   0.01267  Uiso   1.00
C281   C     0.81240   0.49592   0.11662   0.01267  Uiso   1.00
C282   C     0.86860   0.49360   0.08768   0.01267  Uiso   1.00
C283   C     0.76190   0.46701   0.10779   0.01267  Uiso   1.00
C284   C     0.66660   0.50258   0.22487   0.01267  Uiso   1.00
C285   C     0.70870   0.46991   0.13396   0.01267  Uiso   1.00
C286   C     0.70250   0.50048   0.16701   0.01267  Uiso   1.00
C287   C     0.75280   0.52848   0.17569   0.01267  Uiso   1.00
C288   C     0.53930   0.50300   0.15141   0.01267  Uiso   1.00
N1     N     0.61760   0.49595   0.74798   0.01267  Uiso   1.00
N2     N     0.61760   0.25203   0.50406   0.01267  Uiso   1.00
N3     N     0.61760   0.25202   0.74797   0.01267  Uiso   1.00
N4     N     0.61760   0.50405   0.25202   0.01267  Uiso   1.00
N5     N     0.61760   0.74797   0.49595   0.01267  Uiso   1.00
N6     N     0.61760   0.74797   0.25202   0.01267  Uiso   1.00
N7     N     0.38240   0.74797   0.25202   0.01267  Uiso   1.00
N8     N     0.38240   0.74797   0.49595   0.01267  Uiso   1.00
N9     N     0.38240   0.50405   0.25203   0.01267  Uiso   1.00
N10    N     0.38240   0.25203   0.74798   0.01267  Uiso   1.00
N11    N     0.38240   0.25202   0.50405   0.01267  Uiso   1.00
N12    N     0.38240   0.49595   0.74798   0.01267  Uiso   1.00
N13    N     0.50000   0.49707   0.70139   0.01267  Uiso   1.00
N14    N     0.50000   0.20432   0.50293   0.01267  Uiso   1.00
N15    N     0.50000   0.29861   0.79568   0.01267  Uiso   1.00
N16    N     0.50000   0.50293   0.29861   0.01267  Uiso   1.00
N17    N     0.50000   0.79568   0.49707   0.01267  Uiso   1.00
N18    N     0.50000   0.70139   0.20432   0.01267  Uiso   1.00
N19    N     0.50000   0.79568   0.29861   0.01267  Uiso   1.00
N20    N     0.50000   0.70139   0.49707   0.01267  Uiso   1.00
N21    N     0.50000   0.50293   0.20432   0.01267  Uiso   1.00
N22    N     0.50000   0.20432   0.70139   0.01267  Uiso   1.00
N23    N     0.50000   0.29861   0.50293   0.01267  Uiso   1.00
N24    N     0.50000   0.49707   0.79568   0.01267  Uiso   1.00
Cl1    Cl    0.50000   0.42296   0.71148   0.01267  Uiso   1.00
Cl2    Cl    0.50000   0.28852   0.57704   0.01267  Uiso   1.00
Cl3    Cl    0.50000   0.28852   0.71148   0.01267  Uiso   1.00
Cl4    Cl    0.50000   0.57704   0.28852   0.01267  Uiso   1.00
Cl5    Cl    0.50000   0.71148   0.42296   0.01267  Uiso   1.00
Cl6    Cl    0.50000   0.71148   0.28852   0.01267  Uiso   1.00
O1     O     0.92108   0.48240   0.58113   0.01267  Uiso   1.00
O2     O     0.85652   0.53095   0.58627   0.01267  Uiso   1.00
O3     O     0.92108   0.09873   0.51760   0.01267  Uiso   1.00
O4     O     0.85652   0.05532   0.46905   0.01267  Uiso   1.00
O5     O     0.92108   0.41887   0.90127   0.01267  Uiso   1.00
O6     O     0.85652   0.41373   0.94468   0.01267  Uiso   1.00
O7     O     0.92108   0.51760   0.41887   0.01267  Uiso   1.00
O8     O     0.85652   0.46905   0.41373   0.01267  Uiso   1.00
O9     O     0.92108   0.90127   0.48240   0.01267  Uiso   1.00
O10    O     0.85652   0.94468   0.53095   0.01267  Uiso   1.00
O11    O     0.92108   0.58113   0.09873   0.01267  Uiso   1.00
O12    O     0.85652   0.58627   0.05532   0.01267  Uiso   1.00
O13    O     0.07892   0.90127   0.41887   0.01267  Uiso   1.00
O14    O     0.14348   0.94468   0.41373   0.01267  Uiso   1.00
O15    O     0.07892   0.58113   0.48240   0.01267  Uiso   1.00
O16    O     0.14348   0.58627   0.53095   0.01267  Uiso   1.00
O17    O     0.07892   0.51760   0.09873   0.01267  Uiso   1.00
O18    O     0.14348   0.46905   0.05532   0.01267  Uiso   1.00
O19    O     0.07892   0.09873   0.58113   0.01267  Uiso   1.00
O20    O     0.14348   0.05532   0.58627   0.01267  Uiso   1.00
O21    O     0.07892   0.41887   0.51760   0.01267  Uiso   1.00
O22    O     0.14348   0.41373   0.46905   0.01267  Uiso   1.00
O23    O     0.07892   0.48240   0.90127   0.01267  Uiso   1.00
O24    O     0.14348   0.53095   0.94468   0.01267  Uiso   1.00
O25    O     0.07892   0.51760   0.41887   0.01267  Uiso   1.00
O26    O     0.14348   0.46905   0.41373   0.01267  Uiso   1.00
O27    O     0.07892   0.90127   0.48240   0.01267  Uiso   1.00
O28    O     0.14348   0.94468   0.53095   0.01267  Uiso   1.00
O29    O     0.07892   0.58113   0.09873   0.01267  Uiso   1.00
O30    O     0.14348   0.58627   0.05532   0.01267  Uiso   1.00
O31    O     0.07892   0.48240   0.58113   0.01267  Uiso   1.00
O32    O     0.14348   0.53095   0.58627   0.01267  Uiso   1.00
O33    O     0.07892   0.09873   0.51760   0.01267  Uiso   1.00
O34    O     0.14348   0.05532   0.46905   0.01267  Uiso   1.00
O35    O     0.07892   0.41887   0.90127   0.01267  Uiso   1.00
O36    O     0.14348   0.41373   0.94468   0.01267  Uiso   1.00
O37    O     0.92108   0.09873   0.58113   0.01267  Uiso   1.00
O38    O     0.85652   0.05532   0.58627   0.01267  Uiso   1.00
O39    O     0.92108   0.41887   0.51760   0.01267  Uiso   1.00
O40    O     0.85652   0.41373   0.46905   0.01267  Uiso   1.00
O41    O     0.92108   0.48240   0.90127   0.01267  Uiso   1.00
O42    O     0.85652   0.53095   0.94468   0.01267  Uiso   1.00
O43    O     0.92108   0.90127   0.41887   0.01267  Uiso   1.00
O44    O     0.85652   0.94468   0.41373   0.01267  Uiso   1.00
O45    O     0.92108   0.58113   0.48240   0.01267  Uiso   1.00
O46    O     0.85652   0.58627   0.53095   0.01267  Uiso   1.00
O47    O     0.92108   0.51760   0.09873   0.01267  Uiso   1.00
O48    O     0.85652   0.46905   0.05532   0.01267  Uiso   1.00
O49    O     0.89690   0.48356   0.51645   0.01267  Uiso   1.00
O50    O     0.89690   0.03289   0.51645   0.01267  Uiso   1.00
O51    O     0.89690   0.48356   0.96712   0.01267  Uiso   1.00
O52    O     0.89690   0.51644   0.48355   0.01267  Uiso   1.00
O53    O     0.89690   0.96711   0.48355   0.01267  Uiso   1.00
O54    O     0.89690   0.51644   0.03289   0.01267  Uiso   1.00
O55    O     0.10310   0.96711   0.48355   0.01267  Uiso   1.00
O56    O     0.10310   0.51644   0.48355   0.01267  Uiso   1.00
O57    O     0.10310   0.51644   0.03288   0.01267  Uiso   1.00
O58    O     0.10310   0.03289   0.51645   0.01267  Uiso   1.00
O59    O     0.10310   0.48356   0.51645   0.01267  Uiso   1.00
O60    O     0.10310   0.48356   0.96712   0.01267  Uiso   1.00
O61    O     0.00000   0.52596   0.55981   0.01267  Uiso   1.00
O62    O     0.00000   0.03385   0.47404   0.01267  Uiso   1.00
O63    O     0.00000   0.44019   0.96615   0.01267  Uiso   1.00
O64    O     0.00000   0.47404   0.44019   0.01267  Uiso   1.00
O65    O     0.00000   0.96615   0.52596   0.01267  Uiso   1.00
O66    O     0.00000   0.55981   0.03385   0.01267  Uiso   1.00
O67    O     0.00000   0.96615   0.44019   0.01267  Uiso   1.00
O68    O     0.00000   0.55981   0.52596   0.01267  Uiso   1.00
O69    O     0.00000   0.47404   0.03385   0.01267  Uiso   1.00
O70    O     0.00000   0.03385   0.55981   0.01267  Uiso   1.00
O71    O     0.00000   0.44019   0.47404   0.01267  Uiso   1.00
O72    O     0.00000   0.52596   0.96615   0.01267  Uiso   1.00
