data_image0
_cell_length_a       13.8665
_cell_length_b       13.8665
_cell_length_c       15.056
_cell_angle_alpha    90
_cell_angle_beta     90
_cell_angle_gamma    120

_symmetry_space_group_name_H-M    "P 1"
_symmetry_int_tables_number       1

loop_
  _symmetry_equiv_pos_as_xyz
  'x, y, z'

loop_
  _atom_site_label
  _atom_site_occupancy
  _atom_site_fract_x
  _atom_site_fract_y
  _atom_site_fract_z
  _atom_site_thermal_displace_type
  _atom_site_B_iso_or_equiv
  _atom_site_type_symbol
  Al1      1.0000 0.65920  0.10190  0.42860  Biso   1.000  Al
  P1       1.0000 0.89130  0.32410  0.44560  Biso   1.000  P
  O1       1.0000 0.79230  0.21240  0.46880  Biso   1.000  O
  O2       1.0000 0.86200  0.41410  0.45600  Biso   1.000  O
  O3       1.0000 0.98220  0.34160  0.50900  Biso   1.000  O
  O4       1.0000 0.93030  0.32310  0.35290  Biso   1.000  O
  Al2      1.0000 0.32587  0.43523  0.76193  Biso   1.000  Al
  P2       1.0000 0.55797  0.65743  0.77893  Biso   1.000  P
  O5       1.0000 0.45897  0.54573  0.80213  Biso   1.000  O
  O6       1.0000 0.52867  0.74743  0.78933  Biso   1.000  O
  O7       1.0000 0.64887  0.67493  0.84233  Biso   1.000  O
  O8       1.0000 0.59697  0.65643  0.68623  Biso   1.000  O
  Al3      1.0000 0.99253  0.76857  0.09527  Biso   1.000  Al
  P3       1.0000 0.22463  0.99077  0.11227  Biso   1.000  P
  O9       1.0000 0.12563  0.87907  0.13547  Biso   1.000  O
  O10      1.0000 0.19533  0.08077  0.12267  Biso   1.000  O
  O11      1.0000 0.31553  0.00827  0.17567  Biso   1.000  O
  O12      1.0000 0.26363  0.98977  0.01957  Biso   1.000  O
  Al4      1.0000 0.89810  0.55730  0.42860  Biso   1.000  Al
  P4       1.0000 0.67590  0.56720  0.44560  Biso   1.000  P
  O13      1.0000 0.78760  0.57990  0.46880  Biso   1.000  O
  O14      1.0000 0.58590  0.44790  0.45600  Biso   1.000  O
  O15      1.0000 0.65840  0.64060  0.50900  Biso   1.000  O
  O16      1.0000 0.67690  0.60720  0.35290  Biso   1.000  O
  Al5      1.0000 0.56477  0.89063  0.76193  Biso   1.000  Al
  P5       1.0000 0.34257  0.90053  0.77893  Biso   1.000  P
  O17      1.0000 0.45427  0.91323  0.80213  Biso   1.000  O
  O18      1.0000 0.25257  0.78123  0.78933  Biso   1.000  O
  O19      1.0000 0.32507  0.97393  0.84233  Biso   1.000  O
  O20      1.0000 0.34357  0.94053  0.68623  Biso   1.000  O
  Al6      1.0000 0.23143  0.22397  0.09527  Biso   1.000  Al
  P6       1.0000 0.00923  0.23387  0.11227  Biso   1.000  P
  O21      1.0000 0.12093  0.24657  0.13547  Biso   1.000  O
  O22      1.0000 0.91923  0.11457  0.12267  Biso   1.000  O
  O23      1.0000 0.99173  0.30727  0.17567  Biso   1.000  O
  O24      1.0000 0.01023  0.27387  0.01957  Biso   1.000  O
  Al7      1.0000 0.44270  0.34080  0.42860  Biso   1.000  Al
  P7       1.0000 0.43280  0.10870  0.44560  Biso   1.000  P
  O25      1.0000 0.42010  0.20770  0.46880  Biso   1.000  O
  O26      1.0000 0.55210  0.13800  0.45600  Biso   1.000  O
  O27      1.0000 0.35940  0.01780  0.50900  Biso   1.000  O
  O28      1.0000 0.39280  0.06970  0.35290  Biso   1.000  O
  Al8      1.0000 0.10937  0.67413  0.76193  Biso   1.000  Al
  P8       1.0000 0.09947  0.44203  0.77893  Biso   1.000  P
  O29      1.0000 0.08677  0.54103  0.80213  Biso   1.000  O
  O30      1.0000 0.21877  0.47133  0.78933  Biso   1.000  O
  O31      1.0000 0.02607  0.35113  0.84233  Biso   1.000  O
  O32      1.0000 0.05947  0.40303  0.68623  Biso   1.000  O
  Al9      1.0000 0.77603  0.00747  0.09527  Biso   1.000  Al
  P9       1.0000 0.76613  0.77537  0.11227  Biso   1.000  P
  O33      1.0000 0.75343  0.87437  0.13547  Biso   1.000  O
  O34      1.0000 0.88543  0.80467  0.12267  Biso   1.000  O
  O35      1.0000 0.69273  0.68447  0.17567  Biso   1.000  O
  O36      1.0000 0.72613  0.73637  0.01957  Biso   1.000  O
  Al10     1.0000 0.34080  0.89810  0.57140  Biso   1.000  Al
  P10      1.0000 0.10870  0.67590  0.55440  Biso   1.000  P
  O37      1.0000 0.20770  0.78760  0.53120  Biso   1.000  O
  O38      1.0000 0.13800  0.58590  0.54400  Biso   1.000  O
  O39      1.0000 0.01780  0.65840  0.49100  Biso   1.000  O
  O40      1.0000 0.06970  0.67690  0.64710  Biso   1.000  O
  Al11     1.0000 0.00747  0.23143  0.90473  Biso   1.000  Al
  P11      1.0000 0.77537  0.00923  0.88773  Biso   1.000  P
  O41      1.0000 0.87437  0.12093  0.86453  Biso   1.000  O
  O42      1.0000 0.80467  0.91923  0.87733  Biso   1.000  O
  O43      1.0000 0.68447  0.99173  0.82433  Biso   1.000  O
  O44      1.0000 0.73637  0.01023  0.98043  Biso   1.000  O
  Al12     1.0000 0.67413  0.56477  0.23807  Biso   1.000  Al
  P12      1.0000 0.44203  0.34257  0.22107  Biso   1.000  P
  O45      1.0000 0.54103  0.45427  0.19787  Biso   1.000  O
  O46      1.0000 0.47133  0.25257  0.21067  Biso   1.000  O
  O47      1.0000 0.35113  0.32507  0.15767  Biso   1.000  O
  O48      1.0000 0.40303  0.34357  0.31377  Biso   1.000  O
  Al13     1.0000 0.10190  0.44270  0.57140  Biso   1.000  Al
  P13      1.0000 0.32410  0.43280  0.55440  Biso   1.000  P
  O49      1.0000 0.21240  0.42010  0.53120  Biso   1.000  O
  O50      1.0000 0.41410  0.55210  0.54400  Biso   1.000  O
  O51      1.0000 0.34160  0.35940  0.49100  Biso   1.000  O
  O52      1.0000 0.32310  0.39280  0.64710  Biso   1.000  O
  Al14     1.0000 0.76857  0.77603  0.90473  Biso   1.000  Al
  P14      1.0000 0.99077  0.76613  0.88773  Biso   1.000  P
  O53      1.0000 0.87907  0.75343  0.86453  Biso   1.000  O
  O54      1.0000 0.08077  0.88543  0.87733  Biso   1.000  O
  O55      1.0000 0.00827  0.69273  0.82433  Biso   1.000  O
  O56      1.0000 0.98977  0.72613  0.98043  Biso   1.000  O
  Al15     1.0000 0.43523  0.10937  0.23807  Biso   1.000  Al
  P15      1.0000 0.65743  0.09947  0.22107  Biso   1.000  P
  O57      1.0000 0.54573  0.08677  0.19787  Biso   1.000  O
  O58      1.0000 0.74743  0.21877  0.21067  Biso   1.000  O
  O59      1.0000 0.67493  0.02607  0.15767  Biso   1.000  O
  O60      1.0000 0.65643  0.05947  0.31377  Biso   1.000  O
  Al16     1.0000 0.55730  0.65920  0.57140  Biso   1.000  Al
  P16      1.0000 0.56720  0.89130  0.55440  Biso   1.000  P
  O61      1.0000 0.57990  0.79230  0.53120  Biso   1.000  O
  O62      1.0000 0.44790  0.86200  0.54400  Biso   1.000  O
  O63      1.0000 0.64060  0.98220  0.49100  Biso   1.000  O
  O64      1.0000 0.60720  0.93030  0.64710  Biso   1.000  O
  Al17     1.0000 0.22397  0.99253  0.90473  Biso   1.000  Al
  P17      1.0000 0.23387  0.22463  0.88773  Biso   1.000  P
  O65      1.0000 0.24657  0.12563  0.86453  Biso   1.000  O
  O66      1.0000 0.11457  0.19533  0.87733  Biso   1.000  O
  O67      1.0000 0.30727  0.31553  0.82433  Biso   1.000  O
  O68      1.0000 0.27387  0.26363  0.98043  Biso   1.000  O
  Al18     1.0000 0.89063  0.32587  0.23807  Biso   1.000  Al
  P18      1.0000 0.90053  0.55797  0.22107  Biso   1.000  P
  O69      1.0000 0.91323  0.45897  0.19787  Biso   1.000  O
  O70      1.0000 0.78123  0.52867  0.21067  Biso   1.000  O
  O71      1.0000 0.97393  0.64887  0.15767  Biso   1.000  O
  O72      1.0000 0.94053  0.59697  0.31377  Biso   1.000  O
