data_image0
_cell_length_a       14.6615
_cell_length_b       14.6615
_cell_length_c       9.6146
_cell_angle_alpha    90
_cell_angle_beta     90
_cell_angle_gamma    90

_symmetry_space_group_name_H-M    "P 1"
_symmetry_int_tables_number       1

loop_
  _symmetry_equiv_pos_as_xyz
  'x, y, z'

loop_
  _atom_site_label
  _atom_site_occupancy
  _atom_site_fract_x
  _atom_site_fract_y
  _atom_site_fract_z
  _atom_site_thermal_displace_type
  _atom_site_B_iso_or_equiv
  _atom_site_type_symbol
  Al1      1.0000 0.50760  0.13600  0.39990  Biso   1.000  Al
  P1       1.0000 0.51120  0.14780  0.06420  Biso   1.000  P
  O1       1.0000 0.54520  0.13590  0.20970  Biso   1.000  O
  O2       1.0000 0.42610  0.09490  0.03470  Biso   1.000  O
  O3       1.0000 0.49870  0.24710  0.02380  Biso   1.000  O
  O4       1.0000 0.58590  0.11560  0.96960  Biso   1.000  O
  Al2      1.0000 0.99240  0.36400  0.39990  Biso   1.000  Al
  P2       1.0000 0.98880  0.35220  0.06420  Biso   1.000  P
  O5       1.0000 0.95480  0.36410  0.20970  Biso   1.000  O
  O6       1.0000 0.07390  0.40510  0.03470  Biso   1.000  O
  O7       1.0000 0.00130  0.25290  0.02380  Biso   1.000  O
  O8       1.0000 0.91410  0.38440  0.96960  Biso   1.000  O
  Al3      1.0000 0.36400  0.50760  0.39990  Biso   1.000  Al
  P3       1.0000 0.35220  0.51120  0.06420  Biso   1.000  P
  O9       1.0000 0.36410  0.54520  0.20970  Biso   1.000  O
  O10      1.0000 0.40510  0.42610  0.03470  Biso   1.000  O
  O11      1.0000 0.25290  0.49870  0.02380  Biso   1.000  O
  O12      1.0000 0.38440  0.58590  0.96960  Biso   1.000  O
  Al4      1.0000 0.13600  0.99240  0.39990  Biso   1.000  Al
  P4       1.0000 0.14780  0.98880  0.06420  Biso   1.000  P
  O13      1.0000 0.13590  0.95480  0.20970  Biso   1.000  O
  O14      1.0000 0.09490  0.07390  0.03470  Biso   1.000  O
  O15      1.0000 0.24710  0.00130  0.02380  Biso   1.000  O
  O16      1.0000 0.11560  0.91410  0.96960  Biso   1.000  O
  Al5      1.0000 0.99240  0.13600  0.10010  Biso   1.000  Al
  P5       1.0000 0.98880  0.14780  0.43580  Biso   1.000  P
  O17      1.0000 0.95480  0.13590  0.29030  Biso   1.000  O
  O18      1.0000 0.07390  0.09490  0.46530  Biso   1.000  O
  O19      1.0000 0.00130  0.24710  0.47620  Biso   1.000  O
  O20      1.0000 0.91410  0.11560  0.53040  Biso   1.000  O
  Al6      1.0000 0.50760  0.36400  0.10010  Biso   1.000  Al
  P6       1.0000 0.51120  0.35220  0.43580  Biso   1.000  P
  O21      1.0000 0.54520  0.36410  0.29030  Biso   1.000  O
  O22      1.0000 0.42610  0.40510  0.46530  Biso   1.000  O
  O23      1.0000 0.49870  0.25290  0.47620  Biso   1.000  O
  O24      1.0000 0.58590  0.38440  0.53040  Biso   1.000  O
  Al7      1.0000 0.13600  0.50760  0.10010  Biso   1.000  Al
  P7       1.0000 0.14780  0.51120  0.43580  Biso   1.000  P
  O25      1.0000 0.13590  0.54520  0.29030  Biso   1.000  O
  O26      1.0000 0.09490  0.42610  0.46530  Biso   1.000  O
  O27      1.0000 0.24710  0.49870  0.47620  Biso   1.000  O
  O28      1.0000 0.11560  0.58590  0.53040  Biso   1.000  O
  Al8      1.0000 0.36400  0.99240  0.10010  Biso   1.000  Al
  P8       1.0000 0.35220  0.98880  0.43580  Biso   1.000  P
  O29      1.0000 0.36410  0.95480  0.29030  Biso   1.000  O
  O30      1.0000 0.40510  0.07390  0.46530  Biso   1.000  O
  O31      1.0000 0.25290  0.00130  0.47620  Biso   1.000  O
  O32      1.0000 0.38440  0.91410  0.53040  Biso   1.000  O
  Al9      1.0000 0.49240  0.86400  0.60010  Biso   1.000  Al
  P9       1.0000 0.48880  0.85220  0.93580  Biso   1.000  P
  O33      1.0000 0.45480  0.86410  0.79030  Biso   1.000  O
  O34      1.0000 0.57390  0.90510  0.96530  Biso   1.000  O
  O35      1.0000 0.50130  0.75290  0.97620  Biso   1.000  O
  O36      1.0000 0.41410  0.88440  0.03040  Biso   1.000  O
  Al10     1.0000 0.00760  0.63600  0.60010  Biso   1.000  Al
  P10      1.0000 0.01120  0.64780  0.93580  Biso   1.000  P
  O37      1.0000 0.04520  0.63590  0.79030  Biso   1.000  O
  O38      1.0000 0.92610  0.59490  0.96530  Biso   1.000  O
  O39      1.0000 0.99870  0.74710  0.97620  Biso   1.000  O
  O40      1.0000 0.08590  0.61560  0.03040  Biso   1.000  O
  Al11     1.0000 0.63600  0.49240  0.60010  Biso   1.000  Al
  P11      1.0000 0.64780  0.48880  0.93580  Biso   1.000  P
  O41      1.0000 0.63590  0.45480  0.79030  Biso   1.000  O
  O42      1.0000 0.59490  0.57390  0.96530  Biso   1.000  O
  O43      1.0000 0.74710  0.50130  0.97620  Biso   1.000  O
  O44      1.0000 0.61560  0.41410  0.03040  Biso   1.000  O
  Al12     1.0000 0.86400  0.00760  0.60010  Biso   1.000  Al
  P12      1.0000 0.85220  0.01120  0.93580  Biso   1.000  P
  O45      1.0000 0.86410  0.04520  0.79030  Biso   1.000  O
  O46      1.0000 0.90510  0.92610  0.96530  Biso   1.000  O
  O47      1.0000 0.75290  0.99870  0.97620  Biso   1.000  O
  O48      1.0000 0.88440  0.08590  0.03040  Biso   1.000  O
  Al13     1.0000 0.00760  0.86400  0.89990  Biso   1.000  Al
  P13      1.0000 0.01120  0.85220  0.56420  Biso   1.000  P
  O49      1.0000 0.04520  0.86410  0.70970  Biso   1.000  O
  O50      1.0000 0.92610  0.90510  0.53470  Biso   1.000  O
  O51      1.0000 0.99870  0.75290  0.52380  Biso   1.000  O
  O52      1.0000 0.08590  0.88440  0.46960  Biso   1.000  O
  Al14     1.0000 0.49240  0.63600  0.89990  Biso   1.000  Al
  P14      1.0000 0.48880  0.64780  0.56420  Biso   1.000  P
  O53      1.0000 0.45480  0.63590  0.70970  Biso   1.000  O
  O54      1.0000 0.57390  0.59490  0.53470  Biso   1.000  O
  O55      1.0000 0.50130  0.74710  0.52380  Biso   1.000  O
  O56      1.0000 0.41410  0.61560  0.46960  Biso   1.000  O
  Al15     1.0000 0.86400  0.49240  0.89990  Biso   1.000  Al
  P15      1.0000 0.85220  0.48880  0.56420  Biso   1.000  P
  O57      1.0000 0.86410  0.45480  0.70970  Biso   1.000  O
  O58      1.0000 0.90510  0.57390  0.53470  Biso   1.000  O
  O59      1.0000 0.75290  0.50130  0.52380  Biso   1.000  O
  O60      1.0000 0.88440  0.41410  0.46960  Biso   1.000  O
  Al16     1.0000 0.63600  0.00760  0.89990  Biso   1.000  Al
  P16      1.0000 0.64780  0.01120  0.56420  Biso   1.000  P
  O61      1.0000 0.63590  0.04520  0.70970  Biso   1.000  O
  O62      1.0000 0.59490  0.92610  0.53470  Biso   1.000  O
  O63      1.0000 0.74710  0.99870  0.52380  Biso   1.000  O
  O64      1.0000 0.61560  0.08590  0.46960  Biso   1.000  O
