data_image0
_cell_length_a       13.8257
_cell_length_b       14.4788
_cell_length_c       10.1658
_cell_angle_alpha    90
_cell_angle_beta     90
_cell_angle_gamma    90

_symmetry_space_group_name_H-M    "P 1"
_symmetry_int_tables_number       1

loop_
  _symmetry_equiv_pos_as_xyz
  'x, y, z'

loop_
  _atom_site_label
  _atom_site_occupancy
  _atom_site_fract_x
  _atom_site_fract_y
  _atom_site_fract_z
  _atom_site_thermal_displace_type
  _atom_site_B_iso_or_equiv
  _atom_site_type_symbol
  Al1      1.0000 0.26360  0.14720  0.53270  Biso   1.000  Al
  P1       1.0000 0.33270  0.26300  0.28420  Biso   1.000  P
  O1       1.0000 0.39120  0.18510  0.22490  Biso   1.000  O
  O2       1.0000 0.15690  0.08450  0.47960  Biso   1.000  O
  O3       1.0000 0.36920  0.07020  0.56980  Biso   1.000  O
  O4       1.0000 0.39900  0.34480  0.30640  Biso   1.000  O
  O5       1.0000 0.25380  0.28680  0.19040  Biso   1.000  O
  O6       1.0000 0.49680  0.04650  0.39540  Biso   1.000  O
  O7       1.0000 0.28790  0.23990  0.41060  Biso   1.000  O
  O8       1.0000 0.03120  0.01550  0.61550  Biso   1.000  O
  Al2      1.0000 0.76360  0.64720  0.53270  Biso   1.000  Al
  P2       1.0000 0.83270  0.76300  0.28420  Biso   1.000  P
  O9       1.0000 0.89120  0.68510  0.22490  Biso   1.000  O
  O10      1.0000 0.65690  0.58450  0.47960  Biso   1.000  O
  O11      1.0000 0.86920  0.57020  0.56980  Biso   1.000  O
  O12      1.0000 0.89900  0.84480  0.30640  Biso   1.000  O
  O13      1.0000 0.75380  0.78680  0.19040  Biso   1.000  O
  O14      1.0000 0.99680  0.54650  0.39540  Biso   1.000  O
  O15      1.0000 0.78790  0.73990  0.41060  Biso   1.000  O
  O16      1.0000 0.53120  0.51550  0.61550  Biso   1.000  O
  Al3      1.0000 0.73640  0.85280  0.03270  Biso   1.000  Al
  P3       1.0000 0.66730  0.73700  0.78420  Biso   1.000  P
  O17      1.0000 0.60880  0.81490  0.72490  Biso   1.000  O
  O18      1.0000 0.84310  0.91550  0.97960  Biso   1.000  O
  O19      1.0000 0.63080  0.92980  0.06980  Biso   1.000  O
  O20      1.0000 0.60100  0.65520  0.80640  Biso   1.000  O
  O21      1.0000 0.74620  0.71320  0.69040  Biso   1.000  O
  O22      1.0000 0.50320  0.95350  0.89540  Biso   1.000  O
  O23      1.0000 0.71210  0.76010  0.91060  Biso   1.000  O
  O24      1.0000 0.96880  0.98450  0.11550  Biso   1.000  O
  Al4      1.0000 0.23640  0.35280  0.03270  Biso   1.000  Al
  P4       1.0000 0.16730  0.23700  0.78420  Biso   1.000  P
  O25      1.0000 0.10880  0.31490  0.72490  Biso   1.000  O
  O26      1.0000 0.34310  0.41550  0.97960  Biso   1.000  O
  O27      1.0000 0.13080  0.42980  0.06980  Biso   1.000  O
  O28      1.0000 0.10100  0.15520  0.80640  Biso   1.000  O
  O29      1.0000 0.24620  0.21320  0.69040  Biso   1.000  O
  O30      1.0000 0.00320  0.45350  0.89540  Biso   1.000  O
  O31      1.0000 0.21210  0.26010  0.91060  Biso   1.000  O
  O32      1.0000 0.46880  0.48450  0.11550  Biso   1.000  O
  Al5      1.0000 0.73640  0.14720  0.96730  Biso   1.000  Al
  P5       1.0000 0.66730  0.26300  0.21580  Biso   1.000  P
  O33      1.0000 0.60880  0.18510  0.27510  Biso   1.000  O
  O34      1.0000 0.84310  0.08450  0.02040  Biso   1.000  O
  O35      1.0000 0.63080  0.07020  0.93020  Biso   1.000  O
  O36      1.0000 0.60100  0.34480  0.19360  Biso   1.000  O
  O37      1.0000 0.74620  0.28680  0.30960  Biso   1.000  O
  O38      1.0000 0.50320  0.04650  0.10460  Biso   1.000  O
  O39      1.0000 0.71210  0.23990  0.08940  Biso   1.000  O
  O40      1.0000 0.96880  0.01550  0.88450  Biso   1.000  O
  Al6      1.0000 0.23640  0.64720  0.96730  Biso   1.000  Al
  P6       1.0000 0.16730  0.76300  0.21580  Biso   1.000  P
  O41      1.0000 0.10880  0.68510  0.27510  Biso   1.000  O
  O42      1.0000 0.34310  0.58450  0.02040  Biso   1.000  O
  O43      1.0000 0.13080  0.57020  0.93020  Biso   1.000  O
  O44      1.0000 0.10100  0.84480  0.19360  Biso   1.000  O
  O45      1.0000 0.24620  0.78680  0.30960  Biso   1.000  O
  O46      1.0000 0.00320  0.54650  0.10460  Biso   1.000  O
  O47      1.0000 0.21210  0.73990  0.08940  Biso   1.000  O
  O48      1.0000 0.46880  0.51550  0.88450  Biso   1.000  O
  Al7      1.0000 0.26360  0.85280  0.46730  Biso   1.000  Al
  P7       1.0000 0.33270  0.73700  0.71580  Biso   1.000  P
  O49      1.0000 0.39120  0.81490  0.77510  Biso   1.000  O
  O50      1.0000 0.15690  0.91550  0.52040  Biso   1.000  O
  O51      1.0000 0.36920  0.92980  0.43020  Biso   1.000  O
  O52      1.0000 0.39900  0.65520  0.69360  Biso   1.000  O
  O53      1.0000 0.25380  0.71320  0.80960  Biso   1.000  O
  O54      1.0000 0.49680  0.95350  0.60460  Biso   1.000  O
  O55      1.0000 0.28790  0.76010  0.58940  Biso   1.000  O
  O56      1.0000 0.03120  0.98450  0.38450  Biso   1.000  O
  Al8      1.0000 0.76360  0.35280  0.46730  Biso   1.000  Al
  P8       1.0000 0.83270  0.23700  0.71580  Biso   1.000  P
  O57      1.0000 0.89120  0.31490  0.77510  Biso   1.000  O
  O58      1.0000 0.65690  0.41550  0.52040  Biso   1.000  O
  O59      1.0000 0.86920  0.42980  0.43020  Biso   1.000  O
  O60      1.0000 0.89900  0.15520  0.69360  Biso   1.000  O
  O61      1.0000 0.75380  0.21320  0.80960  Biso   1.000  O
  O62      1.0000 0.99680  0.45350  0.60460  Biso   1.000  O
  O63      1.0000 0.78790  0.26010  0.58940  Biso   1.000  O
  O64      1.0000 0.53120  0.48450  0.38450  Biso   1.000  O
  Al9      1.0000 0.50000  0.11570  0.25000  Biso   1.000  Al
  Al10     1.0000 0.50000  0.41030  0.25000  Biso   1.000  Al
  Al11     1.0000 0.00000  0.61570  0.25000  Biso   1.000  Al
  Al12     1.0000 0.00000  0.91030  0.25000  Biso   1.000  Al
  Al13     1.0000 0.50000  0.88430  0.75000  Biso   1.000  Al
  Al14     1.0000 0.50000  0.58970  0.75000  Biso   1.000  Al
  Al15     1.0000 0.00000  0.38430  0.75000  Biso   1.000  Al
  Al16     1.0000 0.00000  0.08970  0.75000  Biso   1.000  Al
  P9       1.0000 0.09500  0.00000  0.50000  Biso   1.000  P
  P10      1.0000 0.43160  0.00000  0.50000  Biso   1.000  P
  P11      1.0000 0.59500  0.50000  0.50000  Biso   1.000  P
  P12      1.0000 0.93160  0.50000  0.50000  Biso   1.000  P
  P13      1.0000 0.90500  0.00000  0.00000  Biso   1.000  P
  P14      1.0000 0.56840  0.00000  0.00000  Biso   1.000  P
  P15      1.0000 0.40500  0.50000  0.00000  Biso   1.000  P
  P16      1.0000 0.06840  0.50000  0.00000  Biso   1.000  P
