data_image0
_cell_length_a       14.13
_cell_length_b       13.178
_cell_length_c       14.018
_cell_angle_alpha    90
_cell_angle_beta     90.561
_cell_angle_gamma    90

_symmetry_space_group_name_H-M    "P 1"
_symmetry_int_tables_number       1

loop_
  _symmetry_equiv_pos_as_xyz
  'x, y, z'

loop_
  _atom_site_label
  _atom_site_occupancy
  _atom_site_fract_x
  _atom_site_fract_y
  _atom_site_fract_z
  _atom_site_thermal_displace_type
  _atom_site_B_iso_or_equiv
  _atom_site_type_symbol
  Al1      1.0000 0.12390  0.85810  0.22570  Biso   1.000  Al
  Al2      1.0000 0.01920  0.74250  0.62290  Biso   1.000  Al
  Co1      1.0000 0.12390  0.14190  0.72570  Biso   1.000  Co
  Co2      1.0000 0.01920  0.25750  0.12290  Biso   1.000  Co
  P1       1.0000 0.02540  0.26250  0.89330  Biso   1.000  P
  P2       1.0000 0.14430  0.62910  0.77500  Biso   1.000  P
  O1       1.0000 0.05970  0.26340  0.99790  Biso   1.000  O
  O2       1.0000 0.99340  0.36910  0.86810  Biso   1.000  O
  O3       1.0000 0.11850  0.52200  0.74120  Biso   1.000  O
  O4       1.0000 0.08320  0.65500  0.85900  Biso   1.000  O
  O5       1.0000 0.08920  0.00270  0.74760  Biso   1.000  O
  O6       1.0000 0.12620  0.70360  0.69640  Biso   1.000  O
  O7       1.0000 0.99090  0.87850  0.66130  Biso   1.000  O
  O8       1.0000 0.10600  0.23110  0.83020  Biso   1.000  O
  O9       1.0000 0.24510  0.63440  0.80730  Biso   1.000  O
  O10      1.0000 0.94360  0.18790  0.88380  Biso   1.000  O
  Al3      1.0000 0.62390  0.35810  0.22570  Biso   1.000  Al
  Al4      1.0000 0.51920  0.24250  0.62290  Biso   1.000  Al
  Co3      1.0000 0.62390  0.64190  0.72570  Biso   1.000  Co
  Co4      1.0000 0.51920  0.75750  0.12290  Biso   1.000  Co
  P3       1.0000 0.52540  0.76250  0.89330  Biso   1.000  P
  P4       1.0000 0.64430  0.12910  0.77500  Biso   1.000  P
  O11      1.0000 0.55970  0.76340  0.99790  Biso   1.000  O
  O12      1.0000 0.49340  0.86910  0.86810  Biso   1.000  O
  O13      1.0000 0.61850  0.02200  0.74120  Biso   1.000  O
  O14      1.0000 0.58320  0.15500  0.85900  Biso   1.000  O
  O15      1.0000 0.58920  0.50270  0.74760  Biso   1.000  O
  O16      1.0000 0.62620  0.20360  0.69640  Biso   1.000  O
  O17      1.0000 0.49090  0.37850  0.66130  Biso   1.000  O
  O18      1.0000 0.60600  0.73110  0.83020  Biso   1.000  O
  O19      1.0000 0.74510  0.13440  0.80730  Biso   1.000  O
  O20      1.0000 0.44360  0.68790  0.88380  Biso   1.000  O
  Al5      1.0000 0.87610  0.85810  0.27430  Biso   1.000  Al
  Al6      1.0000 0.98080  0.74250  0.87710  Biso   1.000  Al
  Co5      1.0000 0.87610  0.14190  0.77430  Biso   1.000  Co
  Co6      1.0000 0.98080  0.25750  0.37710  Biso   1.000  Co
  P5       1.0000 0.97460  0.26250  0.60670  Biso   1.000  P
  P6       1.0000 0.85570  0.62910  0.72500  Biso   1.000  P
  O21      1.0000 0.94030  0.26340  0.50210  Biso   1.000  O
  O22      1.0000 0.00660  0.36910  0.63190  Biso   1.000  O
  O23      1.0000 0.88150  0.52200  0.75880  Biso   1.000  O
  O24      1.0000 0.91680  0.65500  0.64100  Biso   1.000  O
  O25      1.0000 0.91080  0.00270  0.75240  Biso   1.000  O
  O26      1.0000 0.87380  0.70360  0.80360  Biso   1.000  O
  O27      1.0000 0.00910  0.87850  0.83870  Biso   1.000  O
  O28      1.0000 0.89400  0.23110  0.66980  Biso   1.000  O
  O29      1.0000 0.75490  0.63440  0.69270  Biso   1.000  O
  O30      1.0000 0.05640  0.18790  0.61620  Biso   1.000  O
  Al7      1.0000 0.37610  0.35810  0.27430  Biso   1.000  Al
  Al8      1.0000 0.48080  0.24250  0.87710  Biso   1.000  Al
  Co7      1.0000 0.37610  0.64190  0.77430  Biso   1.000  Co
  Co8      1.0000 0.48080  0.75750  0.37710  Biso   1.000  Co
  P7       1.0000 0.47460  0.76250  0.60670  Biso   1.000  P
  P8       1.0000 0.35570  0.12910  0.72500  Biso   1.000  P
  O31      1.0000 0.44030  0.76340  0.50210  Biso   1.000  O
  O32      1.0000 0.50660  0.86910  0.63190  Biso   1.000  O
  O33      1.0000 0.38150  0.02200  0.75880  Biso   1.000  O
  O34      1.0000 0.41680  0.15500  0.64100  Biso   1.000  O
  O35      1.0000 0.41080  0.50270  0.75240  Biso   1.000  O
  O36      1.0000 0.37380  0.20360  0.80360  Biso   1.000  O
  O37      1.0000 0.50910  0.37850  0.83870  Biso   1.000  O
  O38      1.0000 0.39400  0.73110  0.66980  Biso   1.000  O
  O39      1.0000 0.25490  0.13440  0.69270  Biso   1.000  O
  O40      1.0000 0.55640  0.68790  0.61620  Biso   1.000  O
  P9       1.0000 0.97460  0.73750  0.10670  Biso   1.000  P
  P10      1.0000 0.85570  0.37090  0.22500  Biso   1.000  P
  O41      1.0000 0.94030  0.73660  0.00210  Biso   1.000  O
  O42      1.0000 0.00660  0.63090  0.13190  Biso   1.000  O
  O43      1.0000 0.88150  0.47800  0.25880  Biso   1.000  O
  O44      1.0000 0.91680  0.34500  0.14100  Biso   1.000  O
  O45      1.0000 0.91080  0.99730  0.25240  Biso   1.000  O
  O46      1.0000 0.87380  0.29640  0.30360  Biso   1.000  O
  O47      1.0000 0.00910  0.12150  0.33870  Biso   1.000  O
  O48      1.0000 0.89400  0.76890  0.16980  Biso   1.000  O
  O49      1.0000 0.75490  0.36560  0.19270  Biso   1.000  O
  O50      1.0000 0.05640  0.81210  0.11620  Biso   1.000  O
  P11      1.0000 0.47460  0.23750  0.10670  Biso   1.000  P
  P12      1.0000 0.35570  0.87090  0.22500  Biso   1.000  P
  O51      1.0000 0.44030  0.23660  0.00210  Biso   1.000  O
  O52      1.0000 0.50660  0.13090  0.13190  Biso   1.000  O
  O53      1.0000 0.38150  0.97800  0.25880  Biso   1.000  O
  O54      1.0000 0.41680  0.84500  0.14100  Biso   1.000  O
  O55      1.0000 0.41080  0.49730  0.25240  Biso   1.000  O
  O56      1.0000 0.37380  0.79640  0.30360  Biso   1.000  O
  O57      1.0000 0.50910  0.62150  0.33870  Biso   1.000  O
  O58      1.0000 0.39400  0.26890  0.16980  Biso   1.000  O
  O59      1.0000 0.25490  0.86560  0.19270  Biso   1.000  O
  O60      1.0000 0.55640  0.31210  0.11620  Biso   1.000  O
  P13      1.0000 0.02540  0.73750  0.39330  Biso   1.000  P
  P14      1.0000 0.14430  0.37090  0.27500  Biso   1.000  P
  O61      1.0000 0.05970  0.73660  0.49790  Biso   1.000  O
  O62      1.0000 0.99340  0.63090  0.36810  Biso   1.000  O
  O63      1.0000 0.11850  0.47800  0.24120  Biso   1.000  O
  O64      1.0000 0.08320  0.34500  0.35900  Biso   1.000  O
  O65      1.0000 0.08920  0.99730  0.24760  Biso   1.000  O
  O66      1.0000 0.12620  0.29640  0.19640  Biso   1.000  O
  O67      1.0000 0.99090  0.12150  0.16130  Biso   1.000  O
  O68      1.0000 0.10600  0.76890  0.33020  Biso   1.000  O
  O69      1.0000 0.24510  0.36560  0.30730  Biso   1.000  O
  O70      1.0000 0.94360  0.81210  0.38380  Biso   1.000  O
  P15      1.0000 0.52540  0.23750  0.39330  Biso   1.000  P
  P16      1.0000 0.64430  0.87090  0.27500  Biso   1.000  P
  O71      1.0000 0.55970  0.23660  0.49790  Biso   1.000  O
  O72      1.0000 0.49340  0.13090  0.36810  Biso   1.000  O
  O73      1.0000 0.61850  0.97800  0.24120  Biso   1.000  O
  O74      1.0000 0.58320  0.84500  0.35900  Biso   1.000  O
  O75      1.0000 0.58920  0.49730  0.24760  Biso   1.000  O
  O76      1.0000 0.62620  0.79640  0.19640  Biso   1.000  O
  O77      1.0000 0.49090  0.62150  0.16130  Biso   1.000  O
  O78      1.0000 0.60600  0.26890  0.33020  Biso   1.000  O
  O79      1.0000 0.74510  0.86560  0.30730  Biso   1.000  O
  O80      1.0000 0.44360  0.31210  0.38380  Biso   1.000  O
  Co9      1.0000 0.00000  0.44680  0.75000  Biso   1.000  Co
  P17      1.0000 0.00000  0.94060  0.75000  Biso   1.000  P
  Co10     1.0000 0.50000  0.94680  0.75000  Biso   1.000  Co
  P18      1.0000 0.50000  0.44060  0.75000  Biso   1.000  P
  Co11     1.0000 0.00000  0.55320  0.25000  Biso   1.000  Co
  P19      1.0000 0.00000  0.05940  0.25000  Biso   1.000  P
  Co12     1.0000 0.50000  0.05320  0.25000  Biso   1.000  Co
  P20      1.0000 0.50000  0.55940  0.25000  Biso   1.000  P
