data_image0
_cell_length_a       13.8201
_cell_length_b       13.187
_cell_length_c       13.8527
_cell_angle_alpha    90
_cell_angle_beta     90.804
_cell_angle_gamma    90

_symmetry_space_group_name_H-M    "P 1"
_symmetry_int_tables_number       1

loop_
  _symmetry_equiv_pos_as_xyz
  'x, y, z'

loop_
  _atom_site_label
  _atom_site_occupancy
  _atom_site_fract_x
  _atom_site_fract_y
  _atom_site_fract_z
  _atom_site_thermal_displace_type
  _atom_site_B_iso_or_equiv
  _atom_site_type_symbol
  Al1      1.0000 0.12390  0.85900  0.22540  Biso   1.000  Al
  Al2      1.0000 0.02500  0.74060  0.62360  Biso   1.000  Al
  Co1      1.0000 0.12390  0.14100  0.72540  Biso   1.000  Co
  Co2      1.0000 0.02500  0.25940  0.12360  Biso   1.000  Co
  P1       1.0000 0.02920  0.26070  0.89460  Biso   1.000  P
  P2       1.0000 0.14470  0.62510  0.78060  Biso   1.000  P
  O1       1.0000 0.06890  0.26030  0.99830  Biso   1.000  O
  O2       1.0000 0.99110  0.36590  0.86960  Biso   1.000  O
  O3       1.0000 0.12040  0.51790  0.74800  Biso   1.000  O
  O4       1.0000 0.08000  0.65460  0.86350  Biso   1.000  O
  O5       1.0000 0.08960  0.00480  0.75710  Biso   1.000  O
  O6       1.0000 0.13320  0.70030  0.69840  Biso   1.000  O
  O7       1.0000 0.00160  0.87570  0.65870  Biso   1.000  O
  O8       1.0000 0.11320  0.23500  0.82840  Biso   1.000  O
  O9       1.0000 0.24790  0.62720  0.81890  Biso   1.000  O
  O10      1.0000 0.94860  0.18310  0.88500  Biso   1.000  O
  Al3      1.0000 0.62390  0.35900  0.22540  Biso   1.000  Al
  Al4      1.0000 0.52500  0.24060  0.62360  Biso   1.000  Al
  Co3      1.0000 0.62390  0.64100  0.72540  Biso   1.000  Co
  Co4      1.0000 0.52500  0.75940  0.12360  Biso   1.000  Co
  P3       1.0000 0.52920  0.76070  0.89460  Biso   1.000  P
  P4       1.0000 0.64470  0.12510  0.78060  Biso   1.000  P
  O11      1.0000 0.56890  0.76030  0.99830  Biso   1.000  O
  O12      1.0000 0.49110  0.86590  0.86960  Biso   1.000  O
  O13      1.0000 0.62040  0.01790  0.74800  Biso   1.000  O
  O14      1.0000 0.58000  0.15460  0.86350  Biso   1.000  O
  O15      1.0000 0.58960  0.50480  0.75710  Biso   1.000  O
  O16      1.0000 0.63320  0.20030  0.69840  Biso   1.000  O
  O17      1.0000 0.50160  0.37570  0.65870  Biso   1.000  O
  O18      1.0000 0.61320  0.73500  0.82840  Biso   1.000  O
  O19      1.0000 0.74790  0.12720  0.81890  Biso   1.000  O
  O20      1.0000 0.44860  0.68310  0.88500  Biso   1.000  O
  Al5      1.0000 0.87610  0.85900  0.27460  Biso   1.000  Al
  Al6      1.0000 0.97500  0.74060  0.87640  Biso   1.000  Al
  Co5      1.0000 0.87610  0.14100  0.77460  Biso   1.000  Co
  Co6      1.0000 0.97500  0.25940  0.37640  Biso   1.000  Co
  P5       1.0000 0.97080  0.26070  0.60540  Biso   1.000  P
  P6       1.0000 0.85530  0.62510  0.71940  Biso   1.000  P
  O21      1.0000 0.93110  0.26030  0.50170  Biso   1.000  O
  O22      1.0000 0.00890  0.36590  0.63040  Biso   1.000  O
  O23      1.0000 0.87960  0.51790  0.75200  Biso   1.000  O
  O24      1.0000 0.92000  0.65460  0.63650  Biso   1.000  O
  O25      1.0000 0.91040  0.00480  0.74290  Biso   1.000  O
  O26      1.0000 0.86680  0.70030  0.80160  Biso   1.000  O
  O27      1.0000 0.99840  0.87570  0.84130  Biso   1.000  O
  O28      1.0000 0.88680  0.23500  0.67160  Biso   1.000  O
  O29      1.0000 0.75210  0.62720  0.68110  Biso   1.000  O
  O30      1.0000 0.05140  0.18310  0.61500  Biso   1.000  O
  Al7      1.0000 0.37610  0.35900  0.27460  Biso   1.000  Al
  Al8      1.0000 0.47500  0.24060  0.87640  Biso   1.000  Al
  Co7      1.0000 0.37610  0.64100  0.77460  Biso   1.000  Co
  Co8      1.0000 0.47500  0.75940  0.37640  Biso   1.000  Co
  P7       1.0000 0.47080  0.76070  0.60540  Biso   1.000  P
  P8       1.0000 0.35530  0.12510  0.71940  Biso   1.000  P
  O31      1.0000 0.43110  0.76030  0.50170  Biso   1.000  O
  O32      1.0000 0.50890  0.86590  0.63040  Biso   1.000  O
  O33      1.0000 0.37960  0.01790  0.75200  Biso   1.000  O
  O34      1.0000 0.42000  0.15460  0.63650  Biso   1.000  O
  O35      1.0000 0.41040  0.50480  0.74290  Biso   1.000  O
  O36      1.0000 0.36680  0.20030  0.80160  Biso   1.000  O
  O37      1.0000 0.49840  0.37570  0.84130  Biso   1.000  O
  O38      1.0000 0.38680  0.73500  0.67160  Biso   1.000  O
  O39      1.0000 0.25210  0.12720  0.68110  Biso   1.000  O
  O40      1.0000 0.55140  0.68310  0.61500  Biso   1.000  O
  P9       1.0000 0.97080  0.73930  0.10540  Biso   1.000  P
  P10      1.0000 0.85530  0.37490  0.21940  Biso   1.000  P
  O41      1.0000 0.93110  0.73970  0.00170  Biso   1.000  O
  O42      1.0000 0.00890  0.63410  0.13040  Biso   1.000  O
  O43      1.0000 0.87960  0.48210  0.25200  Biso   1.000  O
  O44      1.0000 0.92000  0.34540  0.13650  Biso   1.000  O
  O45      1.0000 0.91040  0.99520  0.24290  Biso   1.000  O
  O46      1.0000 0.86680  0.29970  0.30160  Biso   1.000  O
  O47      1.0000 0.99840  0.12430  0.34130  Biso   1.000  O
  O48      1.0000 0.88680  0.76500  0.17160  Biso   1.000  O
  O49      1.0000 0.75210  0.37280  0.18110  Biso   1.000  O
  O50      1.0000 0.05140  0.81690  0.11500  Biso   1.000  O
  P11      1.0000 0.47080  0.23930  0.10540  Biso   1.000  P
  P12      1.0000 0.35530  0.87490  0.21940  Biso   1.000  P
  O51      1.0000 0.43110  0.23970  0.00170  Biso   1.000  O
  O52      1.0000 0.50890  0.13410  0.13040  Biso   1.000  O
  O53      1.0000 0.37960  0.98210  0.25200  Biso   1.000  O
  O54      1.0000 0.42000  0.84540  0.13650  Biso   1.000  O
  O55      1.0000 0.41040  0.49520  0.24290  Biso   1.000  O
  O56      1.0000 0.36680  0.79970  0.30160  Biso   1.000  O
  O57      1.0000 0.49840  0.62430  0.34130  Biso   1.000  O
  O58      1.0000 0.38680  0.26500  0.17160  Biso   1.000  O
  O59      1.0000 0.25210  0.87280  0.18110  Biso   1.000  O
  O60      1.0000 0.55140  0.31690  0.11500  Biso   1.000  O
  P13      1.0000 0.02920  0.73930  0.39460  Biso   1.000  P
  P14      1.0000 0.14470  0.37490  0.28060  Biso   1.000  P
  O61      1.0000 0.06890  0.73970  0.49830  Biso   1.000  O
  O62      1.0000 0.99110  0.63410  0.36960  Biso   1.000  O
  O63      1.0000 0.12040  0.48210  0.24800  Biso   1.000  O
  O64      1.0000 0.08000  0.34540  0.36350  Biso   1.000  O
  O65      1.0000 0.08960  0.99520  0.25710  Biso   1.000  O
  O66      1.0000 0.13320  0.29970  0.19840  Biso   1.000  O
  O67      1.0000 0.00160  0.12430  0.15870  Biso   1.000  O
  O68      1.0000 0.11320  0.76500  0.32840  Biso   1.000  O
  O69      1.0000 0.24790  0.37280  0.31890  Biso   1.000  O
  O70      1.0000 0.94860  0.81690  0.38500  Biso   1.000  O
  P15      1.0000 0.52920  0.23930  0.39460  Biso   1.000  P
  P16      1.0000 0.64470  0.87490  0.28060  Biso   1.000  P
  O71      1.0000 0.56890  0.23970  0.49830  Biso   1.000  O
  O72      1.0000 0.49110  0.13410  0.36960  Biso   1.000  O
  O73      1.0000 0.62040  0.98210  0.24800  Biso   1.000  O
  O74      1.0000 0.58000  0.84540  0.36350  Biso   1.000  O
  O75      1.0000 0.58960  0.49520  0.25710  Biso   1.000  O
  O76      1.0000 0.63320  0.79970  0.19840  Biso   1.000  O
  O77      1.0000 0.50160  0.62430  0.15870  Biso   1.000  O
  O78      1.0000 0.61320  0.26500  0.32840  Biso   1.000  O
  O79      1.0000 0.74790  0.87280  0.31890  Biso   1.000  O
  O80      1.0000 0.44860  0.31690  0.38500  Biso   1.000  O
  Co9      1.0000 0.00000  0.44220  0.75000  Biso   1.000  Co
  P17      1.0000 0.00000  0.94060  0.75000  Biso   1.000  P
  Co10     1.0000 0.50000  0.94220  0.75000  Biso   1.000  Co
  P18      1.0000 0.50000  0.44060  0.75000  Biso   1.000  P
  Co11     1.0000 0.00000  0.55780  0.25000  Biso   1.000  Co
  P19      1.0000 0.00000  0.05940  0.25000  Biso   1.000  P
  Co12     1.0000 0.50000  0.05780  0.25000  Biso   1.000  Co
  P20      1.0000 0.50000  0.55940  0.25000  Biso   1.000  P
