data_image0
_cell_length_a       12.9228
_cell_length_b       14.2262
_cell_length_c       14.1978
_cell_angle_alpha    90
_cell_angle_beta     92.795
_cell_angle_gamma    90

_symmetry_space_group_name_H-M    "P 1"
_symmetry_int_tables_number       1

loop_
  _symmetry_equiv_pos_as_xyz
  'x, y, z'

loop_
  _atom_site_label
  _atom_site_occupancy
  _atom_site_fract_x
  _atom_site_fract_y
  _atom_site_fract_z
  _atom_site_thermal_displace_type
  _atom_site_B_iso_or_equiv
  _atom_site_type_symbol
  Co1      1.0000 0.09250  0.23760  0.87170  Biso   1.000  Co
  Co2      1.0000 0.50520  0.37370  0.77150  Biso   1.000  Co
  Co3      1.0000 0.51310  0.12560  0.75760  Biso   1.000  Co
  Ga1      1.0000 0.80590  0.25880  0.72630  Biso   1.000  Ga
  Ga2      1.0000 0.10890  0.26650  0.60330  Biso   1.000  Ga
  Co4      1.0000 0.12070  0.25680  0.61600  Biso   1.000  Co
  P1       1.0000 0.09830  0.23470  0.10350  Biso   1.000  P
  P2       1.0000 0.98750  0.10670  0.71360  Biso   1.000  P
  P3       1.0000 0.99010  0.39360  0.74460  Biso   1.000  P
  P4       1.0000 0.15330  0.25280  0.39220  Biso   1.000  P
  P5       1.0000 0.30610  0.24620  0.77530  Biso   1.000  P
  O1       1.0000 0.08020  0.14560  0.16060  Biso   1.000  O
  O2       1.0000 0.06270  0.12680  0.79770  Biso   1.000  O
  O3       1.0000 0.06060  0.18700  0.38250  Biso   1.000  O
  O4       1.0000 0.88790  0.36740  0.69170  Biso   1.000  O
  O5       1.0000 0.23630  0.25930  0.85870  Biso   1.000  O
  O6       1.0000 0.08120  0.37010  0.68550  Biso   1.000  O
  O7       1.0000 0.99830  0.33700  0.83690  Biso   1.000  O
  O8       1.0000 0.02150  0.15600  0.62470  Biso   1.000  O
  O9       1.0000 0.21210  0.26040  0.11610  Biso   1.000  O
  O10      1.0000 0.38350  0.16880  0.80450  Biso   1.000  O
  O11      1.0000 0.87810  0.13830  0.73320  Biso   1.000  O
  O12      1.0000 0.12540  0.34800  0.34710  Biso   1.000  O
  O13      1.0000 0.24590  0.21140  0.34290  Biso   1.000  O
  O14      1.0000 0.06750  0.21550  0.00090  Biso   1.000  O
  O15      1.0000 0.36170  0.33950  0.76210  Biso   1.000  O
  O16      1.0000 0.24550  0.21830  0.68600  Biso   1.000  O
  O17      1.0000 0.02980  0.31350  0.13800  Biso   1.000  O
  O18      1.0000 0.18650  0.26490  0.49560  Biso   1.000  O
  O19      1.0000 0.98430  0.00230  0.69390  Biso   1.000  O
  O20      1.0000 0.99130  0.49590  0.77090  Biso   1.000  O
  Co5      1.0000 0.40750  0.73760  0.62830  Biso   1.000  Co
  Co6      1.0000 0.99480  0.87370  0.72850  Biso   1.000  Co
  Co7      1.0000 0.98690  0.62560  0.74240  Biso   1.000  Co
  Ga3      1.0000 0.69410  0.75880  0.77370  Biso   1.000  Ga
  Ga4      1.0000 0.39110  0.76650  0.89670  Biso   1.000  Ga
  Co8      1.0000 0.37930  0.75680  0.88400  Biso   1.000  Co
  P6       1.0000 0.40170  0.73470  0.39650  Biso   1.000  P
  P7       1.0000 0.51250  0.60670  0.78640  Biso   1.000  P
  P8       1.0000 0.50990  0.89360  0.75540  Biso   1.000  P
  P9       1.0000 0.34670  0.75280  0.10780  Biso   1.000  P
  P10      1.0000 0.19390  0.74620  0.72470  Biso   1.000  P
  O21      1.0000 0.41980  0.64560  0.33940  Biso   1.000  O
  O22      1.0000 0.43730  0.62680  0.70230  Biso   1.000  O
  O23      1.0000 0.43940  0.68700  0.11750  Biso   1.000  O
  O24      1.0000 0.61210  0.86740  0.80830  Biso   1.000  O
  O25      1.0000 0.26370  0.75930  0.64130  Biso   1.000  O
  O26      1.0000 0.41880  0.87010  0.81450  Biso   1.000  O
  O27      1.0000 0.50170  0.83700  0.66310  Biso   1.000  O
  O28      1.0000 0.47850  0.65600  0.87530  Biso   1.000  O
  O29      1.0000 0.28790  0.76040  0.38390  Biso   1.000  O
  O30      1.0000 0.11650  0.66880  0.69550  Biso   1.000  O
  O31      1.0000 0.62190  0.63830  0.76680  Biso   1.000  O
  O32      1.0000 0.37460  0.84800  0.15290  Biso   1.000  O
  O33      1.0000 0.25410  0.71140  0.15710  Biso   1.000  O
  O34      1.0000 0.43250  0.71550  0.49910  Biso   1.000  O
  O35      1.0000 0.13830  0.83950  0.73790  Biso   1.000  O
  O36      1.0000 0.25450  0.71830  0.81400  Biso   1.000  O
  O37      1.0000 0.47020  0.81350  0.36200  Biso   1.000  O
  O38      1.0000 0.31350  0.76490  0.00440  Biso   1.000  O
  O39      1.0000 0.51570  0.50230  0.80610  Biso   1.000  O
  O40      1.0000 0.50870  0.99590  0.72910  Biso   1.000  O
  Co9      1.0000 0.90750  0.76240  0.12830  Biso   1.000  Co
  Co10     1.0000 0.49480  0.62630  0.22850  Biso   1.000  Co
  Co11     1.0000 0.48690  0.87440  0.24240  Biso   1.000  Co
  Ga5      1.0000 0.19410  0.74120  0.27370  Biso   1.000  Ga
  Ga6      1.0000 0.89110  0.73350  0.39670  Biso   1.000  Ga
  Co12     1.0000 0.87930  0.74320  0.38400  Biso   1.000  Co
  P11      1.0000 0.90170  0.76530  0.89650  Biso   1.000  P
  P12      1.0000 0.01250  0.89330  0.28640  Biso   1.000  P
  P13      1.0000 0.00990  0.60640  0.25540  Biso   1.000  P
  P14      1.0000 0.84670  0.74720  0.60780  Biso   1.000  P
  P15      1.0000 0.69390  0.75380  0.22470  Biso   1.000  P
  O41      1.0000 0.91980  0.85440  0.83940  Biso   1.000  O
  O42      1.0000 0.93730  0.87320  0.20230  Biso   1.000  O
  O43      1.0000 0.93940  0.81300  0.61750  Biso   1.000  O
  O44      1.0000 0.11210  0.63260  0.30830  Biso   1.000  O
  O45      1.0000 0.76370  0.74070  0.14130  Biso   1.000  O
  O46      1.0000 0.91880  0.62990  0.31450  Biso   1.000  O
  O47      1.0000 0.00170  0.66300  0.16310  Biso   1.000  O
  O48      1.0000 0.97850  0.84400  0.37530  Biso   1.000  O
  O49      1.0000 0.78790  0.73960  0.88390  Biso   1.000  O
  O50      1.0000 0.61650  0.83120  0.19550  Biso   1.000  O
  O51      1.0000 0.12190  0.86170  0.26680  Biso   1.000  O
  O52      1.0000 0.87460  0.65200  0.65290  Biso   1.000  O
  O53      1.0000 0.75410  0.78860  0.65710  Biso   1.000  O
  O54      1.0000 0.93250  0.78450  0.99910  Biso   1.000  O
  O55      1.0000 0.63830  0.66050  0.23790  Biso   1.000  O
  O56      1.0000 0.75450  0.78170  0.31400  Biso   1.000  O
  O57      1.0000 0.97020  0.68650  0.86200  Biso   1.000  O
  O58      1.0000 0.81350  0.73510  0.50440  Biso   1.000  O
  O59      1.0000 0.01570  0.99770  0.30610  Biso   1.000  O
  O60      1.0000 0.00870  0.50410  0.22910  Biso   1.000  O
  Co13     1.0000 0.59250  0.26240  0.37170  Biso   1.000  Co
  Co14     1.0000 0.00520  0.12630  0.27150  Biso   1.000  Co
  Co15     1.0000 0.01310  0.37440  0.25760  Biso   1.000  Co
  Ga7      1.0000 0.30590  0.24120  0.22630  Biso   1.000  Ga
  Ga8      1.0000 0.60890  0.23350  0.10330  Biso   1.000  Ga
  Co16     1.0000 0.62070  0.24320  0.11600  Biso   1.000  Co
  P16      1.0000 0.59830  0.26530  0.60350  Biso   1.000  P
  P17      1.0000 0.48750  0.39330  0.21360  Biso   1.000  P
  P18      1.0000 0.49010  0.10640  0.24460  Biso   1.000  P
  P19      1.0000 0.65330  0.24720  0.89220  Biso   1.000  P
  P20      1.0000 0.80610  0.25380  0.27530  Biso   1.000  P
  O61      1.0000 0.58020  0.35440  0.66060  Biso   1.000  O
  O62      1.0000 0.56270  0.37320  0.29770  Biso   1.000  O
  O63      1.0000 0.56060  0.31300  0.88250  Biso   1.000  O
  O64      1.0000 0.38790  0.13260  0.19170  Biso   1.000  O
  O65      1.0000 0.73630  0.24070  0.35870  Biso   1.000  O
  O66      1.0000 0.58120  0.12990  0.18550  Biso   1.000  O
  O67      1.0000 0.49830  0.16300  0.33690  Biso   1.000  O
  O68      1.0000 0.52150  0.34400  0.12470  Biso   1.000  O
  O69      1.0000 0.71210  0.23960  0.61610  Biso   1.000  O
  O70      1.0000 0.88350  0.33120  0.30450  Biso   1.000  O
  O71      1.0000 0.37810  0.36170  0.23320  Biso   1.000  O
  O72      1.0000 0.62540  0.15200  0.84710  Biso   1.000  O
  O73      1.0000 0.74590  0.28860  0.84290  Biso   1.000  O
  O74      1.0000 0.56750  0.28450  0.50090  Biso   1.000  O
  O75      1.0000 0.86170  0.16050  0.26210  Biso   1.000  O
  O76      1.0000 0.74550  0.28170  0.18600  Biso   1.000  O
  O77      1.0000 0.52980  0.18650  0.63800  Biso   1.000  O
  O78      1.0000 0.68650  0.23510  0.99560  Biso   1.000  O
  O79      1.0000 0.48430  0.49770  0.19390  Biso   1.000  O
  O80      1.0000 0.49130  0.00410  0.27090  Biso   1.000  O
