data_image0
_cell_length_a       13.8078
_cell_length_b       13.249
_cell_length_c       13.842
_cell_angle_alpha    90
_cell_angle_beta     91.328
_cell_angle_gamma    90

_symmetry_space_group_name_H-M    "P 1"
_symmetry_int_tables_number       1

loop_
  _symmetry_equiv_pos_as_xyz
  'x, y, z'

loop_
  _atom_site_label
  _atom_site_occupancy
  _atom_site_fract_x
  _atom_site_fract_y
  _atom_site_fract_z
  _atom_site_thermal_displace_type
  _atom_site_B_iso_or_equiv
  _atom_site_type_symbol
  Ga1      1.0000 0.12330  0.86070  0.22430  Biso   1.000  Ga
  Co1      1.0000 0.02640  0.73910  0.62280  Biso   1.000  Co
  Co2      1.0000 0.87670  0.13930  0.77570  Biso   1.000  Co
  P1       1.0000 0.96820  0.26090  0.60600  Biso   1.000  P
  P2       1.0000 0.85580  0.62270  0.71590  Biso   1.000  P
  O1       1.0000 0.92570  0.26410  0.50280  Biso   1.000  O
  O2       1.0000 0.00810  0.36590  0.63300  Biso   1.000  O
  O3       1.0000 0.88190  0.51710  0.75100  Biso   1.000  O
  O4       1.0000 0.92100  0.65000  0.63380  Biso   1.000  O
  O5       1.0000 0.90990  0.00130  0.74440  Biso   1.000  O
  O6       1.0000 0.86650  0.69970  0.79700  Biso   1.000  O
  O7       1.0000 0.00300  0.87310  0.84180  Biso   1.000  O
  O8       1.0000 0.88410  0.23600  0.67260  Biso   1.000  O
  O9       1.0000 0.75210  0.62190  0.67660  Biso   1.000  O
  O10      1.0000 0.04770  0.18240  0.61200  Biso   1.000  O
  Ga2      1.0000 0.62330  0.36070  0.22430  Biso   1.000  Ga
  Co3      1.0000 0.52640  0.23910  0.62280  Biso   1.000  Co
  Co4      1.0000 0.37670  0.63930  0.77570  Biso   1.000  Co
  P3       1.0000 0.46820  0.76090  0.60600  Biso   1.000  P
  P4       1.0000 0.35580  0.12270  0.71590  Biso   1.000  P
  O11      1.0000 0.42570  0.76410  0.50280  Biso   1.000  O
  O12      1.0000 0.50810  0.86590  0.63300  Biso   1.000  O
  O13      1.0000 0.38190  0.01710  0.75100  Biso   1.000  O
  O14      1.0000 0.42100  0.15000  0.63380  Biso   1.000  O
  O15      1.0000 0.40990  0.50130  0.74440  Biso   1.000  O
  O16      1.0000 0.36650  0.19970  0.79700  Biso   1.000  O
  O17      1.0000 0.50300  0.37310  0.84180  Biso   1.000  O
  O18      1.0000 0.38410  0.73600  0.67260  Biso   1.000  O
  O19      1.0000 0.25210  0.12190  0.67660  Biso   1.000  O
  O20      1.0000 0.54770  0.68240  0.61200  Biso   1.000  O
  Ga3      1.0000 0.87670  0.86070  0.27570  Biso   1.000  Ga
  Co5      1.0000 0.97360  0.73910  0.87720  Biso   1.000  Co
  Co6      1.0000 0.12330  0.13930  0.72430  Biso   1.000  Co
  P5       1.0000 0.03180  0.26090  0.89400  Biso   1.000  P
  P6       1.0000 0.14420  0.62270  0.78410  Biso   1.000  P
  O21      1.0000 0.07430  0.26410  0.99720  Biso   1.000  O
  O22      1.0000 0.99190  0.36590  0.86700  Biso   1.000  O
  O23      1.0000 0.11810  0.51710  0.74900  Biso   1.000  O
  O24      1.0000 0.07900  0.65000  0.86620  Biso   1.000  O
  O25      1.0000 0.09010  0.00130  0.75560  Biso   1.000  O
  O26      1.0000 0.13350  0.69970  0.70300  Biso   1.000  O
  O27      1.0000 0.99700  0.87310  0.65820  Biso   1.000  O
  O28      1.0000 0.11590  0.23600  0.82740  Biso   1.000  O
  O29      1.0000 0.24790  0.62190  0.82340  Biso   1.000  O
  O30      1.0000 0.95230  0.18240  0.88800  Biso   1.000  O
  Ga4      1.0000 0.37670  0.36070  0.27570  Biso   1.000  Ga
  Co7      1.0000 0.47360  0.23910  0.87720  Biso   1.000  Co
  Co8      1.0000 0.62330  0.63930  0.72430  Biso   1.000  Co
  P7       1.0000 0.53180  0.76090  0.89400  Biso   1.000  P
  P8       1.0000 0.64420  0.12270  0.78410  Biso   1.000  P
  O31      1.0000 0.57430  0.76410  0.99720  Biso   1.000  O
  O32      1.0000 0.49190  0.86590  0.86700  Biso   1.000  O
  O33      1.0000 0.61810  0.01710  0.74900  Biso   1.000  O
  O34      1.0000 0.57900  0.15000  0.86620  Biso   1.000  O
  O35      1.0000 0.59010  0.50130  0.75560  Biso   1.000  O
  O36      1.0000 0.63350  0.19970  0.70300  Biso   1.000  O
  O37      1.0000 0.49700  0.37310  0.65820  Biso   1.000  O
  O38      1.0000 0.61590  0.73600  0.82740  Biso   1.000  O
  O39      1.0000 0.74790  0.12190  0.82340  Biso   1.000  O
  O40      1.0000 0.45230  0.68240  0.88800  Biso   1.000  O
  Co9      1.0000 0.97360  0.26090  0.37720  Biso   1.000  Co
  P9       1.0000 0.03180  0.73910  0.39400  Biso   1.000  P
  P10      1.0000 0.14420  0.37730  0.28410  Biso   1.000  P
  O41      1.0000 0.07430  0.73590  0.49720  Biso   1.000  O
  O42      1.0000 0.99190  0.63410  0.36700  Biso   1.000  O
  O43      1.0000 0.11810  0.48290  0.24900  Biso   1.000  O
  O44      1.0000 0.07900  0.35000  0.36620  Biso   1.000  O
  O45      1.0000 0.09010  0.99870  0.25560  Biso   1.000  O
  O46      1.0000 0.13350  0.30030  0.20300  Biso   1.000  O
  O47      1.0000 0.99700  0.12690  0.15820  Biso   1.000  O
  O48      1.0000 0.11590  0.76400  0.32740  Biso   1.000  O
  O49      1.0000 0.24790  0.37810  0.32340  Biso   1.000  O
  O50      1.0000 0.95230  0.81760  0.38800  Biso   1.000  O
  Co10     1.0000 0.47360  0.76090  0.37720  Biso   1.000  Co
  P11      1.0000 0.53180  0.23910  0.39400  Biso   1.000  P
  P12      1.0000 0.64420  0.87730  0.28410  Biso   1.000  P
  O51      1.0000 0.57430  0.23590  0.49720  Biso   1.000  O
  O52      1.0000 0.49190  0.13410  0.36700  Biso   1.000  O
  O53      1.0000 0.61810  0.98290  0.24900  Biso   1.000  O
  O54      1.0000 0.57900  0.85000  0.36620  Biso   1.000  O
  O55      1.0000 0.59010  0.49870  0.25560  Biso   1.000  O
  O56      1.0000 0.63350  0.80030  0.20300  Biso   1.000  O
  O57      1.0000 0.49700  0.62690  0.15820  Biso   1.000  O
  O58      1.0000 0.61590  0.26400  0.32740  Biso   1.000  O
  O59      1.0000 0.74790  0.87810  0.32340  Biso   1.000  O
  O60      1.0000 0.45230  0.31760  0.38800  Biso   1.000  O
  Co11     1.0000 0.02640  0.26090  0.12280  Biso   1.000  Co
  P13      1.0000 0.96820  0.73910  0.10600  Biso   1.000  P
  P14      1.0000 0.85580  0.37730  0.21590  Biso   1.000  P
  O61      1.0000 0.92570  0.73590  0.00280  Biso   1.000  O
  O62      1.0000 0.00810  0.63410  0.13300  Biso   1.000  O
  O63      1.0000 0.88190  0.48290  0.25100  Biso   1.000  O
  O64      1.0000 0.92100  0.35000  0.13380  Biso   1.000  O
  O65      1.0000 0.90990  0.99870  0.24440  Biso   1.000  O
  O66      1.0000 0.86650  0.30030  0.29700  Biso   1.000  O
  O67      1.0000 0.00300  0.12690  0.34180  Biso   1.000  O
  O68      1.0000 0.88410  0.76400  0.17260  Biso   1.000  O
  O69      1.0000 0.75210  0.37810  0.17660  Biso   1.000  O
  O70      1.0000 0.04770  0.81760  0.11200  Biso   1.000  O
  Co12     1.0000 0.52640  0.76090  0.12280  Biso   1.000  Co
  P15      1.0000 0.46820  0.23910  0.10600  Biso   1.000  P
  P16      1.0000 0.35580  0.87730  0.21590  Biso   1.000  P
  O71      1.0000 0.42570  0.23590  0.00280  Biso   1.000  O
  O72      1.0000 0.50810  0.13410  0.13300  Biso   1.000  O
  O73      1.0000 0.38190  0.98290  0.25100  Biso   1.000  O
  O74      1.0000 0.42100  0.85000  0.13380  Biso   1.000  O
  O75      1.0000 0.40990  0.49870  0.24440  Biso   1.000  O
  O76      1.0000 0.36650  0.80030  0.29700  Biso   1.000  O
  O77      1.0000 0.50300  0.62690  0.34180  Biso   1.000  O
  O78      1.0000 0.38410  0.26400  0.17260  Biso   1.000  O
  O79      1.0000 0.25210  0.87810  0.17660  Biso   1.000  O
  O80      1.0000 0.54770  0.31760  0.11200  Biso   1.000  O
  Co13     1.0000 0.00000  0.44120  0.75000  Biso   1.000  Co
  P17      1.0000 0.00000  0.93790  0.75000  Biso   1.000  P
  Co14     1.0000 0.50000  0.94120  0.75000  Biso   1.000  Co
  P18      1.0000 0.50000  0.43790  0.75000  Biso   1.000  P
  Co15     1.0000 0.00000  0.55880  0.25000  Biso   1.000  Co
  P19      1.0000 0.00000  0.06210  0.25000  Biso   1.000  P
  Co16     1.0000 0.50000  0.05880  0.25000  Biso   1.000  Co
  P20      1.0000 0.50000  0.56210  0.25000  Biso   1.000  P
