data_image0
_cell_length_a       13.911
_cell_length_b       12.7722
_cell_length_c       18.634
_cell_angle_alpha    90
_cell_angle_beta     90.359
_cell_angle_gamma    90

_symmetry_space_group_name_H-M    "P 1"
_symmetry_int_tables_number       1

loop_
  _symmetry_equiv_pos_as_xyz
  'x, y, z'

loop_
  _atom_site_label
  _atom_site_occupancy
  _atom_site_fract_x
  _atom_site_fract_y
  _atom_site_fract_z
  _atom_site_thermal_displace_type
  _atom_site_B_iso_or_equiv
  _atom_site_type_symbol
  Al1      1.0000 0.10690  0.03880  0.16340  Biso   1.000  Al
  Al2      1.0000 0.76950  0.90670  0.04740  Biso   1.000  Al
  Al3      1.0000 0.88340  0.22250  0.06060  Biso   1.000  Al
  Co1      1.0000 0.11660  0.77750  0.93940  Biso   1.000  Co
  P1       1.0000 0.23100  0.90040  0.05890  Biso   1.000  P
  P2       1.0000 0.10920  0.23360  0.06110  Biso   1.000  P
  P3       1.0000 0.88110  0.02990  0.16550  Biso   1.000  P
  O1       1.0000 0.81320  0.94980  0.13080  Biso   1.000  O
  O2       1.0000 0.14290  0.17570  0.99520  Biso   1.000  O
  O3       1.0000 0.00560  0.25970  0.05130  Biso   1.000  O
  O4       1.0000 0.15720  0.83340  0.02170  Biso   1.000  O
  O5       1.0000 0.19010  0.94410  0.12650  Biso   1.000  O
  O6       1.0000 0.98160  0.99490  0.15520  Biso   1.000  O
  O7       1.0000 0.86440  0.13680  0.13180  Biso   1.000  O
  O8       1.0000 0.16450  0.33580  0.06910  Biso   1.000  O
  O9       1.0000 0.85670  0.03700  0.24310  Biso   1.000  O
  O10      1.0000 0.31770  0.83590  0.08020  Biso   1.000  O
  O11      1.0000 0.12630  0.17060  0.12760  Biso   1.000  O
  O12      1.0000 0.26530  0.98690  0.00990  Biso   1.000  O
  Al4      1.0000 0.60690  0.53880  0.16340  Biso   1.000  Al
  Al5      1.0000 0.26950  0.40670  0.04740  Biso   1.000  Al
  Al6      1.0000 0.38340  0.72250  0.06060  Biso   1.000  Al
  Co2      1.0000 0.61660  0.27750  0.93940  Biso   1.000  Co
  P4       1.0000 0.73100  0.40040  0.05890  Biso   1.000  P
  P5       1.0000 0.60920  0.73360  0.06110  Biso   1.000  P
  P6       1.0000 0.38110  0.52990  0.16550  Biso   1.000  P
  O13      1.0000 0.31320  0.44980  0.13080  Biso   1.000  O
  O14      1.0000 0.64290  0.67570  0.99520  Biso   1.000  O
  O15      1.0000 0.50560  0.75970  0.05130  Biso   1.000  O
  O16      1.0000 0.65720  0.33340  0.02170  Biso   1.000  O
  O17      1.0000 0.69010  0.44410  0.12650  Biso   1.000  O
  O18      1.0000 0.48160  0.49490  0.15520  Biso   1.000  O
  O19      1.0000 0.36440  0.63680  0.13180  Biso   1.000  O
  O20      1.0000 0.66450  0.83580  0.06910  Biso   1.000  O
  O21      1.0000 0.35670  0.53700  0.24310  Biso   1.000  O
  O22      1.0000 0.81770  0.33590  0.08020  Biso   1.000  O
  O23      1.0000 0.62630  0.67060  0.12760  Biso   1.000  O
  O24      1.0000 0.76530  0.48690  0.00990  Biso   1.000  O
  Al7      1.0000 0.89310  0.03880  0.33660  Biso   1.000  Al
  Al8      1.0000 0.23050  0.90670  0.45260  Biso   1.000  Al
  Al9      1.0000 0.11660  0.22250  0.43940  Biso   1.000  Al
  Co3      1.0000 0.88340  0.77750  0.56060  Biso   1.000  Co
  P7       1.0000 0.76900  0.90040  0.44110  Biso   1.000  P
  P8       1.0000 0.89080  0.23360  0.43890  Biso   1.000  P
  P9       1.0000 0.11890  0.02990  0.33450  Biso   1.000  P
  O25      1.0000 0.18680  0.94980  0.36920  Biso   1.000  O
  O26      1.0000 0.85710  0.17570  0.50480  Biso   1.000  O
  O27      1.0000 0.99440  0.25970  0.44870  Biso   1.000  O
  O28      1.0000 0.84280  0.83340  0.47830  Biso   1.000  O
  O29      1.0000 0.80990  0.94410  0.37350  Biso   1.000  O
  O30      1.0000 0.01840  0.99490  0.34480  Biso   1.000  O
  O31      1.0000 0.13560  0.13680  0.36820  Biso   1.000  O
  O32      1.0000 0.83550  0.33580  0.43090  Biso   1.000  O
  O33      1.0000 0.14330  0.03700  0.25690  Biso   1.000  O
  O34      1.0000 0.68230  0.83590  0.41980  Biso   1.000  O
  O35      1.0000 0.87370  0.17060  0.37240  Biso   1.000  O
  O36      1.0000 0.73470  0.98690  0.49010  Biso   1.000  O
  Al10     1.0000 0.39310  0.53880  0.33660  Biso   1.000  Al
  Al11     1.0000 0.73050  0.40670  0.45260  Biso   1.000  Al
  Al12     1.0000 0.61660  0.72250  0.43940  Biso   1.000  Al
  Co4      1.0000 0.38340  0.27750  0.56060  Biso   1.000  Co
  P10      1.0000 0.26900  0.40040  0.44110  Biso   1.000  P
  P11      1.0000 0.39080  0.73360  0.43890  Biso   1.000  P
  P12      1.0000 0.61890  0.52990  0.33450  Biso   1.000  P
  O37      1.0000 0.68680  0.44980  0.36920  Biso   1.000  O
  O38      1.0000 0.35710  0.67570  0.50480  Biso   1.000  O
  O39      1.0000 0.49440  0.75970  0.44870  Biso   1.000  O
  O40      1.0000 0.34280  0.33340  0.47830  Biso   1.000  O
  O41      1.0000 0.30990  0.44410  0.37350  Biso   1.000  O
  O42      1.0000 0.51840  0.49490  0.34480  Biso   1.000  O
  O43      1.0000 0.63560  0.63680  0.36820  Biso   1.000  O
  O44      1.0000 0.33550  0.83580  0.43090  Biso   1.000  O
  O45      1.0000 0.64330  0.53700  0.25690  Biso   1.000  O
  O46      1.0000 0.18230  0.33590  0.41980  Biso   1.000  O
  O47      1.0000 0.37370  0.67060  0.37240  Biso   1.000  O
  O48      1.0000 0.23470  0.48690  0.49010  Biso   1.000  O
  Al13     1.0000 0.89310  0.96120  0.83660  Biso   1.000  Al
  Al14     1.0000 0.23050  0.09330  0.95260  Biso   1.000  Al
  P13      1.0000 0.76900  0.09960  0.94110  Biso   1.000  P
  P14      1.0000 0.89080  0.76640  0.93890  Biso   1.000  P
  P15      1.0000 0.11890  0.97010  0.83450  Biso   1.000  P
  O49      1.0000 0.18680  0.05020  0.86920  Biso   1.000  O
  O50      1.0000 0.85710  0.82430  0.00480  Biso   1.000  O
  O51      1.0000 0.99440  0.74030  0.94870  Biso   1.000  O
  O52      1.0000 0.84280  0.16660  0.97830  Biso   1.000  O
  O53      1.0000 0.80990  0.05590  0.87350  Biso   1.000  O
  O54      1.0000 0.01840  0.00510  0.84480  Biso   1.000  O
  O55      1.0000 0.13560  0.86320  0.86820  Biso   1.000  O
  O56      1.0000 0.83550  0.66420  0.93090  Biso   1.000  O
  O57      1.0000 0.14330  0.96300  0.75690  Biso   1.000  O
  O58      1.0000 0.68230  0.16410  0.91980  Biso   1.000  O
  O59      1.0000 0.87370  0.82940  0.87240  Biso   1.000  O
  O60      1.0000 0.73470  0.01310  0.99010  Biso   1.000  O
  Al15     1.0000 0.39310  0.46120  0.83660  Biso   1.000  Al
  Al16     1.0000 0.73050  0.59330  0.95260  Biso   1.000  Al
  P16      1.0000 0.26900  0.59960  0.94110  Biso   1.000  P
  P17      1.0000 0.39080  0.26640  0.93890  Biso   1.000  P
  P18      1.0000 0.61890  0.47010  0.83450  Biso   1.000  P
  O61      1.0000 0.68680  0.55020  0.86920  Biso   1.000  O
  O62      1.0000 0.35710  0.32430  0.00480  Biso   1.000  O
  O63      1.0000 0.49440  0.24030  0.94870  Biso   1.000  O
  O64      1.0000 0.34280  0.66660  0.97830  Biso   1.000  O
  O65      1.0000 0.30990  0.55590  0.87350  Biso   1.000  O
  O66      1.0000 0.51840  0.50510  0.84480  Biso   1.000  O
  O67      1.0000 0.63560  0.36320  0.86820  Biso   1.000  O
  O68      1.0000 0.33550  0.16420  0.93090  Biso   1.000  O
  O69      1.0000 0.64330  0.46300  0.75690  Biso   1.000  O
  O70      1.0000 0.18230  0.66410  0.91980  Biso   1.000  O
  O71      1.0000 0.37370  0.32940  0.87240  Biso   1.000  O
  O72      1.0000 0.23470  0.51310  0.99010  Biso   1.000  O
  Al17     1.0000 0.10690  0.96120  0.66340  Biso   1.000  Al
  Al18     1.0000 0.76950  0.09330  0.54740  Biso   1.000  Al
  P19      1.0000 0.23100  0.09960  0.55890  Biso   1.000  P
  P20      1.0000 0.10920  0.76640  0.56110  Biso   1.000  P
  P21      1.0000 0.88110  0.97010  0.66550  Biso   1.000  P
  O73      1.0000 0.81320  0.05020  0.63080  Biso   1.000  O
  O74      1.0000 0.14290  0.82430  0.49520  Biso   1.000  O
  O75      1.0000 0.00560  0.74030  0.55130  Biso   1.000  O
  O76      1.0000 0.15720  0.16660  0.52170  Biso   1.000  O
  O77      1.0000 0.19010  0.05590  0.62650  Biso   1.000  O
  O78      1.0000 0.98160  0.00510  0.65520  Biso   1.000  O
  O79      1.0000 0.86440  0.86320  0.63180  Biso   1.000  O
  O80      1.0000 0.16450  0.66420  0.56910  Biso   1.000  O
  O81      1.0000 0.85670  0.96300  0.74310  Biso   1.000  O
  O82      1.0000 0.31770  0.16410  0.58020  Biso   1.000  O
  O83      1.0000 0.12630  0.82940  0.62760  Biso   1.000  O
  O84      1.0000 0.26530  0.01310  0.50990  Biso   1.000  O
  Al19     1.0000 0.60690  0.46120  0.66340  Biso   1.000  Al
  Al20     1.0000 0.26950  0.59330  0.54740  Biso   1.000  Al
  P22      1.0000 0.73100  0.59960  0.55890  Biso   1.000  P
  P23      1.0000 0.60920  0.26640  0.56110  Biso   1.000  P
  P24      1.0000 0.38110  0.47010  0.66550  Biso   1.000  P
  O85      1.0000 0.31320  0.55020  0.63080  Biso   1.000  O
  O86      1.0000 0.64290  0.32430  0.49520  Biso   1.000  O
  O87      1.0000 0.50560  0.24030  0.55130  Biso   1.000  O
  O88      1.0000 0.65720  0.66660  0.52170  Biso   1.000  O
  O89      1.0000 0.69010  0.55590  0.62650  Biso   1.000  O
  O90      1.0000 0.48160  0.50510  0.65520  Biso   1.000  O
  O91      1.0000 0.36440  0.36320  0.63180  Biso   1.000  O
  O92      1.0000 0.66450  0.16420  0.56910  Biso   1.000  O
  O93      1.0000 0.35670  0.46300  0.74310  Biso   1.000  O
  O94      1.0000 0.81770  0.66410  0.58020  Biso   1.000  O
  O95      1.0000 0.62630  0.32940  0.62760  Biso   1.000  O
  O96      1.0000 0.76530  0.51310  0.50990  Biso   1.000  O
