data_image0
_cell_length_a       14.3753
_cell_length_b       11.941
_cell_length_c       10.176
_cell_angle_alpha    90
_cell_angle_beta     91.102
_cell_angle_gamma    90

_symmetry_space_group_name_H-M    "P 1"
_symmetry_int_tables_number       1

loop_
  _symmetry_equiv_pos_as_xyz
  'x, y, z'

loop_
  _atom_site_label
  _atom_site_occupancy
  _atom_site_fract_x
  _atom_site_fract_y
  _atom_site_fract_z
  _atom_site_thermal_displace_type
  _atom_site_B_iso_or_equiv
  _atom_site_type_symbol
  Ga1      1.0000 0.24892  0.50074  0.49654  Biso   1.000  Ga
  Ga2      1.0000 0.08756  0.37500  0.67343  Biso   1.000  Ga
  Ga3      1.0000 0.41102  0.36180  0.34566  Biso   1.000  Ga
  Ga4      1.0000 0.08628  0.63219  0.66020  Biso   1.000  Ga
  Ga5      1.0000 0.40943  0.63365  0.33075  Biso   1.000  Ga
  P1       1.0000 0.12517  0.30083  0.39212  Biso   1.000  P
  P2       1.0000 0.12352  0.69281  0.37549  Biso   1.000  P
  P3       1.0000 0.37583  0.69768  0.61121  Biso   1.000  P
  P4       1.0000 0.37650  0.31177  0.62928  Biso   1.000  P
  O1       1.0000 0.13100  0.50050  0.59280  Biso   1.000  O
  O2       1.0000 0.36760  0.49910  0.39130  Biso   1.000  O
  O3       1.0000 0.20930  0.37670  0.38260  Biso   1.000  O
  O4       1.0000 0.29280  0.61950  0.61570  Biso   1.000  O
  O5       1.0000 0.04100  0.35900  0.32500  Biso   1.000  O
  O6       1.0000 0.20700  0.61470  0.37050  Biso   1.000  O
  O7       1.0000 0.04030  0.63410  0.30840  Biso   1.000  O
  O8       1.0000 0.14360  0.18900  0.31960  Biso   1.000  O
  O9       1.0000 0.46100  0.63880  0.67300  Biso   1.000  O
  O10      1.0000 0.14430  0.80000  0.29850  Biso   1.000  O
  O11      1.0000 0.10210  0.72910  0.51630  Biso   1.000  O
  O12      1.0000 0.29660  0.39420  0.62930  Biso   1.000  O
  O13      1.0000 0.39500  0.27000  0.48900  Biso   1.000  O
  O14      1.0000 0.46380  0.36850  0.69170  Biso   1.000  O
  O15      1.0000 0.35580  0.80370  0.68760  Biso   1.000  O
  O16      1.0000 0.35140  0.20840  0.70990  Biso   1.000  O
  O17      1.0000 0.10760  0.26940  0.53650  Biso   1.000  O
  O18      1.0000 0.39490  0.73470  0.46860  Biso   1.000  O
  Ga6      1.0000 0.25108  0.00074  0.00346  Biso   1.000  Ga
  Ga7      1.0000 0.41244  0.87500  0.82657  Biso   1.000  Ga
  Ga8      1.0000 0.08898  0.86180  0.15434  Biso   1.000  Ga
  Ga9      1.0000 0.41372  0.13219  0.83980  Biso   1.000  Ga
  Ga10     1.0000 0.09057  0.13365  0.16925  Biso   1.000  Ga
  P5       1.0000 0.37483  0.80083  0.10788  Biso   1.000  P
  P6       1.0000 0.37648  0.19281  0.12451  Biso   1.000  P
  P7       1.0000 0.12417  0.19768  0.88879  Biso   1.000  P
  P8       1.0000 0.12350  0.81177  0.87072  Biso   1.000  P
  O19      1.0000 0.36900  0.00050  0.90720  Biso   1.000  O
  O20      1.0000 0.13240  0.99910  0.10870  Biso   1.000  O
  O21      1.0000 0.29070  0.87670  0.11740  Biso   1.000  O
  O22      1.0000 0.20720  0.11950  0.88430  Biso   1.000  O
  O23      1.0000 0.45900  0.85900  0.17500  Biso   1.000  O
  O24      1.0000 0.29300  0.11470  0.12950  Biso   1.000  O
  O25      1.0000 0.45970  0.13410  0.19160  Biso   1.000  O
  O26      1.0000 0.35640  0.68900  0.18040  Biso   1.000  O
  O27      1.0000 0.03900  0.13880  0.82700  Biso   1.000  O
  O28      1.0000 0.35570  0.30000  0.20150  Biso   1.000  O
  O29      1.0000 0.39790  0.22910  0.98370  Biso   1.000  O
  O30      1.0000 0.20340  0.89420  0.87070  Biso   1.000  O
  O31      1.0000 0.10500  0.77000  0.01100  Biso   1.000  O
  O32      1.0000 0.03620  0.86850  0.80830  Biso   1.000  O
  O33      1.0000 0.14420  0.30370  0.81240  Biso   1.000  O
  O34      1.0000 0.14860  0.70840  0.79010  Biso   1.000  O
  O35      1.0000 0.39240  0.76940  0.96350  Biso   1.000  O
  O36      1.0000 0.10510  0.23470  0.03140  Biso   1.000  O
  Ga11     1.0000 0.75108  0.49926  0.50346  Biso   1.000  Ga
  Ga12     1.0000 0.91244  0.62500  0.32657  Biso   1.000  Ga
  Ga13     1.0000 0.58898  0.63820  0.65434  Biso   1.000  Ga
  Ga14     1.0000 0.91372  0.36781  0.33980  Biso   1.000  Ga
  Ga15     1.0000 0.59057  0.36635  0.66925  Biso   1.000  Ga
  P9       1.0000 0.87483  0.69917  0.60788  Biso   1.000  P
  P10      1.0000 0.87648  0.30719  0.62451  Biso   1.000  P
  P11      1.0000 0.62417  0.30232  0.38879  Biso   1.000  P
  P12      1.0000 0.62350  0.68823  0.37072  Biso   1.000  P
  O37      1.0000 0.86900  0.49950  0.40720  Biso   1.000  O
  O38      1.0000 0.63240  0.50090  0.60870  Biso   1.000  O
  O39      1.0000 0.79070  0.62330  0.61740  Biso   1.000  O
  O40      1.0000 0.70720  0.38050  0.38430  Biso   1.000  O
  O41      1.0000 0.95900  0.64100  0.67500  Biso   1.000  O
  O42      1.0000 0.79300  0.38530  0.62950  Biso   1.000  O
  O43      1.0000 0.95970  0.36590  0.69160  Biso   1.000  O
  O44      1.0000 0.85640  0.81100  0.68040  Biso   1.000  O
  O45      1.0000 0.53900  0.36120  0.32700  Biso   1.000  O
  O46      1.0000 0.85570  0.20000  0.70150  Biso   1.000  O
  O47      1.0000 0.89790  0.27090  0.48370  Biso   1.000  O
  O48      1.0000 0.70340  0.60580  0.37070  Biso   1.000  O
  O49      1.0000 0.60500  0.73000  0.51100  Biso   1.000  O
  O50      1.0000 0.53620  0.63150  0.30830  Biso   1.000  O
  O51      1.0000 0.64420  0.19630  0.31240  Biso   1.000  O
  O52      1.0000 0.64860  0.79160  0.29010  Biso   1.000  O
  O53      1.0000 0.89240  0.73060  0.46350  Biso   1.000  O
  O54      1.0000 0.60510  0.26530  0.53140  Biso   1.000  O
  Ga16     1.0000 0.74892  0.99926  0.99654  Biso   1.000  Ga
  Ga17     1.0000 0.58756  0.12500  0.17343  Biso   1.000  Ga
  Ga18     1.0000 0.91102  0.13820  0.84566  Biso   1.000  Ga
  Ga19     1.0000 0.58628  0.86781  0.16020  Biso   1.000  Ga
  Ga20     1.0000 0.90943  0.86635  0.83075  Biso   1.000  Ga
  P13      1.0000 0.62517  0.19917  0.89212  Biso   1.000  P
  P14      1.0000 0.62352  0.80719  0.87549  Biso   1.000  P
  P15      1.0000 0.87583  0.80232  0.11121  Biso   1.000  P
  P16      1.0000 0.87650  0.18823  0.12928  Biso   1.000  P
  O55      1.0000 0.63100  0.99950  0.09280  Biso   1.000  O
  O56      1.0000 0.86760  0.00090  0.89130  Biso   1.000  O
  O57      1.0000 0.70930  0.12330  0.88260  Biso   1.000  O
  O58      1.0000 0.79280  0.88050  0.11570  Biso   1.000  O
  O59      1.0000 0.54100  0.14100  0.82500  Biso   1.000  O
  O60      1.0000 0.70700  0.88530  0.87050  Biso   1.000  O
  O61      1.0000 0.54030  0.86590  0.80840  Biso   1.000  O
  O62      1.0000 0.64360  0.31100  0.81960  Biso   1.000  O
  O63      1.0000 0.96100  0.86120  0.17300  Biso   1.000  O
  O64      1.0000 0.64430  0.70000  0.79850  Biso   1.000  O
  O65      1.0000 0.60210  0.77090  0.01630  Biso   1.000  O
  O66      1.0000 0.79660  0.10580  0.12930  Biso   1.000  O
  O67      1.0000 0.89500  0.23000  0.98900  Biso   1.000  O
  O68      1.0000 0.96380  0.13150  0.19170  Biso   1.000  O
  O69      1.0000 0.85580  0.69630  0.18760  Biso   1.000  O
  O70      1.0000 0.85140  0.29160  0.20990  Biso   1.000  O
  O71      1.0000 0.60760  0.23060  0.03650  Biso   1.000  O
  O72      1.0000 0.89490  0.76530  0.96860  Biso   1.000  O
