data_image0
_cell_length_a       18.302
_cell_length_b       14.67
_cell_length_c       12.298
_cell_angle_alpha    90
_cell_angle_beta     113.62
_cell_angle_gamma    90

_symmetry_space_group_name_H-M    "P 1"
_symmetry_int_tables_number       1

loop_
  _symmetry_equiv_pos_as_xyz
  'x, y, z'

loop_
  _atom_site_label
  _atom_site_occupancy
  _atom_site_fract_x
  _atom_site_fract_y
  _atom_site_fract_z
  _atom_site_thermal_displace_type
  _atom_site_B_iso_or_equiv
  _atom_site_type_symbol
  Ag1      1.0000 0.24547  0.19795  0.74462  Biso   1.000  Ag
  Cr1      1.0000 0.28972  0.49510  0.47463  Biso   1.000  Cr
  O1       1.0000 0.35130  0.41990  0.61560  Biso   1.000  O
  O2       1.0000 0.20570  0.40850  0.46020  Biso   1.000  O
  O3       1.0000 0.33830  0.30070  0.71500  Biso   1.000  O
  O4       1.0000 0.18130  0.28740  0.55240  Biso   1.000  O
  C1       1.0000 0.31400  0.35530  0.63460  Biso   1.000  C
  C2       1.0000 0.22320  0.34780  0.53970  Biso   1.000  C
  Ag2      1.0000 0.92248  0.81031  0.12852  Biso   1.000  Ag
  O5       1.0000 0.78100  0.56940  0.16060  Biso   1.000  O
  O6       1.0000 0.74310  0.58450  0.93430  Biso   1.000  O
  O7       1.0000 0.85330  0.69600  0.19690  Biso   1.000  O
  O8       1.0000 0.81460  0.71030  0.95780  Biso   1.000  O
  C3       1.0000 0.81170  0.63790  0.13100  Biso   1.000  C
  C4       1.0000 0.79030  0.64700  0.99670  Biso   1.000  C
  O9       1.0000 0.88280  0.92860  0.99010  Biso   1.000  O
  O10      1.0000 0.82660  0.07740  0.87130  Biso   1.000  O
  O11      1.0000 0.97380  0.91240  0.91560  Biso   1.000  O
  O12      1.0000 0.92160  0.08020  0.79960  Biso   1.000  O
  C5       1.0000 0.91830  0.95350  0.92440  Biso   1.000  C
  C6       1.0000 0.88800  0.04420  0.85740  Biso   1.000  C
  K1       1.0000 0.00060  0.72960  0.86780  Biso   1.000  K
  Ag3      1.0000 0.07350  0.65480  0.79440  Biso   1.000  Ag
  Ag4      1.0000 0.04160  0.76060  0.93680  Biso   1.000  Ag
  Ag5      1.0000 0.94860  0.72440  0.88190  Biso   1.000  Ag
  Ag6      1.0000 0.75453  0.19795  0.75538  Biso   1.000  Ag
  Cr2      1.0000 0.71028  0.49510  0.02537  Biso   1.000  Cr
  O13      1.0000 0.64870  0.41990  0.88440  Biso   1.000  O
  O14      1.0000 0.79430  0.40850  0.03980  Biso   1.000  O
  O15      1.0000 0.66170  0.30070  0.78500  Biso   1.000  O
  O16      1.0000 0.81870  0.28740  0.94760  Biso   1.000  O
  C7       1.0000 0.68600  0.35530  0.86540  Biso   1.000  C
  C8       1.0000 0.77680  0.34780  0.96030  Biso   1.000  C
  Ag7      1.0000 0.07752  0.81031  0.37148  Biso   1.000  Ag
  O17      1.0000 0.21900  0.56940  0.33940  Biso   1.000  O
  O18      1.0000 0.25690  0.58450  0.56570  Biso   1.000  O
  O19      1.0000 0.14670  0.69600  0.30310  Biso   1.000  O
  O20      1.0000 0.18540  0.71030  0.54220  Biso   1.000  O
  C9       1.0000 0.18830  0.63790  0.36900  Biso   1.000  C
  C10      1.0000 0.20970  0.64700  0.50330  Biso   1.000  C
  O21      1.0000 0.11720  0.92860  0.50990  Biso   1.000  O
  O22      1.0000 0.17340  0.07740  0.62870  Biso   1.000  O
  O23      1.0000 0.02620  0.91240  0.58440  Biso   1.000  O
  O24      1.0000 0.07840  0.08020  0.70040  Biso   1.000  O
  C11      1.0000 0.08170  0.95350  0.57560  Biso   1.000  C
  C12      1.0000 0.11200  0.04420  0.64260  Biso   1.000  C
  K2       1.0000 0.99940  0.72960  0.63220  Biso   1.000  K
  Ag8      1.0000 0.92650  0.65480  0.70560  Biso   1.000  Ag
  Ag9      1.0000 0.95840  0.76060  0.56320  Biso   1.000  Ag
  Ag10     1.0000 0.05140  0.72440  0.61810  Biso   1.000  Ag
  Ag11     1.0000 0.57752  0.68969  0.87148  Biso   1.000  Ag
  O25      1.0000 0.71900  0.93060  0.83940  Biso   1.000  O
  O26      1.0000 0.75690  0.91550  0.06570  Biso   1.000  O
  O27      1.0000 0.64670  0.80400  0.80310  Biso   1.000  O
  O28      1.0000 0.68540  0.78970  0.04220  Biso   1.000  O
  C13      1.0000 0.68830  0.86210  0.86900  Biso   1.000  C
  C14      1.0000 0.70970  0.85300  0.00330  Biso   1.000  C
  O29      1.0000 0.61720  0.57140  0.00990  Biso   1.000  O
  O30      1.0000 0.67340  0.42260  0.12870  Biso   1.000  O
  O31      1.0000 0.52620  0.58760  0.08440  Biso   1.000  O
  O32      1.0000 0.57840  0.41980  0.20040  Biso   1.000  O
  C15      1.0000 0.58170  0.54650  0.07560  Biso   1.000  C
  C16      1.0000 0.61200  0.45580  0.14260  Biso   1.000  C
  K3       1.0000 0.49940  0.77040  0.13220  Biso   1.000  K
  Ag12     1.0000 0.42650  0.84520  0.20560  Biso   1.000  Ag
  Ag13     1.0000 0.45840  0.73940  0.06320  Biso   1.000  Ag
  Ag14     1.0000 0.55140  0.77560  0.11810  Biso   1.000  Ag
  Ag15     1.0000 0.25453  0.30205  0.25538  Biso   1.000  Ag
  Cr3      1.0000 0.21028  0.00490  0.52537  Biso   1.000  Cr
  O33      1.0000 0.14870  0.08010  0.38440  Biso   1.000  O
  O34      1.0000 0.29430  0.09150  0.53980  Biso   1.000  O
  O35      1.0000 0.16170  0.19930  0.28500  Biso   1.000  O
  O36      1.0000 0.31870  0.21260  0.44760  Biso   1.000  O
  C17      1.0000 0.18600  0.14470  0.36540  Biso   1.000  C
  C18      1.0000 0.27680  0.15220  0.46030  Biso   1.000  C
  Ag16     1.0000 0.42248  0.68969  0.62852  Biso   1.000  Ag
  O37      1.0000 0.28100  0.93060  0.66060  Biso   1.000  O
  O38      1.0000 0.24310  0.91550  0.43430  Biso   1.000  O
  O39      1.0000 0.35330  0.80400  0.69690  Biso   1.000  O
  O40      1.0000 0.31460  0.78970  0.45780  Biso   1.000  O
  C19      1.0000 0.31170  0.86210  0.63100  Biso   1.000  C
  C20      1.0000 0.29030  0.85300  0.49670  Biso   1.000  C
  O41      1.0000 0.38280  0.57140  0.49010  Biso   1.000  O
  O42      1.0000 0.32660  0.42260  0.37130  Biso   1.000  O
  O43      1.0000 0.47380  0.58760  0.41560  Biso   1.000  O
  O44      1.0000 0.42160  0.41980  0.29960  Biso   1.000  O
  C21      1.0000 0.41830  0.54650  0.42440  Biso   1.000  C
  C22      1.0000 0.38800  0.45580  0.35740  Biso   1.000  C
  K4       1.0000 0.50060  0.77040  0.36780  Biso   1.000  K
  Ag17     1.0000 0.57350  0.84520  0.29440  Biso   1.000  Ag
  Ag18     1.0000 0.54160  0.73940  0.43680  Biso   1.000  Ag
  Ag19     1.0000 0.44860  0.77560  0.38190  Biso   1.000  Ag
  Ag20     1.0000 0.74547  0.30205  0.24462  Biso   1.000  Ag
  Cr4      1.0000 0.78972  0.00490  0.97463  Biso   1.000  Cr
  O45      1.0000 0.85130  0.08010  0.11560  Biso   1.000  O
  O46      1.0000 0.70570  0.09150  0.96020  Biso   1.000  O
  O47      1.0000 0.83830  0.19930  0.21500  Biso   1.000  O
  O48      1.0000 0.68130  0.21260  0.05240  Biso   1.000  O
  C23      1.0000 0.81400  0.14470  0.13460  Biso   1.000  C
  C24      1.0000 0.72320  0.15220  0.03970  Biso   1.000  C
  Ag21     1.0000 0.00000  0.95800  0.75000  Biso   1.000  Ag
  Ag22     1.0000 0.50000  0.54200  0.25000  Biso   1.000  Ag
  Ag23     1.0000 0.42248  0.31031  0.12852  Biso   1.000  Ag
  O49      1.0000 0.28100  0.06940  0.16060  Biso   1.000  O
  O50      1.0000 0.24310  0.08450  0.93430  Biso   1.000  O
  O51      1.0000 0.35330  0.19600  0.19690  Biso   1.000  O
  O52      1.0000 0.31460  0.21030  0.95780  Biso   1.000  O
  C25      1.0000 0.31170  0.13790  0.13100  Biso   1.000  C
  C26      1.0000 0.29030  0.14700  0.99670  Biso   1.000  C
  O53      1.0000 0.38280  0.42860  0.99010  Biso   1.000  O
  O54      1.0000 0.32660  0.57740  0.87130  Biso   1.000  O
  O55      1.0000 0.47380  0.41240  0.91560  Biso   1.000  O
  O56      1.0000 0.42160  0.58020  0.79960  Biso   1.000  O
  C27      1.0000 0.41830  0.45350  0.92440  Biso   1.000  C
  C28      1.0000 0.38800  0.54420  0.85740  Biso   1.000  C
  K5       1.0000 0.50060  0.22960  0.86780  Biso   1.000  K
  Ag24     1.0000 0.57350  0.15480  0.79440  Biso   1.000  Ag
  Ag25     1.0000 0.54160  0.26060  0.93680  Biso   1.000  Ag
  Ag26     1.0000 0.44860  0.22440  0.88190  Biso   1.000  Ag
  Ag27     1.0000 0.74547  0.69795  0.74462  Biso   1.000  Ag
  Cr5      1.0000 0.78972  0.99510  0.47463  Biso   1.000  Cr
  O57      1.0000 0.85130  0.91990  0.61560  Biso   1.000  O
  O58      1.0000 0.70570  0.90850  0.46020  Biso   1.000  O
  O59      1.0000 0.83830  0.80070  0.71500  Biso   1.000  O
  O60      1.0000 0.68130  0.78740  0.55240  Biso   1.000  O
  C29      1.0000 0.81400  0.85530  0.63460  Biso   1.000  C
  C30      1.0000 0.72320  0.84780  0.53970  Biso   1.000  C
  Ag28     1.0000 0.57752  0.31031  0.37148  Biso   1.000  Ag
  O61      1.0000 0.71900  0.06940  0.33940  Biso   1.000  O
  O62      1.0000 0.75690  0.08450  0.56570  Biso   1.000  O
  O63      1.0000 0.64670  0.19600  0.30310  Biso   1.000  O
  O64      1.0000 0.68540  0.21030  0.54220  Biso   1.000  O
  C31      1.0000 0.68830  0.13790  0.36900  Biso   1.000  C
  C32      1.0000 0.70970  0.14700  0.50330  Biso   1.000  C
  O65      1.0000 0.61720  0.42860  0.50990  Biso   1.000  O
  O66      1.0000 0.67340  0.57740  0.62870  Biso   1.000  O
  O67      1.0000 0.52620  0.41240  0.58440  Biso   1.000  O
  O68      1.0000 0.57840  0.58020  0.70040  Biso   1.000  O
  C33      1.0000 0.58170  0.45350  0.57560  Biso   1.000  C
  C34      1.0000 0.61200  0.54420  0.64260  Biso   1.000  C
  K6       1.0000 0.49940  0.22960  0.63220  Biso   1.000  K
  Ag29     1.0000 0.42650  0.15480  0.70560  Biso   1.000  Ag
  Ag30     1.0000 0.45840  0.26060  0.56320  Biso   1.000  Ag
  Ag31     1.0000 0.55140  0.22440  0.61810  Biso   1.000  Ag
  Ag32     1.0000 0.25453  0.69795  0.75538  Biso   1.000  Ag
  Cr6      1.0000 0.21028  0.99510  0.02537  Biso   1.000  Cr
  O69      1.0000 0.14870  0.91990  0.88440  Biso   1.000  O
  O70      1.0000 0.29430  0.90850  0.03980  Biso   1.000  O
  O71      1.0000 0.16170  0.80070  0.78500  Biso   1.000  O
  O72      1.0000 0.31870  0.78740  0.94760  Biso   1.000  O
  C35      1.0000 0.18600  0.85530  0.86540  Biso   1.000  C
  C36      1.0000 0.27680  0.84780  0.96030  Biso   1.000  C
  Ag33     1.0000 0.75453  0.80205  0.25538  Biso   1.000  Ag
  Cr7      1.0000 0.71028  0.50490  0.52537  Biso   1.000  Cr
  O73      1.0000 0.64870  0.58010  0.38440  Biso   1.000  O
  O74      1.0000 0.79430  0.59150  0.53980  Biso   1.000  O
  O75      1.0000 0.66170  0.69930  0.28500  Biso   1.000  O
  O76      1.0000 0.81870  0.71260  0.44760  Biso   1.000  O
  C37      1.0000 0.68600  0.64470  0.36540  Biso   1.000  C
  C38      1.0000 0.77680  0.65220  0.46030  Biso   1.000  C
  Ag34     1.0000 0.07752  0.18969  0.87148  Biso   1.000  Ag
  O77      1.0000 0.21900  0.43060  0.83940  Biso   1.000  O
  O78      1.0000 0.25690  0.41550  0.06570  Biso   1.000  O
  O79      1.0000 0.14670  0.30400  0.80310  Biso   1.000  O
  O80      1.0000 0.18540  0.28970  0.04220  Biso   1.000  O
  C39      1.0000 0.18830  0.36210  0.86900  Biso   1.000  C
  C40      1.0000 0.20970  0.35300  0.00330  Biso   1.000  C
  O81      1.0000 0.11720  0.07140  0.00990  Biso   1.000  O
  O82      1.0000 0.17340  0.92260  0.12870  Biso   1.000  O
  O83      1.0000 0.02620  0.08760  0.08440  Biso   1.000  O
  O84      1.0000 0.07840  0.91980  0.20040  Biso   1.000  O
  C41      1.0000 0.08170  0.04650  0.07560  Biso   1.000  C
  C42      1.0000 0.11200  0.95580  0.14260  Biso   1.000  C
  K7       1.0000 0.99940  0.27040  0.13220  Biso   1.000  K
  Ag35     1.0000 0.92650  0.34520  0.20560  Biso   1.000  Ag
  Ag36     1.0000 0.95840  0.23940  0.06320  Biso   1.000  Ag
  Ag37     1.0000 0.05140  0.27560  0.11810  Biso   1.000  Ag
  Ag38     1.0000 0.24547  0.80205  0.24462  Biso   1.000  Ag
  Cr8      1.0000 0.28972  0.50490  0.97463  Biso   1.000  Cr
  O85      1.0000 0.35130  0.58010  0.11560  Biso   1.000  O
  O86      1.0000 0.20570  0.59150  0.96020  Biso   1.000  O
  O87      1.0000 0.33830  0.69930  0.21500  Biso   1.000  O
  O88      1.0000 0.18130  0.71260  0.05240  Biso   1.000  O
  C43      1.0000 0.31400  0.64470  0.13460  Biso   1.000  C
  C44      1.0000 0.22320  0.65220  0.03970  Biso   1.000  C
  Ag39     1.0000 0.92248  0.18969  0.62852  Biso   1.000  Ag
  O89      1.0000 0.78100  0.43060  0.66060  Biso   1.000  O
  O90      1.0000 0.74310  0.41550  0.43430  Biso   1.000  O
  O91      1.0000 0.85330  0.30400  0.69690  Biso   1.000  O
  O92      1.0000 0.81460  0.28970  0.45780  Biso   1.000  O
  C45      1.0000 0.81170  0.36210  0.63100  Biso   1.000  C
  C46      1.0000 0.79030  0.35300  0.49670  Biso   1.000  C
  O93      1.0000 0.88280  0.07140  0.49010  Biso   1.000  O
  O94      1.0000 0.82660  0.92260  0.37130  Biso   1.000  O
  O95      1.0000 0.97380  0.08760  0.41560  Biso   1.000  O
  O96      1.0000 0.92160  0.91980  0.29960  Biso   1.000  O
  C47      1.0000 0.91830  0.04650  0.42440  Biso   1.000  C
  C48      1.0000 0.88800  0.95580  0.35740  Biso   1.000  C
  K8       1.0000 0.00060  0.27040  0.36780  Biso   1.000  K
  Ag40     1.0000 0.07350  0.34520  0.29440  Biso   1.000  Ag
  Ag41     1.0000 0.04160  0.23940  0.43680  Biso   1.000  Ag
  Ag42     1.0000 0.94860  0.27560  0.38190  Biso   1.000  Ag
  Ag43     1.0000 0.50000  0.45800  0.75000  Biso   1.000  Ag
  Ag44     1.0000 0.00000  0.04200  0.25000  Biso   1.000  Ag
