data_BEKYOG_clean
_audit_creation_date              2014-07-02
_audit_creation_method            'Materials Studio'
_symmetry_space_group_name_H-M    'P1'
_symmetry_Int_Tables_number       1
_symmetry_cell_setting            triclinic
loop_
_symmetry_equiv_pos_as_xyz
  x,y,z
_cell_length_a                    11.7370
_cell_length_b                    11.7370
_cell_length_c                    12.3130
_cell_angle_alpha                 72.0924
_cell_angle_beta                  72.0924
_cell_angle_gamma                 76.9133
loop_
_atom_site_label
_atom_site_type_symbol
_atom_site_fract_x
_atom_site_fract_y
_atom_site_fract_z
_atom_site_U_iso_or_equiv
_atom_site_adp_type
_atom_site_occupancy
Cr1    Cr    0.20457   0.21381   0.47546   0.01267  Uiso   1.00
Cr2    Cr    0.78619   0.79543   0.02454   0.01267  Uiso   1.00
Cr3    Cr    0.79543   0.78619   0.52454   0.01267  Uiso   1.00
Cr4    Cr    0.21381   0.20457   0.97546   0.01267  Uiso   1.00
Ag1    Ag    0.94927   0.55609   0.74508   0.01267  Uiso   1.00
Ag2    Ag    0.44391   0.05073   0.75492   0.01267  Uiso   1.00
Ag3    Ag    0.05073   0.44391   0.25492   0.01267  Uiso   1.00
Ag4    Ag    0.55609   0.94927   0.24508   0.01267  Uiso   1.00
Ag5    Ag    0.95677   0.04323   0.75000   0.01267  Uiso   1.00
Ag6    Ag    0.04323   0.95677   0.25000   0.01267  Uiso   1.00
C1     C     0.04220   0.33160   0.63300   0.01267  Uiso   1.00
C2     C     0.12220   0.42600   0.54390   0.01267  Uiso   1.00
C3     C     0.82740   0.55200   0.12900   0.01267  Uiso   1.00
C4     C     0.85770   0.56430   0.99760   0.01267  Uiso   1.00
C5     C     0.03460   0.12600   0.92500   0.01267  Uiso   1.00
C6     C     0.15630   0.06630   0.85840   0.01267  Uiso   1.00
C7     C     0.66840   0.95780   0.86700   0.01267  Uiso   1.00
C8     C     0.57400   0.87780   0.95610   0.01267  Uiso   1.00
C9     C     0.44800   0.17260   0.37100   0.01267  Uiso   1.00
C10    C     0.43570   0.14230   0.50240   0.01267  Uiso   1.00
C11    C     0.87400   0.96540   0.57500   0.01267  Uiso   1.00
C12    C     0.93370   0.84370   0.64160   0.01267  Uiso   1.00
C13    C     0.95780   0.66840   0.36700   0.01267  Uiso   1.00
C14    C     0.87780   0.57400   0.45610   0.01267  Uiso   1.00
C15    C     0.17260   0.44800   0.87100   0.01267  Uiso   1.00
C16    C     0.14230   0.43570   0.00240   0.01267  Uiso   1.00
C17    C     0.96540   0.87400   0.07500   0.01267  Uiso   1.00
C18    C     0.84370   0.93370   0.14160   0.01267  Uiso   1.00
C19    C     0.33160   0.04220   0.13300   0.01267  Uiso   1.00
C20    C     0.42600   0.12220   0.04390   0.01267  Uiso   1.00
C21    C     0.55200   0.82740   0.62900   0.01267  Uiso   1.00
C22    C     0.56430   0.85770   0.49760   0.01267  Uiso   1.00
C23    C     0.12600   0.03460   0.42500   0.01267  Uiso   1.00
C24    C     0.06630   0.15630   0.35840   0.01267  Uiso   1.00
O1     O     0.06850   0.22630   0.61380   0.01267  Uiso   1.00
O2     O     0.20070   0.38450   0.46250   0.01267  Uiso   1.00
O3     O     0.95940   0.36120   0.71600   0.01267  Uiso   1.00
O4     O     0.10530   0.53070   0.55230   0.01267  Uiso   1.00
O5     O     0.78890   0.65210   0.15860   0.01267  Uiso   1.00
O6     O     0.84230   0.67270   0.93390   0.01267  Uiso   1.00
O7     O     0.84530   0.45030   0.19780   0.01267  Uiso   1.00
O8     O     0.89420   0.47460   0.95640   0.01267  Uiso   1.00
O9     O     0.04580   0.18760   0.99070   0.01267  Uiso   1.00
O10    O     0.24840   0.09540   0.87120   0.01267  Uiso   1.00
O11    O     0.93700   0.11320   0.91710   0.01267  Uiso   1.00
O12    O     0.15860   0.99680   0.80040   0.01267  Uiso   1.00
O13    O     0.77370   0.93150   0.88620   0.01267  Uiso   1.00
O14    O     0.61550   0.79930   0.03750   0.01267  Uiso   1.00
O15    O     0.63880   0.04060   0.78400   0.01267  Uiso   1.00
O16    O     0.46930   0.89470   0.94770   0.01267  Uiso   1.00
O17    O     0.34790   0.21110   0.34140   0.01267  Uiso   1.00
O18    O     0.32730   0.15770   0.56610   0.01267  Uiso   1.00
O19    O     0.54970   0.15470   0.30220   0.01267  Uiso   1.00
O20    O     0.52540   0.10580   0.54360   0.01267  Uiso   1.00
O21    O     0.81240   0.95420   0.50930   0.01267  Uiso   1.00
O22    O     0.90460   0.75160   0.62880   0.01267  Uiso   1.00
O23    O     0.88680   0.06300   0.58290   0.01267  Uiso   1.00
O24    O     0.00320   0.84140   0.69960   0.01267  Uiso   1.00
O25    O     0.93150   0.77370   0.38620   0.01267  Uiso   1.00
O26    O     0.79930   0.61550   0.53750   0.01267  Uiso   1.00
O27    O     0.04060   0.63880   0.28400   0.01267  Uiso   1.00
O28    O     0.89470   0.46930   0.44770   0.01267  Uiso   1.00
O29    O     0.21110   0.34790   0.84140   0.01267  Uiso   1.00
O30    O     0.15770   0.32730   0.06610   0.01267  Uiso   1.00
O31    O     0.15470   0.54970   0.80220   0.01267  Uiso   1.00
O32    O     0.10580   0.52540   0.04360   0.01267  Uiso   1.00
O33    O     0.95420   0.81240   0.00930   0.01267  Uiso   1.00
O34    O     0.75160   0.90460   0.12880   0.01267  Uiso   1.00
O35    O     0.06300   0.88680   0.08290   0.01267  Uiso   1.00
O36    O     0.84140   0.00320   0.19960   0.01267  Uiso   1.00
O37    O     0.22630   0.06850   0.11380   0.01267  Uiso   1.00
O38    O     0.38450   0.20070   0.96250   0.01267  Uiso   1.00
O39    O     0.36120   0.95940   0.21600   0.01267  Uiso   1.00
O40    O     0.53070   0.10530   0.05230   0.01267  Uiso   1.00
O41    O     0.65210   0.78890   0.65860   0.01267  Uiso   1.00
O42    O     0.67270   0.84230   0.43390   0.01267  Uiso   1.00
O43    O     0.45030   0.84530   0.69780   0.01267  Uiso   1.00
O44    O     0.47460   0.89420   0.45640   0.01267  Uiso   1.00
O45    O     0.18760   0.04580   0.49070   0.01267  Uiso   1.00
O46    O     0.09540   0.24840   0.37120   0.01267  Uiso   1.00
O47    O     0.11320   0.93700   0.41710   0.01267  Uiso   1.00
O48    O     0.99680   0.15860   0.30040   0.01267  Uiso   1.00
