data_image0
_cell_length_a       18.338
_cell_length_b       14.619
_cell_length_c       12.379
_cell_angle_alpha    90
_cell_angle_beta     113
_cell_angle_gamma    90

_symmetry_space_group_name_H-M    "P 1"
_symmetry_int_tables_number       1

loop_
  _symmetry_equiv_pos_as_xyz
  'x, y, z'

loop_
  _atom_site_label
  _atom_site_occupancy
  _atom_site_fract_x
  _atom_site_fract_y
  _atom_site_fract_z
  _atom_site_thermal_displace_type
  _atom_site_B_iso_or_equiv
  _atom_site_type_symbol
  Ag1      1.0000 0.24828  0.19738  0.74462  Biso   1.000  Ag
  Ag2      1.0000 0.07769  0.19023  0.87525  Biso   1.000  Ag
  Cr1      1.0000 0.29050  0.49563  0.47614  Biso   1.000  Cr
  O1       1.0000 0.35220  0.42180  0.61300  Biso   1.000  O
  O2       1.0000 0.20680  0.40870  0.46480  Biso   1.000  O
  O3       1.0000 0.34200  0.29970  0.71660  Biso   1.000  O
  O4       1.0000 0.18380  0.28750  0.55790  Biso   1.000  O
  C1       1.0000 0.31410  0.35530  0.63550  Biso   1.000  C
  C2       1.0000 0.22680  0.34770  0.54550  Biso   1.000  C
  O5       1.0000 0.21990  0.56910  0.34300  Biso   1.000  O
  O6       1.0000 0.25800  0.58450  0.56800  Biso   1.000  O
  O7       1.0000 0.14770  0.30390  0.80620  Biso   1.000  O
  O8       1.0000 0.31590  0.21030  0.95590  Biso   1.000  O
  C3       1.0000 0.18950  0.63910  0.37270  Biso   1.000  C
  C4       1.0000 0.21010  0.64680  0.50470  Biso   1.000  C
  O9       1.0000 0.38340  0.57040  0.48890  Biso   1.000  O
  O10      1.0000 0.32710  0.42240  0.37230  Biso   1.000  O
  O11      1.0000 0.52550  0.41370  0.58620  Biso   1.000  O
  O12      1.0000 0.57930  0.58290  0.69940  Biso   1.000  O
  C5       1.0000 0.41890  0.54560  0.42490  Biso   1.000  C
  C6       1.0000 0.38770  0.45350  0.35930  Biso   1.000  C
  Cs1      1.0000 0.50880  0.21450  0.86020  Biso   1.000  Cs
  Ag3      1.0000 0.57490  0.15890  0.80220  Biso   1.000  Ag
  Ag4      1.0000 0.54690  0.24300  0.94130  Biso   1.000  Ag
  O13      1.0000 0.99490  0.30110  0.89820  Biso   1.000  O
  Ag5      1.0000 0.74828  0.69738  0.74462  Biso   1.000  Ag
  Ag6      1.0000 0.57769  0.69023  0.87525  Biso   1.000  Ag
  Cr2      1.0000 0.79050  0.99563  0.47614  Biso   1.000  Cr
  O14      1.0000 0.85220  0.92180  0.61300  Biso   1.000  O
  O15      1.0000 0.70680  0.90870  0.46480  Biso   1.000  O
  O16      1.0000 0.84200  0.79970  0.71660  Biso   1.000  O
  O17      1.0000 0.68380  0.78750  0.55790  Biso   1.000  O
  C7       1.0000 0.81410  0.85530  0.63550  Biso   1.000  C
  C8       1.0000 0.72680  0.84770  0.54550  Biso   1.000  C
  O18      1.0000 0.71990  0.06910  0.34300  Biso   1.000  O
  O19      1.0000 0.75800  0.08450  0.56800  Biso   1.000  O
  O20      1.0000 0.64770  0.80390  0.80620  Biso   1.000  O
  O21      1.0000 0.81590  0.71030  0.95590  Biso   1.000  O
  C9       1.0000 0.68950  0.13910  0.37270  Biso   1.000  C
  C10      1.0000 0.71010  0.14680  0.50470  Biso   1.000  C
  O22      1.0000 0.88340  0.07040  0.48890  Biso   1.000  O
  O23      1.0000 0.82710  0.92240  0.37230  Biso   1.000  O
  O24      1.0000 0.02550  0.91370  0.58620  Biso   1.000  O
  O25      1.0000 0.07930  0.08290  0.69940  Biso   1.000  O
  C11      1.0000 0.91890  0.04560  0.42490  Biso   1.000  C
  C12      1.0000 0.88770  0.95350  0.35930  Biso   1.000  C
  Cs2      1.0000 0.00880  0.71450  0.86020  Biso   1.000  Cs
  Ag7      1.0000 0.07490  0.65890  0.80220  Biso   1.000  Ag
  Ag8      1.0000 0.04690  0.74300  0.94130  Biso   1.000  Ag
  O26      1.0000 0.49490  0.80110  0.89820  Biso   1.000  O
  Ag9      1.0000 0.75172  0.19738  0.75538  Biso   1.000  Ag
  Ag10     1.0000 0.92231  0.19023  0.62475  Biso   1.000  Ag
  Cr3      1.0000 0.70950  0.49563  0.02386  Biso   1.000  Cr
  O27      1.0000 0.64780  0.42180  0.88700  Biso   1.000  O
  O28      1.0000 0.79320  0.40870  0.03520  Biso   1.000  O
  O29      1.0000 0.65800  0.29970  0.78340  Biso   1.000  O
  O30      1.0000 0.81620  0.28750  0.94210  Biso   1.000  O
  C13      1.0000 0.68590  0.35530  0.86450  Biso   1.000  C
  C14      1.0000 0.77320  0.34770  0.95450  Biso   1.000  C
  O31      1.0000 0.78010  0.56910  0.15700  Biso   1.000  O
  O32      1.0000 0.74200  0.58450  0.93200  Biso   1.000  O
  O33      1.0000 0.85230  0.30390  0.69380  Biso   1.000  O
  O34      1.0000 0.68410  0.21030  0.54410  Biso   1.000  O
  C15      1.0000 0.81050  0.63910  0.12730  Biso   1.000  C
  C16      1.0000 0.78990  0.64680  0.99530  Biso   1.000  C
  O35      1.0000 0.61660  0.57040  0.01110  Biso   1.000  O
  O36      1.0000 0.67290  0.42240  0.12770  Biso   1.000  O
  O37      1.0000 0.47450  0.41370  0.91380  Biso   1.000  O
  O38      1.0000 0.42070  0.58290  0.80060  Biso   1.000  O
  C17      1.0000 0.58110  0.54560  0.07510  Biso   1.000  C
  C18      1.0000 0.61230  0.45350  0.14070  Biso   1.000  C
  Cs3      1.0000 0.49120  0.21450  0.63980  Biso   1.000  Cs
  Ag11     1.0000 0.42510  0.15890  0.69780  Biso   1.000  Ag
  Ag12     1.0000 0.45310  0.24300  0.55870  Biso   1.000  Ag
  O39      1.0000 0.00510  0.30110  0.60180  Biso   1.000  O
  Ag13     1.0000 0.25172  0.69738  0.75538  Biso   1.000  Ag
  Ag14     1.0000 0.42231  0.69023  0.62475  Biso   1.000  Ag
  Cr4      1.0000 0.20950  0.99563  0.02386  Biso   1.000  Cr
  O40      1.0000 0.14780  0.92180  0.88700  Biso   1.000  O
  O41      1.0000 0.29320  0.90870  0.03520  Biso   1.000  O
  O42      1.0000 0.15800  0.79970  0.78340  Biso   1.000  O
  O43      1.0000 0.31620  0.78750  0.94210  Biso   1.000  O
  C19      1.0000 0.18590  0.85530  0.86450  Biso   1.000  C
  C20      1.0000 0.27320  0.84770  0.95450  Biso   1.000  C
  O44      1.0000 0.28010  0.06910  0.15700  Biso   1.000  O
  O45      1.0000 0.24200  0.08450  0.93200  Biso   1.000  O
  O46      1.0000 0.35230  0.80390  0.69380  Biso   1.000  O
  O47      1.0000 0.18410  0.71030  0.54410  Biso   1.000  O
  C21      1.0000 0.31050  0.13910  0.12730  Biso   1.000  C
  C22      1.0000 0.28990  0.14680  0.99530  Biso   1.000  C
  O48      1.0000 0.11660  0.07040  0.01110  Biso   1.000  O
  O49      1.0000 0.17290  0.92240  0.12770  Biso   1.000  O
  O50      1.0000 0.97450  0.91370  0.91380  Biso   1.000  O
  O51      1.0000 0.92070  0.08290  0.80060  Biso   1.000  O
  C23      1.0000 0.08110  0.04560  0.07510  Biso   1.000  C
  C24      1.0000 0.11230  0.95350  0.14070  Biso   1.000  C
  Cs4      1.0000 0.99120  0.71450  0.63980  Biso   1.000  Cs
  Ag15     1.0000 0.92510  0.65890  0.69780  Biso   1.000  Ag
  Ag16     1.0000 0.95310  0.74300  0.55870  Biso   1.000  Ag
  O52      1.0000 0.50510  0.80110  0.60180  Biso   1.000  O
  Ag17     1.0000 0.75172  0.80262  0.25538  Biso   1.000  Ag
  Ag18     1.0000 0.92231  0.80977  0.12475  Biso   1.000  Ag
  Cr5      1.0000 0.70950  0.50437  0.52386  Biso   1.000  Cr
  O53      1.0000 0.64780  0.57820  0.38700  Biso   1.000  O
  O54      1.0000 0.79320  0.59130  0.53520  Biso   1.000  O
  O55      1.0000 0.65800  0.70030  0.28340  Biso   1.000  O
  O56      1.0000 0.81620  0.71250  0.44210  Biso   1.000  O
  C25      1.0000 0.68590  0.64470  0.36450  Biso   1.000  C
  C26      1.0000 0.77320  0.65230  0.45450  Biso   1.000  C
  O57      1.0000 0.78010  0.43090  0.65700  Biso   1.000  O
  O58      1.0000 0.74200  0.41550  0.43200  Biso   1.000  O
  O59      1.0000 0.85230  0.69610  0.19380  Biso   1.000  O
  O60      1.0000 0.68410  0.78970  0.04410  Biso   1.000  O
  C27      1.0000 0.81050  0.36090  0.62730  Biso   1.000  C
  C28      1.0000 0.78990  0.35320  0.49530  Biso   1.000  C
  O61      1.0000 0.61660  0.42960  0.51110  Biso   1.000  O
  O62      1.0000 0.67290  0.57760  0.62770  Biso   1.000  O
  O63      1.0000 0.47450  0.58630  0.41380  Biso   1.000  O
  O64      1.0000 0.42070  0.41710  0.30060  Biso   1.000  O
  C29      1.0000 0.58110  0.45440  0.57510  Biso   1.000  C
  C30      1.0000 0.61230  0.54650  0.64070  Biso   1.000  C
  Cs5      1.0000 0.49120  0.78550  0.13980  Biso   1.000  Cs
  Ag19     1.0000 0.42510  0.84110  0.19780  Biso   1.000  Ag
  Ag20     1.0000 0.45310  0.75700  0.05870  Biso   1.000  Ag
  O65      1.0000 0.00510  0.69890  0.10180  Biso   1.000  O
  Ag21     1.0000 0.25172  0.30262  0.25538  Biso   1.000  Ag
  Ag22     1.0000 0.42231  0.30977  0.12475  Biso   1.000  Ag
  Cr6      1.0000 0.20950  0.00437  0.52386  Biso   1.000  Cr
  O66      1.0000 0.14780  0.07820  0.38700  Biso   1.000  O
  O67      1.0000 0.29320  0.09130  0.53520  Biso   1.000  O
  O68      1.0000 0.15800  0.20030  0.28340  Biso   1.000  O
  O69      1.0000 0.31620  0.21250  0.44210  Biso   1.000  O
  C31      1.0000 0.18590  0.14470  0.36450  Biso   1.000  C
  C32      1.0000 0.27320  0.15230  0.45450  Biso   1.000  C
  O70      1.0000 0.28010  0.93090  0.65700  Biso   1.000  O
  O71      1.0000 0.24200  0.91550  0.43200  Biso   1.000  O
  O72      1.0000 0.35230  0.19610  0.19380  Biso   1.000  O
  O73      1.0000 0.18410  0.28970  0.04410  Biso   1.000  O
  C33      1.0000 0.31050  0.86090  0.62730  Biso   1.000  C
  C34      1.0000 0.28990  0.85320  0.49530  Biso   1.000  C
  O74      1.0000 0.11660  0.92960  0.51110  Biso   1.000  O
  O75      1.0000 0.17290  0.07760  0.62770  Biso   1.000  O
  O76      1.0000 0.97450  0.08630  0.41380  Biso   1.000  O
  O77      1.0000 0.92070  0.91710  0.30060  Biso   1.000  O
  C35      1.0000 0.08110  0.95440  0.57510  Biso   1.000  C
  C36      1.0000 0.11230  0.04650  0.64070  Biso   1.000  C
  Cs6      1.0000 0.99120  0.28550  0.13980  Biso   1.000  Cs
  Ag23     1.0000 0.92510  0.34110  0.19780  Biso   1.000  Ag
  Ag24     1.0000 0.95310  0.25700  0.05870  Biso   1.000  Ag
  O78      1.0000 0.50510  0.19890  0.10180  Biso   1.000  O
  Ag25     1.0000 0.24828  0.80262  0.24462  Biso   1.000  Ag
  Ag26     1.0000 0.07769  0.80977  0.37525  Biso   1.000  Ag
  Cr7      1.0000 0.29050  0.50437  0.97614  Biso   1.000  Cr
  O79      1.0000 0.35220  0.57820  0.11300  Biso   1.000  O
  O80      1.0000 0.20680  0.59130  0.96480  Biso   1.000  O
  O81      1.0000 0.34200  0.70030  0.21660  Biso   1.000  O
  O82      1.0000 0.18380  0.71250  0.05790  Biso   1.000  O
  C37      1.0000 0.31410  0.64470  0.13550  Biso   1.000  C
  C38      1.0000 0.22680  0.65230  0.04550  Biso   1.000  C
  O83      1.0000 0.21990  0.43090  0.84300  Biso   1.000  O
  O84      1.0000 0.25800  0.41550  0.06800  Biso   1.000  O
  O85      1.0000 0.14770  0.69610  0.30620  Biso   1.000  O
  O86      1.0000 0.31590  0.78970  0.45590  Biso   1.000  O
  C39      1.0000 0.18950  0.36090  0.87270  Biso   1.000  C
  C40      1.0000 0.21010  0.35320  0.00470  Biso   1.000  C
  O87      1.0000 0.38340  0.42960  0.98890  Biso   1.000  O
  O88      1.0000 0.32710  0.57760  0.87230  Biso   1.000  O
  O89      1.0000 0.52550  0.58630  0.08620  Biso   1.000  O
  O90      1.0000 0.57930  0.41710  0.19940  Biso   1.000  O
  C41      1.0000 0.41890  0.45440  0.92490  Biso   1.000  C
  C42      1.0000 0.38770  0.54650  0.85930  Biso   1.000  C
  Cs7      1.0000 0.50880  0.78550  0.36020  Biso   1.000  Cs
  Ag27     1.0000 0.57490  0.84110  0.30220  Biso   1.000  Ag
  Ag28     1.0000 0.54690  0.75700  0.44130  Biso   1.000  Ag
  O91      1.0000 0.99490  0.69890  0.39820  Biso   1.000  O
  Ag29     1.0000 0.74828  0.30262  0.24462  Biso   1.000  Ag
  Ag30     1.0000 0.57769  0.30977  0.37525  Biso   1.000  Ag
  Cr8      1.0000 0.79050  0.00437  0.97614  Biso   1.000  Cr
  O92      1.0000 0.85220  0.07820  0.11300  Biso   1.000  O
  O93      1.0000 0.70680  0.09130  0.96480  Biso   1.000  O
  O94      1.0000 0.84200  0.20030  0.21660  Biso   1.000  O
  O95      1.0000 0.68380  0.21250  0.05790  Biso   1.000  O
  C43      1.0000 0.81410  0.14470  0.13550  Biso   1.000  C
  C44      1.0000 0.72680  0.15230  0.04550  Biso   1.000  C
  O96      1.0000 0.71990  0.93090  0.84300  Biso   1.000  O
  O97      1.0000 0.75800  0.91550  0.06800  Biso   1.000  O
  O98      1.0000 0.64770  0.19610  0.30620  Biso   1.000  O
  O99      1.0000 0.81590  0.28970  0.45590  Biso   1.000  O
  C45      1.0000 0.68950  0.86090  0.87270  Biso   1.000  C
  C46      1.0000 0.71010  0.85320  0.00470  Biso   1.000  C
  O100     1.0000 0.88340  0.92960  0.98890  Biso   1.000  O
  O101     1.0000 0.82710  0.07760  0.87230  Biso   1.000  O
  O102     1.0000 0.02550  0.08630  0.08620  Biso   1.000  O
  O103     1.0000 0.07930  0.91710  0.19940  Biso   1.000  O
  C47      1.0000 0.91890  0.95440  0.92490  Biso   1.000  C
  C48      1.0000 0.88770  0.04650  0.85930  Biso   1.000  C
  Cs8      1.0000 0.00880  0.28550  0.36020  Biso   1.000  Cs
  Ag31     1.0000 0.07490  0.34110  0.30220  Biso   1.000  Ag
  Ag32     1.0000 0.04690  0.25700  0.44130  Biso   1.000  Ag
  O104     1.0000 0.49490  0.19890  0.39820  Biso   1.000  O
  Ag33     1.0000 0.50000  0.46263  0.75000  Biso   1.000  Ag
  Ag34     1.0000 0.00000  0.96263  0.75000  Biso   1.000  Ag
  Ag35     1.0000 0.50000  0.53737  0.25000  Biso   1.000  Ag
  Ag36     1.0000 0.00000  0.03737  0.25000  Biso   1.000  Ag
