data_image0
_cell_length_a       18.335
_cell_length_b       14.628
_cell_length_c       12.383
_cell_angle_alpha    90
_cell_angle_beta     113
_cell_angle_gamma    90

_symmetry_space_group_name_H-M    "P 1"
_symmetry_int_tables_number       1

loop_
  _symmetry_equiv_pos_as_xyz
  'x, y, z'

loop_
  _atom_site_label
  _atom_site_occupancy
  _atom_site_fract_x
  _atom_site_fract_y
  _atom_site_fract_z
  _atom_site_thermal_displace_type
  _atom_site_B_iso_or_equiv
  _atom_site_type_symbol
  Ag1      1.0000 0.24823  0.19769  0.74440  Biso   1.000  Ag
  Ag2      1.0000 0.57796  0.69009  0.87602  Biso   1.000  Ag
  Cr1      1.0000 0.29060  0.49561  0.47630  Biso   1.000  Cr
  O1       1.0000 0.35190  0.42120  0.61350  Biso   1.000  O
  O2       1.0000 0.20720  0.40910  0.46550  Biso   1.000  O
  O3       1.0000 0.34160  0.30020  0.71690  Biso   1.000  O
  O4       1.0000 0.18360  0.28760  0.55930  Biso   1.000  O
  C1       1.0000 0.31490  0.35540  0.63320  Biso   1.000  C
  C2       1.0000 0.22740  0.34800  0.54570  Biso   1.000  C
  O5       1.0000 0.21930  0.56970  0.34360  Biso   1.000  O
  O6       1.0000 0.25810  0.58550  0.56720  Biso   1.000  O
  O7       1.0000 0.64810  0.80400  0.80550  Biso   1.000  O
  O8       1.0000 0.68440  0.78980  0.04520  Biso   1.000  O
  C3       1.0000 0.18890  0.64010  0.37130  Biso   1.000  C
  C4       1.0000 0.21050  0.64740  0.50600  Biso   1.000  C
  O9       1.0000 0.61680  0.57080  0.01050  Biso   1.000  O
  O10      1.0000 0.32640  0.42190  0.37200  Biso   1.000  O
  O11      1.0000 0.52570  0.41360  0.58630  Biso   1.000  O
  O12      1.0000 0.57900  0.58140  0.69890  Biso   1.000  O
  C5       1.0000 0.58140  0.54550  0.07560  Biso   1.000  C
  C6       1.0000 0.38770  0.45300  0.35870  Biso   1.000  C
  Cs1      1.0000 0.50880  0.21540  0.86080  Biso   1.000  Cs
  Ag3      1.0000 0.57710  0.15710  0.80340  Biso   1.000  Ag
  Ag4      1.0000 0.54100  0.23430  0.93830  Biso   1.000  Ag
  O13      1.0000 0.49650  0.79420  0.90490  Biso   1.000  O
  Ag5      1.0000 0.74823  0.69769  0.74440  Biso   1.000  Ag
  Ag6      1.0000 0.07796  0.19009  0.87602  Biso   1.000  Ag
  Cr2      1.0000 0.79060  0.99561  0.47630  Biso   1.000  Cr
  O14      1.0000 0.85190  0.92120  0.61350  Biso   1.000  O
  O15      1.0000 0.70720  0.90910  0.46550  Biso   1.000  O
  O16      1.0000 0.84160  0.80020  0.71690  Biso   1.000  O
  O17      1.0000 0.68360  0.78760  0.55930  Biso   1.000  O
  C7       1.0000 0.81490  0.85540  0.63320  Biso   1.000  C
  C8       1.0000 0.72740  0.84800  0.54570  Biso   1.000  C
  O18      1.0000 0.71930  0.06970  0.34360  Biso   1.000  O
  O19      1.0000 0.75810  0.08550  0.56720  Biso   1.000  O
  O20      1.0000 0.14810  0.30400  0.80550  Biso   1.000  O
  O21      1.0000 0.18440  0.28980  0.04520  Biso   1.000  O
  C9       1.0000 0.68890  0.14010  0.37130  Biso   1.000  C
  C10      1.0000 0.71050  0.14740  0.50600  Biso   1.000  C
  O22      1.0000 0.11680  0.07080  0.01050  Biso   1.000  O
  O23      1.0000 0.82640  0.92190  0.37200  Biso   1.000  O
  O24      1.0000 0.02570  0.91360  0.58630  Biso   1.000  O
  O25      1.0000 0.07900  0.08140  0.69890  Biso   1.000  O
  C11      1.0000 0.08140  0.04550  0.07560  Biso   1.000  C
  C12      1.0000 0.88770  0.95300  0.35870  Biso   1.000  C
  Cs2      1.0000 0.00880  0.71540  0.86080  Biso   1.000  Cs
  Ag7      1.0000 0.07710  0.65710  0.80340  Biso   1.000  Ag
  Ag8      1.0000 0.04100  0.73430  0.93830  Biso   1.000  Ag
  O26      1.0000 0.99650  0.29420  0.90490  Biso   1.000  O
  Ag9      1.0000 0.75177  0.19769  0.75560  Biso   1.000  Ag
  Ag10     1.0000 0.42204  0.69009  0.62398  Biso   1.000  Ag
  Cr3      1.0000 0.70940  0.49561  0.02370  Biso   1.000  Cr
  O27      1.0000 0.64810  0.42120  0.88650  Biso   1.000  O
  O28      1.0000 0.79280  0.40910  0.03450  Biso   1.000  O
  O29      1.0000 0.65840  0.30020  0.78310  Biso   1.000  O
  O30      1.0000 0.81640  0.28760  0.94070  Biso   1.000  O
  C13      1.0000 0.68510  0.35540  0.86680  Biso   1.000  C
  C14      1.0000 0.77260  0.34800  0.95430  Biso   1.000  C
  O31      1.0000 0.78070  0.56970  0.15640  Biso   1.000  O
  O32      1.0000 0.74190  0.58550  0.93280  Biso   1.000  O
  O33      1.0000 0.35190  0.80400  0.69450  Biso   1.000  O
  O34      1.0000 0.31560  0.78980  0.45480  Biso   1.000  O
  C15      1.0000 0.81110  0.64010  0.12870  Biso   1.000  C
  C16      1.0000 0.78950  0.64740  0.99400  Biso   1.000  C
  O35      1.0000 0.38320  0.57080  0.48950  Biso   1.000  O
  O36      1.0000 0.67360  0.42190  0.12800  Biso   1.000  O
  O37      1.0000 0.47430  0.41360  0.91370  Biso   1.000  O
  O38      1.0000 0.42100  0.58140  0.80110  Biso   1.000  O
  C17      1.0000 0.41860  0.54550  0.42440  Biso   1.000  C
  C18      1.0000 0.61230  0.45300  0.14130  Biso   1.000  C
  Cs3      1.0000 0.49120  0.21540  0.63920  Biso   1.000  Cs
  Ag11     1.0000 0.42290  0.15710  0.69660  Biso   1.000  Ag
  Ag12     1.0000 0.45900  0.23430  0.56170  Biso   1.000  Ag
  O39      1.0000 0.50350  0.79420  0.59510  Biso   1.000  O
  Ag13     1.0000 0.25177  0.69769  0.75560  Biso   1.000  Ag
  Ag14     1.0000 0.92204  0.19009  0.62398  Biso   1.000  Ag
  Cr4      1.0000 0.20940  0.99561  0.02370  Biso   1.000  Cr
  O40      1.0000 0.14810  0.92120  0.88650  Biso   1.000  O
  O41      1.0000 0.29280  0.90910  0.03450  Biso   1.000  O
  O42      1.0000 0.15840  0.80020  0.78310  Biso   1.000  O
  O43      1.0000 0.31640  0.78760  0.94070  Biso   1.000  O
  C19      1.0000 0.18510  0.85540  0.86680  Biso   1.000  C
  C20      1.0000 0.27260  0.84800  0.95430  Biso   1.000  C
  O44      1.0000 0.28070  0.06970  0.15640  Biso   1.000  O
  O45      1.0000 0.24190  0.08550  0.93280  Biso   1.000  O
  O46      1.0000 0.85190  0.30400  0.69450  Biso   1.000  O
  O47      1.0000 0.81560  0.28980  0.45480  Biso   1.000  O
  C21      1.0000 0.31110  0.14010  0.12870  Biso   1.000  C
  C22      1.0000 0.28950  0.14740  0.99400  Biso   1.000  C
  O48      1.0000 0.88320  0.07080  0.48950  Biso   1.000  O
  O49      1.0000 0.17360  0.92190  0.12800  Biso   1.000  O
  O50      1.0000 0.97430  0.91360  0.91370  Biso   1.000  O
  O51      1.0000 0.92100  0.08140  0.80110  Biso   1.000  O
  C23      1.0000 0.91860  0.04550  0.42440  Biso   1.000  C
  C24      1.0000 0.11230  0.95300  0.14130  Biso   1.000  C
  Cs4      1.0000 0.99120  0.71540  0.63920  Biso   1.000  Cs
  Ag15     1.0000 0.92290  0.65710  0.69660  Biso   1.000  Ag
  Ag16     1.0000 0.95900  0.73430  0.56170  Biso   1.000  Ag
  O52      1.0000 0.00350  0.29420  0.59510  Biso   1.000  O
  Ag17     1.0000 0.75177  0.80231  0.25560  Biso   1.000  Ag
  Ag18     1.0000 0.42204  0.30991  0.12398  Biso   1.000  Ag
  Cr5      1.0000 0.70940  0.50439  0.52370  Biso   1.000  Cr
  O53      1.0000 0.64810  0.57880  0.38650  Biso   1.000  O
  O54      1.0000 0.79280  0.59090  0.53450  Biso   1.000  O
  O55      1.0000 0.65840  0.69980  0.28310  Biso   1.000  O
  O56      1.0000 0.81640  0.71240  0.44070  Biso   1.000  O
  C25      1.0000 0.68510  0.64460  0.36680  Biso   1.000  C
  C26      1.0000 0.77260  0.65200  0.45430  Biso   1.000  C
  O57      1.0000 0.78070  0.43030  0.65640  Biso   1.000  O
  O58      1.0000 0.74190  0.41450  0.43280  Biso   1.000  O
  O59      1.0000 0.35190  0.19600  0.19450  Biso   1.000  O
  O60      1.0000 0.31560  0.21020  0.95480  Biso   1.000  O
  C27      1.0000 0.81110  0.35990  0.62870  Biso   1.000  C
  C28      1.0000 0.78950  0.35260  0.49400  Biso   1.000  C
  O61      1.0000 0.38320  0.42920  0.98950  Biso   1.000  O
  O62      1.0000 0.67360  0.57810  0.62800  Biso   1.000  O
  O63      1.0000 0.47430  0.58640  0.41370  Biso   1.000  O
  O64      1.0000 0.42100  0.41860  0.30110  Biso   1.000  O
  C29      1.0000 0.41860  0.45450  0.92440  Biso   1.000  C
  C30      1.0000 0.61230  0.54700  0.64130  Biso   1.000  C
  Cs5      1.0000 0.49120  0.78460  0.13920  Biso   1.000  Cs
  Ag19     1.0000 0.42290  0.84290  0.19660  Biso   1.000  Ag
  Ag20     1.0000 0.45900  0.76570  0.06170  Biso   1.000  Ag
  O65      1.0000 0.50350  0.20580  0.09510  Biso   1.000  O
  Ag21     1.0000 0.25177  0.30231  0.25560  Biso   1.000  Ag
  Ag22     1.0000 0.92204  0.80991  0.12398  Biso   1.000  Ag
  Cr6      1.0000 0.20940  0.00439  0.52370  Biso   1.000  Cr
  O66      1.0000 0.14810  0.07880  0.38650  Biso   1.000  O
  O67      1.0000 0.29280  0.09090  0.53450  Biso   1.000  O
  O68      1.0000 0.15840  0.19980  0.28310  Biso   1.000  O
  O69      1.0000 0.31640  0.21240  0.44070  Biso   1.000  O
  C31      1.0000 0.18510  0.14460  0.36680  Biso   1.000  C
  C32      1.0000 0.27260  0.15200  0.45430  Biso   1.000  C
  O70      1.0000 0.28070  0.93030  0.65640  Biso   1.000  O
  O71      1.0000 0.24190  0.91450  0.43280  Biso   1.000  O
  O72      1.0000 0.85190  0.69600  0.19450  Biso   1.000  O
  O73      1.0000 0.81560  0.71020  0.95480  Biso   1.000  O
  C33      1.0000 0.31110  0.85990  0.62870  Biso   1.000  C
  C34      1.0000 0.28950  0.85260  0.49400  Biso   1.000  C
  O74      1.0000 0.88320  0.92920  0.98950  Biso   1.000  O
  O75      1.0000 0.17360  0.07810  0.62800  Biso   1.000  O
  O76      1.0000 0.97430  0.08640  0.41370  Biso   1.000  O
  O77      1.0000 0.92100  0.91860  0.30110  Biso   1.000  O
  C35      1.0000 0.91860  0.95450  0.92440  Biso   1.000  C
  C36      1.0000 0.11230  0.04700  0.64130  Biso   1.000  C
  Cs6      1.0000 0.99120  0.28460  0.13920  Biso   1.000  Cs
  Ag23     1.0000 0.92290  0.34290  0.19660  Biso   1.000  Ag
  Ag24     1.0000 0.95900  0.26570  0.06170  Biso   1.000  Ag
  O78      1.0000 0.00350  0.70580  0.09510  Biso   1.000  O
  Ag25     1.0000 0.24823  0.80231  0.24440  Biso   1.000  Ag
  Ag26     1.0000 0.57796  0.30991  0.37602  Biso   1.000  Ag
  Cr7      1.0000 0.29060  0.50439  0.97630  Biso   1.000  Cr
  O79      1.0000 0.35190  0.57880  0.11350  Biso   1.000  O
  O80      1.0000 0.20720  0.59090  0.96550  Biso   1.000  O
  O81      1.0000 0.34160  0.69980  0.21690  Biso   1.000  O
  O82      1.0000 0.18360  0.71240  0.05930  Biso   1.000  O
  C37      1.0000 0.31490  0.64460  0.13320  Biso   1.000  C
  C38      1.0000 0.22740  0.65200  0.04570  Biso   1.000  C
  O83      1.0000 0.21930  0.43030  0.84360  Biso   1.000  O
  O84      1.0000 0.25810  0.41450  0.06720  Biso   1.000  O
  O85      1.0000 0.64810  0.19600  0.30550  Biso   1.000  O
  O86      1.0000 0.68440  0.21020  0.54520  Biso   1.000  O
  C39      1.0000 0.18890  0.35990  0.87130  Biso   1.000  C
  C40      1.0000 0.21050  0.35260  0.00600  Biso   1.000  C
  O87      1.0000 0.61680  0.42920  0.51050  Biso   1.000  O
  O88      1.0000 0.32640  0.57810  0.87200  Biso   1.000  O
  O89      1.0000 0.52570  0.58640  0.08630  Biso   1.000  O
  O90      1.0000 0.57900  0.41860  0.19890  Biso   1.000  O
  C41      1.0000 0.58140  0.45450  0.57560  Biso   1.000  C
  C42      1.0000 0.38770  0.54700  0.85870  Biso   1.000  C
  Cs7      1.0000 0.50880  0.78460  0.36080  Biso   1.000  Cs
  Ag27     1.0000 0.57710  0.84290  0.30340  Biso   1.000  Ag
  Ag28     1.0000 0.54100  0.76570  0.43830  Biso   1.000  Ag
  O91      1.0000 0.49650  0.20580  0.40490  Biso   1.000  O
  Ag29     1.0000 0.74823  0.30231  0.24440  Biso   1.000  Ag
  Ag30     1.0000 0.07796  0.80991  0.37602  Biso   1.000  Ag
  Cr8      1.0000 0.79060  0.00439  0.97630  Biso   1.000  Cr
  O92      1.0000 0.85190  0.07880  0.11350  Biso   1.000  O
  O93      1.0000 0.70720  0.09090  0.96550  Biso   1.000  O
  O94      1.0000 0.84160  0.19980  0.21690  Biso   1.000  O
  O95      1.0000 0.68360  0.21240  0.05930  Biso   1.000  O
  C43      1.0000 0.81490  0.14460  0.13320  Biso   1.000  C
  C44      1.0000 0.72740  0.15200  0.04570  Biso   1.000  C
  O96      1.0000 0.71930  0.93030  0.84360  Biso   1.000  O
  O97      1.0000 0.75810  0.91450  0.06720  Biso   1.000  O
  O98      1.0000 0.14810  0.69600  0.30550  Biso   1.000  O
  O99      1.0000 0.18440  0.71020  0.54520  Biso   1.000  O
  C45      1.0000 0.68890  0.85990  0.87130  Biso   1.000  C
  C46      1.0000 0.71050  0.85260  0.00600  Biso   1.000  C
  O100     1.0000 0.11680  0.92920  0.51050  Biso   1.000  O
  O101     1.0000 0.82640  0.07810  0.87200  Biso   1.000  O
  O102     1.0000 0.02570  0.08640  0.08630  Biso   1.000  O
  O103     1.0000 0.07900  0.91860  0.19890  Biso   1.000  O
  C47      1.0000 0.08140  0.95450  0.57560  Biso   1.000  C
  C48      1.0000 0.88770  0.04700  0.85870  Biso   1.000  C
  Cs8      1.0000 0.00880  0.28460  0.36080  Biso   1.000  Cs
  Ag31     1.0000 0.07710  0.34290  0.30340  Biso   1.000  Ag
  Ag32     1.0000 0.04100  0.26570  0.43830  Biso   1.000  Ag
  O104     1.0000 0.99650  0.70580  0.40490  Biso   1.000  O
  Ag33     1.0000 0.50000  0.46413  0.75000  Biso   1.000  Ag
  Ag34     1.0000 0.00000  0.96413  0.75000  Biso   1.000  Ag
  Ag35     1.0000 0.50000  0.53587  0.25000  Biso   1.000  Ag
  Ag36     1.0000 0.00000  0.03587  0.25000  Biso   1.000  Ag
