data_BELJIL_clean
_audit_creation_date              2014-07-02
_audit_creation_method            'Materials Studio'
_symmetry_space_group_name_H-M    'P1'
_symmetry_Int_Tables_number       1
_symmetry_cell_setting            triclinic
loop_
_symmetry_equiv_pos_as_xyz
  x,y,z
_cell_length_a                    13.3260
_cell_length_b                    15.4554
_cell_length_c                    15.4554
_cell_angle_alpha                 67.9080
_cell_angle_beta                  73.2972
_cell_angle_gamma                 106.7030
loop_
_atom_site_label
_atom_site_type_symbol
_atom_site_fract_x
_atom_site_fract_y
_atom_site_fract_z
_atom_site_U_iso_or_equiv
_atom_site_adp_type
_atom_site_occupancy
Cu1    Cu    0.26050   0.49050   0.90320   0.01267  Uiso   1.00
Cu2    Cu    0.16370   0.90320   0.60630   0.01267  Uiso   1.00
Cu3    Cu    0.77000   0.60630   0.49050   0.01267  Uiso   1.00
H1     H     0.37901   0.79502   0.61399   0.01267  Uiso   1.00
H2     H     0.27301   0.70102   0.61899   0.01267  Uiso   1.00
H3     H     0.29901   0.82402   0.55599   0.01267  Uiso   1.00
H4     H     0.03601   0.81802   0.83499   0.01267  Uiso   1.00
H5     H     0.06000   0.71500   0.05600   0.01267  Uiso   1.00
H6     H     0.96700   0.74400   0.01300   0.01267  Uiso   1.00
H7     H     0.07000   0.52000   0.11000   0.01267  Uiso   1.00
H8     H     0.11000   0.42300   0.17800   0.01267  Uiso   1.00
H9     H     0.28700   0.46200   0.19900   0.01267  Uiso   1.00
H10    H     0.19300   0.60400   0.14600   0.01267  Uiso   1.00
H11    H     0.25600   0.58700   0.22500   0.01267  Uiso   1.00
H12    H     0.34600   0.63900   0.09100   0.01267  Uiso   1.00
H13    H     0.40800   0.62200   0.97500   0.01267  Uiso   1.00
H14    H     0.47100   0.60400   0.05600   0.01267  Uiso   1.00
H15    H     0.42100   0.51200   0.02700   0.01267  Uiso   1.00
H16    H     0.99300   0.61399   0.59099   0.01267  Uiso   1.00
H17    H     0.89200   0.61899   0.67999   0.01267  Uiso   1.00
H18    H     0.85500   0.55599   0.61999   0.01267  Uiso   1.00
H19    H     0.87100   0.83499   0.34699   0.01267  Uiso   1.00
H20    H     0.11600   0.05600   0.22900   0.01267  Uiso   1.00
H21    H     0.98000   0.01300   0.24300   0.01267  Uiso   1.00
H22    H     0.18000   0.11000   0.37000   0.01267  Uiso   1.00
H23    H     0.28800   0.17800   0.39900   0.01267  Uiso   1.00
H24    H     0.48600   0.19900   0.33900   0.01267  Uiso   1.00
H25    H     0.33900   0.14600   0.25000   0.01267  Uiso   1.00
H26    H     0.48100   0.22500   0.18800   0.01267  Uiso   1.00
H27    H     0.43700   0.09100   0.27000   0.01267  Uiso   1.00
H28    H     0.38300   0.97500   0.40300   0.01267  Uiso   1.00
H29    H     0.52700   0.05600   0.34000   0.01267  Uiso   1.00
H30    H     0.44800   0.02700   0.46100   0.01267  Uiso   1.00
H31    H     0.58399   0.59099   0.79502   0.01267  Uiso   1.00
H32    H     0.57199   0.67999   0.70102   0.01267  Uiso   1.00
H33    H     0.47499   0.61999   0.82402   0.01267  Uiso   1.00
H34    H     0.21799   0.34699   0.81802   0.01267  Uiso   1.00
H35    H     0.34500   0.22900   0.71500   0.01267  Uiso   1.00
H36    H     0.22300   0.24300   0.74400   0.01267  Uiso   1.00
H37    H     0.55000   0.37000   0.52000   0.01267  Uiso   1.00
H38    H     0.68700   0.39900   0.42300   0.01267  Uiso   1.00
H39    H     0.82500   0.33900   0.46200   0.01267  Uiso   1.00
H40    H     0.58900   0.25000   0.60400   0.01267  Uiso   1.00
H41    H     0.66900   0.18800   0.58700   0.01267  Uiso   1.00
H42    H     0.70700   0.27000   0.63900   0.01267  Uiso   1.00
H43    H     0.78600   0.40300   0.62200   0.01267  Uiso   1.00
H44    H     0.86700   0.34000   0.60400   0.01267  Uiso   1.00
H45    H     0.90900   0.46100   0.51200   0.01267  Uiso   1.00
C1     C     0.21590   0.66680   0.81430   0.01267  Uiso   1.00
C2     C     0.21831   0.74112   0.72749   0.01267  Uiso   1.00
C3     C     0.29331   0.76662   0.62309   0.01267  Uiso   1.00
C4     C     0.08791   0.77582   0.83029   0.01267  Uiso   1.00
C5     C     0.07700   0.70561   0.91911   0.01267  Uiso   1.00
C6     C     0.00160   0.68990   0.02850   0.01267  Uiso   1.00
C7     C     0.14180   0.64410   0.91790   0.01267  Uiso   1.00
C8     C     0.13760   0.57640   0.01160   0.01267  Uiso   1.00
C9     C     0.19270   0.45260   0.11250   0.01267  Uiso   1.00
C10    C     0.20840   0.35780   0.11220   0.01267  Uiso   1.00
C11    C     0.28240   0.51300   0.13480   0.01267  Uiso   1.00
C12    C     0.26330   0.59960   0.15300   0.01267  Uiso   1.00
C13    C     0.40600   0.56570   0.04140   0.01267  Uiso   1.00
C14    C     0.03020   0.81430   0.51890   0.01267  Uiso   1.00
C15    C     0.94580   0.72749   0.53139   0.01267  Uiso   1.00
C16    C     0.91640   0.62309   0.61029   0.01267  Uiso   1.00
C17    C     0.91820   0.83029   0.39389   0.01267  Uiso   1.00
C18    C     0.99611   0.91911   0.37528   0.01267  Uiso   1.00
C19    C     0.03010   0.02850   0.28160   0.01267  Uiso   1.00
C20    C     0.05970   0.91790   0.43800   0.01267  Uiso   1.00
C21    C     0.14920   0.01160   0.41200   0.01267  Uiso   1.00
C22    C     0.30520   0.11250   0.43490   0.01267  Uiso   1.00
C23    C     0.32060   0.11220   0.53000   0.01267  Uiso   1.00
C24    C     0.41720   0.13480   0.35220   0.01267  Uiso   1.00
C25    C     0.41630   0.15300   0.24740   0.01267  Uiso   1.00
C26    C     0.44740   0.04140   0.39290   0.01267  Uiso   1.00
C27    C     0.54910   0.51890   0.66680   0.01267  Uiso   1.00
C28    C     0.47719   0.53139   0.74112   0.01267  Uiso   1.00
C29    C     0.52669   0.61029   0.76662   0.01267  Uiso   1.00
C30    C     0.31209   0.39389   0.77582   0.01267  Uiso   1.00
C31    C     0.37139   0.37528   0.70561   0.01267  Uiso   1.00
C32    C     0.31170   0.28160   0.68990   0.01267  Uiso   1.00
C33    C     0.49770   0.43800   0.64410   0.01267  Uiso   1.00
C34    C     0.56120   0.41200   0.57640   0.01267  Uiso   1.00
C35    C     0.74010   0.43490   0.45260   0.01267  Uiso   1.00
C36    C     0.85060   0.53000   0.35780   0.01267  Uiso   1.00
C37    C     0.76940   0.35220   0.51300   0.01267  Uiso   1.00
C38    C     0.66370   0.24740   0.59960   0.01267  Uiso   1.00
C39    C     0.84030   0.39290   0.56570   0.01267  Uiso   1.00
N1     N     0.15631   0.79492   0.73539   0.01267  Uiso   1.00
N2     N     0.19320   0.51610   0.01520   0.01267  Uiso   1.00
N3     N     0.89170   0.73539   0.46969   0.01267  Uiso   1.00
N4     N     0.20840   0.01520   0.46870   0.01267  Uiso   1.00
N5     N     0.36139   0.46969   0.79492   0.01267  Uiso   1.00
N6     N     0.67710   0.46870   0.51610   0.01267  Uiso   1.00
O1     O     0.91530   0.58770   0.10000   0.01267  Uiso   1.00
O2     O     0.27980   0.61790   0.80080   0.01267  Uiso   1.00
O3     O     0.24280   0.36580   0.01940   0.01267  Uiso   1.00
O4     O     0.19420   0.28640   0.19050   0.01267  Uiso   1.00
O5     O     0.01530   0.10000   0.31230   0.01267  Uiso   1.00
O6     O     0.08060   0.80080   0.58130   0.01267  Uiso   1.00
O7     O     0.26220   0.01940   0.61480   0.01267  Uiso   1.00
O8     O     0.38470   0.19050   0.52310   0.01267  Uiso   1.00
O9     O     0.32760   0.31230   0.58770   0.01267  Uiso   1.00
O10    O     0.66190   0.58130   0.61790   0.01267  Uiso   1.00
O11    O     0.87700   0.61480   0.36580   0.01267  Uiso   1.00
O12    O     0.90780   0.52310   0.28640   0.01267  Uiso   1.00
Cu4    Cu    0.73950   0.50950   0.09680   0.01267  Uiso   1.00
Cu5    Cu    0.83630   0.09680   0.39370   0.01267  Uiso   1.00
Cu6    Cu    0.23000   0.39370   0.50950   0.01267  Uiso   1.00
H46    H     0.62099   0.20498   0.38601   0.01267  Uiso   1.00
H47    H     0.72699   0.29898   0.38101   0.01267  Uiso   1.00
H48    H     0.70099   0.17598   0.44401   0.01267  Uiso   1.00
H49    H     0.96399   0.18198   0.16501   0.01267  Uiso   1.00
H50    H     0.94000   0.28500   0.94400   0.01267  Uiso   1.00
H51    H     0.03300   0.25600   0.98700   0.01267  Uiso   1.00
H52    H     0.93000   0.48000   0.89000   0.01267  Uiso   1.00
H53    H     0.89000   0.57700   0.82200   0.01267  Uiso   1.00
H54    H     0.71300   0.53800   0.80100   0.01267  Uiso   1.00
H55    H     0.80700   0.39600   0.85400   0.01267  Uiso   1.00
H56    H     0.74400   0.41300   0.77500   0.01267  Uiso   1.00
H57    H     0.65400   0.36100   0.90900   0.01267  Uiso   1.00
H58    H     0.59200   0.37800   0.02500   0.01267  Uiso   1.00
H59    H     0.52900   0.39600   0.94400   0.01267  Uiso   1.00
H60    H     0.57900   0.48800   0.97300   0.01267  Uiso   1.00
H61    H     0.00700   0.38601   0.40901   0.01267  Uiso   1.00
H62    H     0.10800   0.38101   0.32001   0.01267  Uiso   1.00
H63    H     0.14500   0.44401   0.38001   0.01267  Uiso   1.00
H64    H     0.12900   0.16501   0.65301   0.01267  Uiso   1.00
H65    H     0.88400   0.94400   0.77100   0.01267  Uiso   1.00
H66    H     0.02000   0.98700   0.75700   0.01267  Uiso   1.00
H67    H     0.82000   0.89000   0.63000   0.01267  Uiso   1.00
H68    H     0.71200   0.82200   0.60100   0.01267  Uiso   1.00
H69    H     0.51400   0.80100   0.66100   0.01267  Uiso   1.00
H70    H     0.66100   0.85400   0.75000   0.01267  Uiso   1.00
H71    H     0.51900   0.77500   0.81200   0.01267  Uiso   1.00
H72    H     0.56300   0.90900   0.73000   0.01267  Uiso   1.00
H73    H     0.61700   0.02500   0.59700   0.01267  Uiso   1.00
H74    H     0.47300   0.94400   0.66000   0.01267  Uiso   1.00
H75    H     0.55200   0.97300   0.53900   0.01267  Uiso   1.00
H76    H     0.41601   0.40901   0.20498   0.01267  Uiso   1.00
H77    H     0.42801   0.32001   0.29898   0.01267  Uiso   1.00
H78    H     0.52501   0.38001   0.17598   0.01267  Uiso   1.00
H79    H     0.78201   0.65301   0.18198   0.01267  Uiso   1.00
H80    H     0.65500   0.77100   0.28500   0.01267  Uiso   1.00
H81    H     0.77700   0.75700   0.25600   0.01267  Uiso   1.00
H82    H     0.45000   0.63000   0.48000   0.01267  Uiso   1.00
H83    H     0.31300   0.60100   0.57700   0.01267  Uiso   1.00
H84    H     0.17500   0.66100   0.53800   0.01267  Uiso   1.00
H85    H     0.41100   0.75000   0.39600   0.01267  Uiso   1.00
H86    H     0.33100   0.81200   0.41300   0.01267  Uiso   1.00
H87    H     0.29300   0.73000   0.36100   0.01267  Uiso   1.00
H88    H     0.21400   0.59700   0.37800   0.01267  Uiso   1.00
H89    H     0.13300   0.66000   0.39600   0.01267  Uiso   1.00
H90    H     0.09100   0.53900   0.48800   0.01267  Uiso   1.00
C40    C     0.78410   0.33320   0.18570   0.01267  Uiso   1.00
C41    C     0.78169   0.25888   0.27251   0.01267  Uiso   1.00
C42    C     0.70669   0.23338   0.37691   0.01267  Uiso   1.00
C43    C     0.91209   0.22418   0.16971   0.01267  Uiso   1.00
C44    C     0.92300   0.29439   0.08089   0.01267  Uiso   1.00
C45    C     0.99840   0.31010   0.97150   0.01267  Uiso   1.00
C46    C     0.85820   0.35590   0.08210   0.01267  Uiso   1.00
C47    C     0.86240   0.42360   0.98840   0.01267  Uiso   1.00
C48    C     0.80730   0.54740   0.88750   0.01267  Uiso   1.00
C49    C     0.79160   0.64220   0.88780   0.01267  Uiso   1.00
C50    C     0.71760   0.48700   0.86520   0.01267  Uiso   1.00
C51    C     0.73670   0.40040   0.84700   0.01267  Uiso   1.00
C52    C     0.59400   0.43430   0.95860   0.01267  Uiso   1.00
C53    C     0.96980   0.18570   0.48110   0.01267  Uiso   1.00
C54    C     0.05420   0.27251   0.46861   0.01267  Uiso   1.00
C55    C     0.08360   0.37691   0.38971   0.01267  Uiso   1.00
C56    C     0.08180   0.16971   0.60611   0.01267  Uiso   1.00
C57    C     0.00389   0.08089   0.62472   0.01267  Uiso   1.00
C58    C     0.96990   0.97150   0.71840   0.01267  Uiso   1.00
C59    C     0.94030   0.08210   0.56200   0.01267  Uiso   1.00
C60    C     0.85080   0.98840   0.58800   0.01267  Uiso   1.00
C61    C     0.69480   0.88750   0.56510   0.01267  Uiso   1.00
C62    C     0.67940   0.88780   0.47000   0.01267  Uiso   1.00
C63    C     0.58280   0.86520   0.64780   0.01267  Uiso   1.00
C64    C     0.58370   0.84700   0.75260   0.01267  Uiso   1.00
C65    C     0.55260   0.95860   0.60710   0.01267  Uiso   1.00
C66    C     0.45090   0.48110   0.33320   0.01267  Uiso   1.00
C67    C     0.52281   0.46861   0.25888   0.01267  Uiso   1.00
C68    C     0.47331   0.38971   0.23338   0.01267  Uiso   1.00
C69    C     0.68791   0.60611   0.22418   0.01267  Uiso   1.00
C70    C     0.62861   0.62472   0.29439   0.01267  Uiso   1.00
C71    C     0.68830   0.71840   0.31010   0.01267  Uiso   1.00
C72    C     0.50230   0.56200   0.35590   0.01267  Uiso   1.00
C73    C     0.43880   0.58800   0.42360   0.01267  Uiso   1.00
C74    C     0.25990   0.56510   0.54740   0.01267  Uiso   1.00
C75    C     0.14940   0.47000   0.64220   0.01267  Uiso   1.00
C76    C     0.23060   0.64780   0.48700   0.01267  Uiso   1.00
C77    C     0.33630   0.75260   0.40040   0.01267  Uiso   1.00
C78    C     0.15970   0.60710   0.43430   0.01267  Uiso   1.00
N7     N     0.84369   0.20508   0.26461   0.01267  Uiso   1.00
N8     N     0.80680   0.48390   0.98480   0.01267  Uiso   1.00
N9     N     0.10830   0.26461   0.53031   0.01267  Uiso   1.00
N10    N     0.79160   0.98480   0.53130   0.01267  Uiso   1.00
N11    N     0.63861   0.53031   0.20508   0.01267  Uiso   1.00
N12    N     0.32290   0.53130   0.48390   0.01267  Uiso   1.00
O13    O     0.08470   0.41230   0.90000   0.01267  Uiso   1.00
O14    O     0.72020   0.38210   0.19920   0.01267  Uiso   1.00
O15    O     0.75720   0.63420   0.98060   0.01267  Uiso   1.00
O16    O     0.80580   0.71360   0.80950   0.01267  Uiso   1.00
O17    O     0.98470   0.90000   0.68770   0.01267  Uiso   1.00
O18    O     0.91940   0.19920   0.41870   0.01267  Uiso   1.00
O19    O     0.73780   0.98060   0.38520   0.01267  Uiso   1.00
O20    O     0.61530   0.80950   0.47690   0.01267  Uiso   1.00
O21    O     0.67240   0.68770   0.41230   0.01267  Uiso   1.00
O22    O     0.33810   0.41870   0.38210   0.01267  Uiso   1.00
O23    O     0.12300   0.38520   0.63420   0.01267  Uiso   1.00
O24    O     0.09220   0.47690   0.71360   0.01267  Uiso   1.00
