data_BELVEV_charged
_audit_creation_date              2014-07-02
_audit_creation_method            'Materials Studio'
_symmetry_space_group_name_H-M    'P1'
_symmetry_Int_Tables_number       1
_symmetry_cell_setting            triclinic
loop_
_symmetry_equiv_pos_as_xyz
  x,y,z
_cell_length_a                    14.7719
_cell_length_b                    14.7719
_cell_length_c                    23.1284
_cell_angle_alpha                 81.6870
_cell_angle_beta                  78.3919
_cell_angle_gamma                 117.2960
loop_
_atom_site_label
_atom_site_type_symbol
_atom_site_fract_x
_atom_site_fract_y
_atom_site_fract_z
_atom_site_U_iso_or_equiv
_atom_site_adp_type
_atom_site_occupancy
Mn1    Mn    0.43088   0.92619   0.22357   0.01267  Uiso   1.00
Mn2    Mn    0.64976   0.65445   0.27643   0.01267  Uiso   1.00
Mn3    Mn    0.56912   0.07381   0.77643   0.01267  Uiso   1.00
Mn4    Mn    0.35024   0.34555   0.72357   0.01267  Uiso   1.00
Mn5    Mn    0.41984   0.66984   0.25000   0.01267  Uiso   1.00
Mn6    Mn    0.58016   0.33016   0.75000   0.01267  Uiso   1.00
P1     P     0.66950   0.91665   0.84487   0.01267  Uiso   1.00
P2     P     0.26152   0.51437   0.65513   0.01267  Uiso   1.00
P3     P     0.33050   0.08335   0.15513   0.01267  Uiso   1.00
P4     P     0.73848   0.48563   0.34487   0.01267  Uiso   1.00
H1     H     0.57970   0.73200   0.95010   0.01267  Uiso   1.00
H2     H     0.50870   0.70040   0.05510   0.01267  Uiso   1.00
H3     H     0.57260   0.00160   0.02980   0.01267  Uiso   1.00
H4     H     0.63640   0.03160   0.92440   0.01267  Uiso   1.00
H5     H     0.82480   0.01760   0.90760   0.01267  Uiso   1.00
H6     H     0.01090   0.12930   0.87460   0.01267  Uiso   1.00
H7     H     0.02400   0.07720   0.70780   0.01267  Uiso   1.00
H8     H     0.83850   0.97040   0.73930   0.01267  Uiso   1.00
H9     H     0.74930   0.76940   0.84130   0.01267  Uiso   1.00
H10    H     0.69200   0.60990   0.81490   0.01267  Uiso   1.00
H11    H     0.44170   0.62540   0.77950   0.01267  Uiso   1.00
H12    H     0.49830   0.78510   0.80560   0.01267  Uiso   1.00
H13    H     0.18210   0.52980   0.54990   0.01267  Uiso   1.00
H14    H     0.25550   0.56380   0.44490   0.01267  Uiso   1.00
H15    H     0.53140   0.60240   0.47020   0.01267  Uiso   1.00
H16    H     0.45600   0.56080   0.57560   0.01267  Uiso   1.00
H17    H     0.42520   0.73240   0.59240   0.01267  Uiso   1.00
H18    H     0.50390   0.88550   0.62540   0.01267  Uiso   1.00
H19    H     0.28500   0.73180   0.79220   0.01267  Uiso   1.00
H20    H     0.20970   0.57780   0.76070   0.01267  Uiso   1.00
H21    H     0.11070   0.59060   0.65870   0.01267  Uiso   1.00
H22    H     0.92480   0.50690   0.68510   0.01267  Uiso   1.00
H23    H     0.90490   0.22120   0.72050   0.01267  Uiso   1.00
H24    H     0.09070   0.30390   0.69440   0.01267  Uiso   1.00
H25    H     0.42030   0.26800   0.04990   0.01267  Uiso   1.00
H26    H     0.49130   0.29960   0.94490   0.01267  Uiso   1.00
H27    H     0.42740   0.99840   0.97020   0.01267  Uiso   1.00
H28    H     0.36360   0.96840   0.07560   0.01267  Uiso   1.00
H29    H     0.17520   0.98240   0.09240   0.01267  Uiso   1.00
H30    H     0.98910   0.87070   0.12540   0.01267  Uiso   1.00
H31    H     0.97600   0.92280   0.29220   0.01267  Uiso   1.00
H32    H     0.16150   0.02960   0.26070   0.01267  Uiso   1.00
H33    H     0.25070   0.23060   0.15870   0.01267  Uiso   1.00
H34    H     0.30800   0.39010   0.18510   0.01267  Uiso   1.00
H35    H     0.55830   0.37460   0.22050   0.01267  Uiso   1.00
H36    H     0.50170   0.21490   0.19440   0.01267  Uiso   1.00
H37    H     0.81790   0.47020   0.45010   0.01267  Uiso   1.00
H38    H     0.74450   0.43620   0.55510   0.01267  Uiso   1.00
H39    H     0.46860   0.39760   0.52980   0.01267  Uiso   1.00
H40    H     0.54400   0.43920   0.42440   0.01267  Uiso   1.00
H41    H     0.57480   0.26760   0.40760   0.01267  Uiso   1.00
H42    H     0.49610   0.11450   0.37460   0.01267  Uiso   1.00
H43    H     0.71500   0.26820   0.20780   0.01267  Uiso   1.00
H44    H     0.79030   0.42220   0.23930   0.01267  Uiso   1.00
H45    H     0.88930   0.40940   0.34130   0.01267  Uiso   1.00
H46    H     0.07520   0.49310   0.31490   0.01267  Uiso   1.00
H47    H     0.09510   0.77880   0.27950   0.01267  Uiso   1.00
H48    H     0.90930   0.69610   0.30560   0.01267  Uiso   1.00
C1     C     0.61626   0.88567   0.92705   0.01267  Uiso   1.00
C2     C     0.57755   0.78688   0.96617   0.01267  Uiso   1.00
C3     C     0.53597   0.76851   0.02852   0.01267  Uiso   1.00
C4     C     0.53343   0.84765   0.05284   0.01267  Uiso   1.00
C5     C     0.48703   0.82722   0.12115   0.01267  Uiso   1.00
C6     C     0.57268   0.94610   0.01364   0.01267  Uiso   1.00
C7     C     0.61204   0.96437   0.95107   0.01267  Uiso   1.00
C8     C     0.81287   0.98572   0.82607   0.01267  Uiso   1.00
C9     C     0.86466   0.03118   0.86650   0.01267  Uiso   1.00
C10    C     0.97571   0.09714   0.84689   0.01267  Uiso   1.00
C11    C     0.03453   0.11601   0.78780   0.01267  Uiso   1.00
C12    C     0.15268   0.19426   0.76558   0.01267  Uiso   1.00
C13    C     0.98352   0.06699   0.74811   0.01267  Uiso   1.00
C14    C     0.87319   0.00292   0.76705   0.01267  Uiso   1.00
C15    C     0.63011   0.79376   0.82505   0.01267  Uiso   1.00
C16    C     0.68715   0.74065   0.82828   0.01267  Uiso   1.00
C17    C     0.65313   0.64599   0.81256   0.01267  Uiso   1.00
C18    C     0.56299   0.60366   0.79339   0.01267  Uiso   1.00
C19    C     0.52882   0.50204   0.77446   0.01267  Uiso   1.00
C20    C     0.50480   0.65526   0.79152   0.01267  Uiso   1.00
C21    C     0.53829   0.74995   0.80712   0.01267  Uiso   1.00
C22    C     0.31272   0.54331   0.57295   0.01267  Uiso   1.00
C23    C     0.25305   0.54372   0.53383   0.01267  Uiso   1.00
C24    C     0.29703   0.56449   0.47148   0.01267  Uiso   1.00
C25    C     0.40049   0.58627   0.44716   0.01267  Uiso   1.00
C26    C     0.44837   0.60818   0.37885   0.01267  Uiso   1.00
C27    C     0.45974   0.58632   0.48636   0.01267  Uiso   1.00
C28    C     0.41544   0.56311   0.54893   0.01267  Uiso   1.00
C29    C     0.31179   0.63894   0.67393   0.01267  Uiso   1.00
C30    C     0.39768   0.73116   0.63350   0.01267  Uiso   1.00
C31    C     0.44403   0.82260   0.65311   0.01267  Uiso   1.00
C32    C     0.40381   0.82233   0.71220   0.01267  Uiso   1.00
C33    C     0.45984   0.91826   0.73442   0.01267  Uiso   1.00
C34    C     0.31510   0.73163   0.75189   0.01267  Uiso   1.00
C35    C     0.26997   0.64024   0.73295   0.01267  Uiso   1.00
C36    C     0.11881   0.45516   0.67495   0.01267  Uiso   1.00
C37    C     0.06893   0.51543   0.67172   0.01267  Uiso   1.00
C38    C     0.95855   0.46569   0.68744   0.01267  Uiso   1.00
C39    C     0.89705   0.35638   0.70661   0.01267  Uiso   1.00
C40    C     0.77650   0.30328   0.72554   0.01267  Uiso   1.00
C41    C     0.94678   0.29632   0.70848   0.01267  Uiso   1.00
C42    C     0.05707   0.34541   0.69288   0.01267  Uiso   1.00
C43    C     0.38374   0.11433   0.07295   0.01267  Uiso   1.00
C44    C     0.42245   0.21312   0.03383   0.01267  Uiso   1.00
C45    C     0.46403   0.23149   0.97148   0.01267  Uiso   1.00
C46    C     0.46657   0.15235   0.94716   0.01267  Uiso   1.00
C47    C     0.51297   0.17278   0.87885   0.01267  Uiso   1.00
C48    C     0.42732   0.05390   0.98636   0.01267  Uiso   1.00
C49    C     0.38796   0.03563   0.04893   0.01267  Uiso   1.00
C50    C     0.18713   0.01428   0.17393   0.01267  Uiso   1.00
C51    C     0.13534   0.96882   0.13350   0.01267  Uiso   1.00
C52    C     0.02429   0.90286   0.15311   0.01267  Uiso   1.00
C53    C     0.96547   0.88399   0.21220   0.01267  Uiso   1.00
C54    C     0.84732   0.80574   0.23442   0.01267  Uiso   1.00
C55    C     0.01648   0.93301   0.25189   0.01267  Uiso   1.00
C56    C     0.12681   0.99708   0.23295   0.01267  Uiso   1.00
C57    C     0.36989   0.20624   0.17495   0.01267  Uiso   1.00
C58    C     0.31285   0.25935   0.17172   0.01267  Uiso   1.00
C59    C     0.34687   0.35401   0.18744   0.01267  Uiso   1.00
C60    C     0.43701   0.39634   0.20661   0.01267  Uiso   1.00
C61    C     0.47118   0.49796   0.22554   0.01267  Uiso   1.00
C62    C     0.49520   0.34474   0.20848   0.01267  Uiso   1.00
C63    C     0.46171   0.25005   0.19288   0.01267  Uiso   1.00
C64    C     0.68728   0.45669   0.42705   0.01267  Uiso   1.00
C65    C     0.74695   0.45628   0.46617   0.01267  Uiso   1.00
C66    C     0.70297   0.43551   0.52852   0.01267  Uiso   1.00
C67    C     0.59951   0.41373   0.55284   0.01267  Uiso   1.00
C68    C     0.55163   0.39182   0.62115   0.01267  Uiso   1.00
C69    C     0.54026   0.41368   0.51364   0.01267  Uiso   1.00
C70    C     0.58456   0.43689   0.45107   0.01267  Uiso   1.00
C71    C     0.68821   0.36106   0.32607   0.01267  Uiso   1.00
C72    C     0.60232   0.26884   0.36650   0.01267  Uiso   1.00
C73    C     0.55597   0.17740   0.34689   0.01267  Uiso   1.00
C74    C     0.59619   0.17767   0.28780   0.01267  Uiso   1.00
C75    C     0.54016   0.08174   0.26558   0.01267  Uiso   1.00
C76    C     0.68490   0.26837   0.24811   0.01267  Uiso   1.00
C77    C     0.73003   0.35976   0.26705   0.01267  Uiso   1.00
C78    C     0.88119   0.54484   0.32505   0.01267  Uiso   1.00
C79    C     0.93107   0.48457   0.32828   0.01267  Uiso   1.00
C80    C     0.04145   0.53431   0.31256   0.01267  Uiso   1.00
C81    C     0.10295   0.64362   0.29339   0.01267  Uiso   1.00
C82    C     0.22350   0.69672   0.27446   0.01267  Uiso   1.00
C83    C     0.05322   0.70368   0.29152   0.01267  Uiso   1.00
C84    C     0.94293   0.65459   0.30712   0.01267  Uiso   1.00
C85    C     0.59190   0.84190   0.25000   0.01267  Uiso   1.00
C86    C     0.68990   0.93990   0.25000   0.01267  Uiso   1.00
C87    C     0.40810   0.15810   0.75000   0.01267  Uiso   1.00
C88    C     0.31010   0.06010   0.75000   0.01267  Uiso   1.00
O1     O     0.45761   0.73856   0.15401   0.01267  Uiso   1.00
O2     O     0.48123   0.90228   0.13831   0.01267  Uiso   1.00
O3     O     0.19456   0.24807   0.80029   0.01267  Uiso   1.00
O4     O     0.20572   0.20744   0.71198   0.01267  Uiso   1.00
O5     O     0.59259   0.46796   0.77035   0.01267  Uiso   1.00
O6     O     0.44024   0.46096   0.76410   0.01267  Uiso   1.00
O7     O     0.63197   0.98142   0.81263   0.01267  Uiso   1.00
O8     O     0.50344   0.83853   0.26089   0.01267  Uiso   1.00
O9     O     0.39257   0.61162   0.34599   0.01267  Uiso   1.00
O10    O     0.54059   0.61954   0.36169   0.01267  Uiso   1.00
O11    O     0.54836   0.99485   0.69971   0.01267  Uiso   1.00
O12    O     0.41942   0.91770   0.78802   0.01267  Uiso   1.00
O13    O     0.73831   0.36294   0.72965   0.01267  Uiso   1.00
O14    O     0.72506   0.20434   0.73590   0.01267  Uiso   1.00
O15    O     0.29405   0.44460   0.68737   0.01267  Uiso   1.00
O16    O     0.59942   0.76433   0.23911   0.01267  Uiso   1.00
O17    O     0.54239   0.26144   0.84599   0.01267  Uiso   1.00
O18    O     0.51877   0.09772   0.86169   0.01267  Uiso   1.00
O19    O     0.80544   0.75193   0.19971   0.01267  Uiso   1.00
O20    O     0.79428   0.79256   0.28802   0.01267  Uiso   1.00
O21    O     0.40741   0.53204   0.22965   0.01267  Uiso   1.00
O22    O     0.55976   0.53904   0.23590   0.01267  Uiso   1.00
O23    O     0.36803   0.01858   0.18737   0.01267  Uiso   1.00
O24    O     0.49656   0.16147   0.73911   0.01267  Uiso   1.00
O25    O     0.60743   0.38838   0.65401   0.01267  Uiso   1.00
O26    O     0.45941   0.38046   0.63831   0.01267  Uiso   1.00
O27    O     0.45164   0.00515   0.30029   0.01267  Uiso   1.00
O28    O     0.58058   0.08230   0.21198   0.01267  Uiso   1.00
O29    O     0.26169   0.63706   0.27035   0.01267  Uiso   1.00
O30    O     0.27494   0.79566   0.26410   0.01267  Uiso   1.00
O31    O     0.70595   0.55540   0.31263   0.01267  Uiso   1.00
O32    O     0.40058   0.23567   0.76089   0.01267  Uiso   1.00
H49    H     0.72530   0.75480   0.66990   0.01267  Uiso   1.00
H50    H     0.77910   0.79870   0.60220   0.01267  Uiso   1.00
H51    H     0.60220   0.70740   0.62080   0.01267  Uiso   1.00
H52    H     0.60130   0.60620   0.65730   0.01267  Uiso   1.00
H53    H     0.65870   0.65320   0.58490   0.01267  Uiso   1.00
H54    H     0.86780   0.71350   0.64490   0.01267  Uiso   1.00
H55    H     0.81340   0.65310   0.59850   0.01267  Uiso   1.00
H56    H     0.75510   0.60550   0.67080   0.01267  Uiso   1.00
C89    C     0.64310   0.67110   0.62340   0.01267  Uiso   1.00
C90    C     0.79980   0.67090   0.63730   0.01267  Uiso   1.00
N1     N     0.73870   0.73740   0.63370   0.01267  Uiso   1.00
H57    H     0.92470   0.39520   0.83010   0.01267  Uiso   1.00
H58    H     0.90090   0.38130   0.89780   0.01267  Uiso   1.00
H59    H     0.82820   0.22300   0.87920   0.01267  Uiso   1.00
H60    H     0.76350   0.25860   0.84270   0.01267  Uiso   1.00
H61    H     0.73810   0.24360   0.91510   0.01267  Uiso   1.00
H62    H     0.85840   0.51270   0.85510   0.01267  Uiso   1.00
H63    H     0.75160   0.41190   0.90150   0.01267  Uiso   1.00
H64    H     0.77630   0.42590   0.82920   0.01267  Uiso   1.00
C91    C     0.79450   0.26650   0.87660   0.01267  Uiso   1.00
C92    C     0.80820   0.43710   0.86270   0.01267  Uiso   1.00
N2     N     0.87110   0.37240   0.86630   0.01267  Uiso   1.00
H65    H     0.27470   0.24520   0.33010   0.01267  Uiso   1.00
H66    H     0.22090   0.20130   0.39780   0.01267  Uiso   1.00
H67    H     0.39780   0.29260   0.37920   0.01267  Uiso   1.00
H68    H     0.39870   0.39380   0.34270   0.01267  Uiso   1.00
H69    H     0.34130   0.34680   0.41510   0.01267  Uiso   1.00
H70    H     0.13220   0.28650   0.35510   0.01267  Uiso   1.00
H71    H     0.18660   0.34690   0.40150   0.01267  Uiso   1.00
H72    H     0.24490   0.39450   0.32920   0.01267  Uiso   1.00
C93    C     0.35690   0.32890   0.37660   0.01267  Uiso   1.00
C94    C     0.20020   0.32910   0.36270   0.01267  Uiso   1.00
N3     N     0.26130   0.26260   0.36630   0.01267  Uiso   1.00
H73    H     0.07530   0.60480   0.16990   0.01267  Uiso   1.00
H74    H     0.09910   0.61870   0.10220   0.01267  Uiso   1.00
H75    H     0.17180   0.77700   0.12080   0.01267  Uiso   1.00
H76    H     0.23650   0.74140   0.15730   0.01267  Uiso   1.00
H77    H     0.26190   0.75640   0.08490   0.01267  Uiso   1.00
H78    H     0.14160   0.48730   0.14490   0.01267  Uiso   1.00
H79    H     0.24840   0.58810   0.09850   0.01267  Uiso   1.00
H80    H     0.22370   0.57410   0.17080   0.01267  Uiso   1.00
C95    C     0.20550   0.73350   0.12340   0.01267  Uiso   1.00
C96    C     0.19180   0.56290   0.13730   0.01267  Uiso   1.00
N4     N     0.12890   0.62760   0.13370   0.01267  Uiso   1.00
