data_BENXUP_clean
_audit_creation_date              2014-07-02
_audit_creation_method            'Materials Studio'
_symmetry_space_group_name_H-M    'P1'
_symmetry_Int_Tables_number       1
_symmetry_cell_setting            triclinic
loop_
_symmetry_equiv_pos_as_xyz
  x,y,z
_cell_length_a                    9.0050
_cell_length_b                    11.1660
_cell_length_c                    16.6720
_cell_angle_alpha                 108.4470
_cell_angle_beta                  90.0000
_cell_angle_gamma                 113.7800
loop_
_atom_site_label
_atom_site_type_symbol
_atom_site_fract_x
_atom_site_fract_y
_atom_site_fract_z
_atom_site_U_iso_or_equiv
_atom_site_adp_type
_atom_site_occupancy
Zn1    Zn    0.14448   0.67838   0.73249   0.01267  Uiso   1.00
Zn2    Zn    0.46610   0.32162   0.76751   0.01267  Uiso   1.00
Zn3    Zn    0.85552   0.32162   0.26751   0.01267  Uiso   1.00
Zn4    Zn    0.53390   0.67838   0.23249   0.01267  Uiso   1.00
Zn5    Zn    0.24815   1.00000   0.75000   0.01267  Uiso   1.00
Zn6    Zn    0.75185   1.00000   0.25000   0.01267  Uiso   1.00
H1     H     0.93290   0.54400   0.46790   0.01267  Uiso   1.00
H2     H     0.74610   0.86200   0.42360   0.01267  Uiso   1.00
H3     H     0.89320   0.91240   0.55500   0.01267  Uiso   1.00
H4     H     0.79560   0.37580   0.11280   0.01267  Uiso   1.00
H5     H     0.60090   0.44960   0.12270   0.01267  Uiso   1.00
H6     H     0.40530   0.20300   0.10220   0.01267  Uiso   1.00
H7     H     0.48400   0.21400   0.19180   0.01267  Uiso   1.00
H8     H     0.37370   0.29540   0.18980   0.01267  Uiso   1.00
H9     H     0.33200   0.87000   0.81500   0.01267  Uiso   1.00
H10    H     0.38890   0.45600   0.03210   0.01267  Uiso   1.00
H11    H     0.88410   0.13800   0.07640   0.01267  Uiso   1.00
H12    H     0.98080   0.08760   0.94500   0.01267  Uiso   1.00
H13    H     0.41980   0.62420   0.38720   0.01267  Uiso   1.00
H14    H     0.15130   0.55040   0.37730   0.01267  Uiso   1.00
H15    H     0.20230   0.79700   0.39780   0.01267  Uiso   1.00
H16    H     0.27000   0.78600   0.30820   0.01267  Uiso   1.00
H17    H     0.07830   0.70460   0.31020   0.01267  Uiso   1.00
H18    H     0.46200   0.13000   0.68500   0.01267  Uiso   1.00
H19    H     0.06710   0.45600   0.53210   0.01267  Uiso   1.00
H20    H     0.25390   0.13800   0.57640   0.01267  Uiso   1.00
H21    H     0.10680   0.08760   0.44500   0.01267  Uiso   1.00
H22    H     0.20440   0.62420   0.88720   0.01267  Uiso   1.00
H23    H     0.39910   0.55040   0.87730   0.01267  Uiso   1.00
H24    H     0.59470   0.79700   0.89780   0.01267  Uiso   1.00
H25    H     0.51600   0.78600   0.80820   0.01267  Uiso   1.00
H26    H     0.62630   0.70460   0.81020   0.01267  Uiso   1.00
H27    H     0.66800   0.13000   0.18500   0.01267  Uiso   1.00
H28    H     0.61110   0.54400   0.96790   0.01267  Uiso   1.00
H29    H     0.11590   0.86200   0.92360   0.01267  Uiso   1.00
H30    H     0.01920   0.91240   0.05500   0.01267  Uiso   1.00
H31    H     0.58020   0.37580   0.61280   0.01267  Uiso   1.00
H32    H     0.84870   0.44960   0.62270   0.01267  Uiso   1.00
H33    H     0.79770   0.20300   0.60220   0.01267  Uiso   1.00
H34    H     0.73000   0.21400   0.69180   0.01267  Uiso   1.00
H35    H     0.92170   0.29540   0.68980   0.01267  Uiso   1.00
H36    H     0.53800   0.87000   0.31500   0.01267  Uiso   1.00
C1     C     0.89840   0.60900   0.45840   0.01267  Uiso   1.00
C2     C     0.02390   0.77060   0.60680   0.01267  Uiso   1.00
C3     C     0.92920   0.73560   0.52270   0.01267  Uiso   1.00
C4     C     0.78540   0.79920   0.43250   0.01267  Uiso   1.00
C5     C     0.81610   0.58240   0.38070   0.01267  Uiso   1.00
C6     C     0.69740   0.49900   0.24980   0.01267  Uiso   1.00
C7     C     0.75820   0.67400   0.36810   0.01267  Uiso   1.00
C8     C     0.87200   0.82780   0.50970   0.01267  Uiso   1.00
C9     C     0.61950   0.40220   0.16090   0.01267  Uiso   1.00
C10    C     0.45370   0.26460   0.16120   0.01267  Uiso   1.00
C11    C     0.28940   0.39100   0.04160   0.01267  Uiso   1.00
C12    C     0.25330   0.22940   0.89320   0.01267  Uiso   1.00
C13    C     0.19360   0.26440   0.97730   0.01267  Uiso   1.00
C14    C     0.98620   0.20080   0.06750   0.01267  Uiso   1.00
C15    C     0.23370   0.41760   0.11930   0.01267  Uiso   1.00
C16    C     0.19840   0.50100   0.25020   0.01267  Uiso   1.00
C17    C     0.08420   0.32600   0.13190   0.01267  Uiso   1.00
C18    C     0.04420   0.17220   0.99030   0.01267  Uiso   1.00
C19    C     0.21730   0.59780   0.33910   0.01267  Uiso   1.00
C20    C     0.18910   0.73540   0.33880   0.01267  Uiso   1.00
C21    C     0.10160   0.39100   0.54160   0.01267  Uiso   1.00
C22    C     0.97610   0.22940   0.39320   0.01267  Uiso   1.00
C23    C     0.07080   0.26440   0.47730   0.01267  Uiso   1.00
C24    C     0.21460   0.20080   0.56750   0.01267  Uiso   1.00
C25    C     0.18390   0.41760   0.61930   0.01267  Uiso   1.00
C26    C     0.30260   0.50100   0.75020   0.01267  Uiso   1.00
C27    C     0.24180   0.32600   0.63190   0.01267  Uiso   1.00
C28    C     0.12800   0.17220   0.49030   0.01267  Uiso   1.00
C29    C     0.38050   0.59780   0.83910   0.01267  Uiso   1.00
C30    C     0.54630   0.73540   0.83880   0.01267  Uiso   1.00
C31    C     0.71060   0.60900   0.95840   0.01267  Uiso   1.00
C32    C     0.74670   0.77060   0.10680   0.01267  Uiso   1.00
C33    C     0.80640   0.73560   0.02270   0.01267  Uiso   1.00
C34    C     0.01380   0.79920   0.93250   0.01267  Uiso   1.00
C35    C     0.76630   0.58240   0.88070   0.01267  Uiso   1.00
C36    C     0.80160   0.49900   0.74980   0.01267  Uiso   1.00
C37    C     0.91580   0.67400   0.86810   0.01267  Uiso   1.00
C38    C     0.95580   0.82780   0.00970   0.01267  Uiso   1.00
C39    C     0.78270   0.40220   0.66090   0.01267  Uiso   1.00
C40    C     0.81090   0.26460   0.66120   0.01267  Uiso   1.00
N1     N     0.77630   0.46980   0.30390   0.01267  Uiso   1.00
N2     N     0.67940   0.61800   0.28350   0.01267  Uiso   1.00
N3     N     0.30650   0.53020   0.19610   0.01267  Uiso   1.00
N4     N     0.06140   0.38200   0.21650   0.01267  Uiso   1.00
N5     N     0.22370   0.53020   0.69610   0.01267  Uiso   1.00
N6     N     0.32060   0.38200   0.71650   0.01267  Uiso   1.00
N7     N     0.69350   0.46980   0.80390   0.01267  Uiso   1.00
N8     N     0.93860   0.61800   0.78350   0.01267  Uiso   1.00
O1     O     0.05580   0.88940   0.66200   0.01267  Uiso   1.00
O2     O     0.30070   0.87060   0.78080   0.01267  Uiso   1.00
O3     O     0.07010   0.68520   0.61880   0.01267  Uiso   1.00
O4     O     0.71170   0.32620   0.12880   0.01267  Uiso   1.00
O5     O     0.16640   0.11060   0.83800   0.01267  Uiso   1.00
O6     O     0.43010   0.12940   0.71920   0.01267  Uiso   1.00
O7     O     0.38490   0.31480   0.88120   0.01267  Uiso   1.00
O8     O     0.38550   0.67380   0.37120   0.01267  Uiso   1.00
O9     O     0.94420   0.11060   0.33800   0.01267  Uiso   1.00
O10    O     0.69930   0.12940   0.21920   0.01267  Uiso   1.00
O11    O     0.92990   0.31480   0.38120   0.01267  Uiso   1.00
O12    O     0.28830   0.67380   0.87120   0.01267  Uiso   1.00
O13    O     0.83360   0.88940   0.16200   0.01267  Uiso   1.00
O14    O     0.56990   0.87060   0.28080   0.01267  Uiso   1.00
O15    O     0.61510   0.68520   0.11880   0.01267  Uiso   1.00
O16    O     0.61450   0.32620   0.62880   0.01267  Uiso   1.00
