data_image0
_cell_length_a       9.809
_cell_length_b       11.058
_cell_length_c       11.698
_cell_angle_alpha    81.23
_cell_angle_beta     81.57
_cell_angle_gamma    81.25

_symmetry_space_group_name_H-M    "P 1"
_symmetry_int_tables_number       1

loop_
  _symmetry_equiv_pos_as_xyz
  'x, y, z'

loop_
  _atom_site_label
  _atom_site_occupancy
  _atom_site_fract_x
  _atom_site_fract_y
  _atom_site_fract_z
  _atom_site_thermal_displace_type
  _atom_site_B_iso_or_equiv
  _atom_site_type_symbol
  Ba1      1.0000 0.94137  0.32467  0.99549  Biso   1.000  Ba
  C1       1.0000 0.97880  0.34610  0.46000  Biso   1.000  C
  C2       1.0000 0.98590  0.24520  0.54930  Biso   1.000  C
  C3       1.0000 0.98060  0.27200  0.66450  Biso   1.000  C
  C4       1.0000 0.99590  0.09700  0.40870  Biso   1.000  C
  H1       1.0000 0.99310  0.16200  0.34810  Biso   1.000  H
  C5       1.0000 0.99260  0.12200  0.52560  Biso   1.000  C
  C6       1.0000 0.99700  0.02040  0.61510  Biso   1.000  C
  H2       1.0000 0.99490  0.03420  0.69180  Biso   1.000  H
  N1       1.0000 0.97480  0.29340  0.75750  Biso   1.000  N
  N2       1.0000 0.97080  0.42590  0.38520  Biso   1.000  N
  O1       1.0000 0.93551  0.55422  0.85595  Biso   1.000  O
  H3       1.0000 0.98370  0.55140  0.78960  Biso   1.000  H
  H4       1.0000 0.85530  0.59120  0.84400  Biso   1.000  H
  C7       1.0000 0.57450  0.39390  0.85480  Biso   1.000  C
  C8       1.0000 0.45780  0.39750  0.79420  Biso   1.000  C
  C9       1.0000 0.32470  0.41890  0.85850  Biso   1.000  C
  C10      1.0000 0.47230  0.37330  0.67680  Biso   1.000  C
  C11      1.0000 0.35530  0.36860  0.62060  Biso   1.000  C
  H5       1.0000 0.26680  0.38220  0.66130  Biso   1.000  H
  C12      1.0000 0.36890  0.34470  0.50790  Biso   1.000  C
  H6       1.0000 0.28970  0.34290  0.47340  Biso   1.000  H
  C13      1.0000 0.50210  0.32270  0.44280  Biso   1.000  C
  C14      1.0000 0.61810  0.32690  0.49980  Biso   1.000  C
  H7       1.0000 0.70680  0.31320  0.45930  Biso   1.000  H
  C15      1.0000 0.60460  0.35040  0.61180  Biso   1.000  C
  H8       1.0000 0.68400  0.35140  0.64630  Biso   1.000  H
  C16      1.0000 0.51850  0.29850  0.32590  Biso   1.000  C
  C17      1.0000 0.40410  0.29020  0.26860  Biso   1.000  C
  C18      1.0000 0.65050  0.28050  0.25970  Biso   1.000  C
  N3       1.0000 0.66800  0.39030  0.90240  Biso   1.000  N
  N4       1.0000 0.21600  0.43530  0.90880  Biso   1.000  N
  N5       1.0000 0.31030  0.28520  0.22250  Biso   1.000  N
  N6       1.0000 0.75700  0.26810  0.20570  Biso   1.000  N
  Ba2      1.0000 0.05863  0.67533  0.00451  Biso   1.000  Ba
  C19      1.0000 0.02120  0.65390  0.54000  Biso   1.000  C
  C20      1.0000 0.01410  0.75480  0.45070  Biso   1.000  C
  C21      1.0000 0.01940  0.72800  0.33550  Biso   1.000  C
  C22      1.0000 0.00410  0.90300  0.59130  Biso   1.000  C
  H9       1.0000 0.00690  0.83800  0.65190  Biso   1.000  H
  C23      1.0000 0.00740  0.87800  0.47440  Biso   1.000  C
  C24      1.0000 0.00300  0.97960  0.38490  Biso   1.000  C
  H10      1.0000 0.00510  0.96580  0.30820  Biso   1.000  H
  N7       1.0000 0.02520  0.70660  0.24250  Biso   1.000  N
  N8       1.0000 0.02920  0.57410  0.61480  Biso   1.000  N
  O2       1.0000 0.06449  0.44578  0.14405  Biso   1.000  O
  H11      1.0000 0.01630  0.44860  0.21040  Biso   1.000  H
  H12      1.0000 0.14470  0.40880  0.15600  Biso   1.000  H
  C25      1.0000 0.42550  0.60610  0.14520  Biso   1.000  C
  C26      1.0000 0.54220  0.60250  0.20580  Biso   1.000  C
  C27      1.0000 0.67530  0.58110  0.14150  Biso   1.000  C
  C28      1.0000 0.52770  0.62670  0.32320  Biso   1.000  C
  C29      1.0000 0.64470  0.63140  0.37940  Biso   1.000  C
  H13      1.0000 0.73320  0.61780  0.33870  Biso   1.000  H
  C30      1.0000 0.63110  0.65530  0.49210  Biso   1.000  C
  H14      1.0000 0.71030  0.65710  0.52660  Biso   1.000  H
  C31      1.0000 0.49790  0.67730  0.55720  Biso   1.000  C
  C32      1.0000 0.38190  0.67310  0.50020  Biso   1.000  C
  H15      1.0000 0.29320  0.68680  0.54070  Biso   1.000  H
  C33      1.0000 0.39540  0.64960  0.38820  Biso   1.000  C
  H16      1.0000 0.31600  0.64860  0.35370  Biso   1.000  H
  C34      1.0000 0.48150  0.70150  0.67410  Biso   1.000  C
  C35      1.0000 0.59590  0.70980  0.73140  Biso   1.000  C
  C36      1.0000 0.34950  0.71950  0.74030  Biso   1.000  C
  N9       1.0000 0.33200  0.60970  0.09760  Biso   1.000  N
  N10      1.0000 0.78400  0.56470  0.09120  Biso   1.000  N
  N11      1.0000 0.68970  0.71480  0.77750  Biso   1.000  N
  N12      1.0000 0.24300  0.73190  0.79430  Biso   1.000  N
