data_image0
_cell_length_a       9.781
_cell_length_b       11.007
_cell_length_c       11.382
_cell_angle_alpha    80.46
_cell_angle_beta     82.42
_cell_angle_gamma    81.98

_symmetry_space_group_name_H-M    "P 1"
_symmetry_int_tables_number       1

loop_
  _symmetry_equiv_pos_as_xyz
  'x, y, z'

loop_
  _atom_site_label
  _atom_site_occupancy
  _atom_site_fract_x
  _atom_site_fract_y
  _atom_site_fract_z
  _atom_site_thermal_displace_type
  _atom_site_B_iso_or_equiv
  _atom_site_type_symbol
  Sr1      1.0000 0.92863  0.33728  0.99727  Biso   1.000  Sr
  C1       1.0000 0.57960  0.39310  0.85820  Biso   1.000  C
  C2       1.0000 0.46130  0.39650  0.79700  Biso   1.000  C
  C3       1.0000 0.32920  0.41610  0.86290  Biso   1.000  C
  C4       1.0000 0.47530  0.37220  0.67730  Biso   1.000  C
  C5       1.0000 0.35610  0.36390  0.61960  Biso   1.000  C
  H1       1.0000 0.26810  0.37450  0.66160  Biso   1.000  H
  C6       1.0000 0.36890  0.34100  0.50530  Biso   1.000  C
  H2       1.0000 0.28940  0.33590  0.47050  Biso   1.000  H
  C7       1.0000 0.50070  0.32450  0.43720  Biso   1.000  C
  C8       1.0000 0.61900  0.33210  0.49560  Biso   1.000  C
  H3       1.0000 0.70710  0.32160  0.45380  Biso   1.000  H
  C9       1.0000 0.60650  0.35410  0.60990  Biso   1.000  C
  H4       1.0000 0.68620  0.35740  0.64510  Biso   1.000  H
  C10      1.0000 0.51620  0.30120  0.31720  Biso   1.000  C
  C11      1.0000 0.40030  0.29240  0.25880  Biso   1.000  C
  C12      1.0000 0.64830  0.28720  0.24980  Biso   1.000  C
  C13      1.0000 0.98020  0.34690  0.46430  Biso   1.000  C
  C14      1.0000 0.98870  0.24280  0.55610  Biso   1.000  C
  C15      1.0000 0.98760  0.26900  0.67420  Biso   1.000  C
  C16      1.0000 0.99460  0.10130  0.40880  Biso   1.000  C
  H5       1.0000 0.99140  0.16890  0.34770  Biso   1.000  H
  C17      1.0000 0.99460  0.12180  0.52850  Biso   1.000  C
  C18      1.0000 0.00100  0.01600  0.61880  Biso   1.000  C
  H6       1.0000 0.00210  0.02650  0.69810  Biso   1.000  H
  N1       1.0000 0.67690  0.39120  0.90510  Biso   1.000  N
  N2       1.0000 0.22060  0.43410  0.91260  Biso   1.000  N
  N3       1.0000 0.30460  0.28590  0.21330  Biso   1.000  N
  N4       1.0000 0.75550  0.27810  0.19620  Biso   1.000  N
  N5       1.0000 0.98600  0.29230  0.76870  Biso   1.000  N
  N6       1.0000 0.97200  0.42640  0.38650  Biso   1.000  N
  O1       1.0000 0.94559  0.55238  0.86221  Biso   1.000  O
  H7       1.0000 0.99380  0.54960  0.79590  Biso   1.000  H
  H8       1.0000 0.86540  0.58930  0.85030  Biso   1.000  H
  Sr2      1.0000 0.07137  0.66272  0.00273  Biso   1.000  Sr
  C19      1.0000 0.42040  0.60690  0.14180  Biso   1.000  C
  C20      1.0000 0.53870  0.60350  0.20300  Biso   1.000  C
  C21      1.0000 0.67080  0.58390  0.13710  Biso   1.000  C
  C22      1.0000 0.52470  0.62780  0.32270  Biso   1.000  C
  C23      1.0000 0.64390  0.63610  0.38040  Biso   1.000  C
  H9       1.0000 0.73190  0.62550  0.33840  Biso   1.000  H
  C24      1.0000 0.63110  0.65900  0.49470  Biso   1.000  C
  H10      1.0000 0.71060  0.66410  0.52950  Biso   1.000  H
  C25      1.0000 0.49930  0.67550  0.56280  Biso   1.000  C
  C26      1.0000 0.38100  0.66790  0.50440  Biso   1.000  C
  H11      1.0000 0.29290  0.67840  0.54620  Biso   1.000  H
  C27      1.0000 0.39350  0.64590  0.39010  Biso   1.000  C
  H12      1.0000 0.31380  0.64260  0.35490  Biso   1.000  H
  C28      1.0000 0.48380  0.69880  0.68280  Biso   1.000  C
  C29      1.0000 0.59970  0.70760  0.74120  Biso   1.000  C
  C30      1.0000 0.35170  0.71280  0.75020  Biso   1.000  C
  C31      1.0000 0.01980  0.65310  0.53570  Biso   1.000  C
  C32      1.0000 0.01130  0.75720  0.44390  Biso   1.000  C
  C33      1.0000 0.01240  0.73100  0.32580  Biso   1.000  C
  C34      1.0000 0.00540  0.89870  0.59120  Biso   1.000  C
  H13      1.0000 0.00860  0.83110  0.65230  Biso   1.000  H
  C35      1.0000 0.00540  0.87820  0.47150  Biso   1.000  C
  C36      1.0000 0.99900  0.98400  0.38120  Biso   1.000  C
  H14      1.0000 0.99790  0.97350  0.30190  Biso   1.000  H
  N7       1.0000 0.32310  0.60880  0.09490  Biso   1.000  N
  N8       1.0000 0.77940  0.56590  0.08740  Biso   1.000  N
  N9       1.0000 0.69540  0.71410  0.78670  Biso   1.000  N
  N10      1.0000 0.24450  0.72190  0.80380  Biso   1.000  N
  N11      1.0000 0.01400  0.70770  0.23130  Biso   1.000  N
  N12      1.0000 0.02800  0.57360  0.61350  Biso   1.000  N
  O2       1.0000 0.05441  0.44762  0.13779  Biso   1.000  O
  H15      1.0000 0.00620  0.45040  0.20410  Biso   1.000  H
  H16      1.0000 0.13460  0.41070  0.14970  Biso   1.000  H
