data_image0
_cell_length_a       9.493
_cell_length_b       11.242
_cell_length_c       11.27
_cell_angle_alpha    82.89
_cell_angle_beta     83.8
_cell_angle_gamma    77.68

_symmetry_space_group_name_H-M    "P 1"
_symmetry_int_tables_number       1

loop_
  _symmetry_equiv_pos_as_xyz
  'x, y, z'

loop_
  _atom_site_label
  _atom_site_occupancy
  _atom_site_fract_x
  _atom_site_fract_y
  _atom_site_fract_z
  _atom_site_thermal_displace_type
  _atom_site_B_iso_or_equiv
  _atom_site_type_symbol
  Ca1      1.0000 0.97459  0.33006  0.97779  Biso   1.000  Ca
  C1       1.0000 0.59970  0.39420  0.84850  Biso   1.000  C
  C2       1.0000 0.48130  0.38350  0.78560  Biso   1.000  C
  C3       1.0000 0.34740  0.37710  0.85070  Biso   1.000  C
  C4       1.0000 0.50120  0.36800  0.66040  Biso   1.000  C
  C5       1.0000 0.38850  0.34080  0.60070  Biso   1.000  C
  H1       1.0000 0.30110  0.33340  0.64400  Biso   1.000  H
  C6       1.0000 0.40630  0.32540  0.48210  Biso   1.000  C
  H2       1.0000 0.33130  0.30670  0.44590  Biso   1.000  H
  C7       1.0000 0.53790  0.33740  0.41200  Biso   1.000  C
  C8       1.0000 0.64990  0.36370  0.47150  Biso   1.000  C
  H3       1.0000 0.73740  0.37110  0.42840  Biso   1.000  H
  C9       1.0000 0.63190  0.37850  0.59110  Biso   1.000  C
  H4       1.0000 0.70740  0.39580  0.62770  Biso   1.000  H
  C10      1.0000 0.55730  0.32300  0.28790  Biso   1.000  C
  C11      1.0000 0.44360  0.30080  0.22650  Biso   1.000  C
  C12      1.0000 0.68980  0.32660  0.21860  Biso   1.000  C
  C13      1.0000 0.02240  0.33290  0.45030  Biso   1.000  C
  C14      1.0000 0.01620  0.23950  0.54430  Biso   1.000  C
  C15      1.0000 0.01330  0.27100  0.66260  Biso   1.000  C
  C16      1.0000 0.00690  0.08940  0.40390  Biso   1.000  C
  H5       1.0000 0.01130  0.14960  0.33990  Biso   1.000  H
  C17      1.0000 0.00810  0.11880  0.52290  Biso   1.000  C
  C18      1.0000 0.00060  0.02480  0.61760  Biso   1.000  C
  H6       1.0000 0.00080  0.04180  0.69620  Biso   1.000  H
  N1       1.0000 0.69970  0.39920  0.89690  Biso   1.000  N
  N2       1.0000 0.23590  0.37070  0.89820  Biso   1.000  N
  N3       1.0000 0.34990  0.28390  0.17970  Biso   1.000  N
  N4       1.0000 0.79850  0.32730  0.16110  Biso   1.000  N
  N5       1.0000 0.01000  0.29560  0.75920  Biso   1.000  N
  N6       1.0000 0.02580  0.40570  0.36980  Biso   1.000  N
  O1       1.0000 0.93360  0.54510  0.88556  Biso   1.000  O
  H7       1.0000 0.98280  0.54220  0.81790  Biso   1.000  H
  H8       1.0000 0.84860  0.58420  0.87290  Biso   1.000  H
  Ca2      1.0000 0.02541  0.66994  0.02221  Biso   1.000  Ca
  C19      1.0000 0.40030  0.60580  0.15150  Biso   1.000  C
  C20      1.0000 0.51870  0.61650  0.21440  Biso   1.000  C
  C21      1.0000 0.65260  0.62290  0.14930  Biso   1.000  C
  C22      1.0000 0.49880  0.63200  0.33960  Biso   1.000  C
  C23      1.0000 0.61150  0.65920  0.39930  Biso   1.000  C
  H9       1.0000 0.69890  0.66660  0.35600  Biso   1.000  H
  C24      1.0000 0.59370  0.67460  0.51790  Biso   1.000  C
  H10      1.0000 0.66870  0.69330  0.55410  Biso   1.000  H
  C25      1.0000 0.46210  0.66260  0.58800  Biso   1.000  C
  C26      1.0000 0.35010  0.63630  0.52850  Biso   1.000  C
  H11      1.0000 0.26260  0.62890  0.57160  Biso   1.000  H
  C27      1.0000 0.36810  0.62150  0.40890  Biso   1.000  C
  H12      1.0000 0.29260  0.60420  0.37230  Biso   1.000  H
  C28      1.0000 0.44270  0.67700  0.71210  Biso   1.000  C
  C29      1.0000 0.55640  0.69920  0.77350  Biso   1.000  C
  C30      1.0000 0.31020  0.67340  0.78140  Biso   1.000  C
  C31      1.0000 0.97760  0.66710  0.54970  Biso   1.000  C
  C32      1.0000 0.98380  0.76050  0.45570  Biso   1.000  C
  C33      1.0000 0.98670  0.72900  0.33740  Biso   1.000  C
  C34      1.0000 0.99310  0.91060  0.59610  Biso   1.000  C
  H13      1.0000 0.98870  0.85040  0.66010  Biso   1.000  H
  C35      1.0000 0.99190  0.88120  0.47710  Biso   1.000  C
  C36      1.0000 0.99940  0.97520  0.38240  Biso   1.000  C
  H14      1.0000 0.99920  0.95820  0.30380  Biso   1.000  H
  N7       1.0000 0.30030  0.60080  0.10310  Biso   1.000  N
  N8       1.0000 0.76410  0.62930  0.10180  Biso   1.000  N
  N9       1.0000 0.65010  0.71610  0.82030  Biso   1.000  N
  N10      1.0000 0.20150  0.67270  0.83890  Biso   1.000  N
  N11      1.0000 0.99000  0.70440  0.24080  Biso   1.000  N
  N12      1.0000 0.97420  0.59430  0.63020  Biso   1.000  N
  O2       1.0000 0.06640  0.45490  0.11444  Biso   1.000  O
  H15      1.0000 0.01720  0.45780  0.18210  Biso   1.000  H
  H16      1.0000 0.15140  0.41580  0.12710  Biso   1.000  H
