data_image0
_cell_length_a       25.117
_cell_length_b       5.7802
_cell_length_c       21.993
_cell_angle_alpha    90
_cell_angle_beta     120.744
_cell_angle_gamma    90

_symmetry_space_group_name_H-M    "P 1"
_symmetry_int_tables_number       1

loop_
  _symmetry_equiv_pos_as_xyz
  'x, y, z'

loop_
  _atom_site_label
  _atom_site_occupancy
  _atom_site_fract_x
  _atom_site_fract_y
  _atom_site_fract_z
  _atom_site_thermal_displace_type
  _atom_site_B_iso_or_equiv
  _atom_site_type_symbol
  C1       1.0000 0.52590  0.37600  0.38410  Biso   1.000  C
  H1       1.0000 0.54630  0.51650  0.39970  Biso   1.000  H
  C2       1.0000 0.52400  0.26800  0.32850  Biso   1.000  C
  H2       1.0000 0.54620  0.32900  0.30890  Biso   1.000  H
  C3       1.0000 0.48870  0.06280  0.29930  Biso   1.000  C
  C4       1.0000 0.46090  0.97500  0.33330  Biso   1.000  C
  H3       1.0000 0.43840  0.83810  0.31690  Biso   1.000  H
  C5       1.0000 0.46530  0.08200  0.39100  Biso   1.000  C
  H4       1.0000 0.44490  0.01670  0.41210  Biso   1.000  H
  C6       1.0000 0.48480  0.95600  0.23470  Biso   1.000  C
  H5       1.0000 0.49480  0.79300  0.24290  Biso   1.000  H
  H6       1.0000 0.51480  0.02970  0.22560  Biso   1.000  H
  C7       1.0000 0.41460  0.88280  0.10560  Biso   1.000  C
  H7       1.0000 0.43300  0.72790  0.11660  Biso   1.000  H
  C8       1.0000 0.44850  0.03360  0.07890  Biso   1.000  C
  C9       1.0000 0.34590  0.86500  0.04790  Biso   1.000  C
  H8       1.0000 0.32540  0.78550  0.06980  Biso   1.000  H
  C10      1.0000 0.33660  0.71200  0.98710  Biso   1.000  C
  H9       1.0000 0.33850  0.80470  0.95200  Biso   1.000  H
  H10      1.0000 0.29690  0.63770  0.96640  Biso   1.000  H
  H11      1.0000 0.36860  0.59640  0.00440  Biso   1.000  H
  C11      1.0000 0.31270  0.09700  0.02110  Biso   1.000  C
  H12      1.0000 0.33060  0.18010  0.99820  Biso   1.000  H
  H13      1.0000 0.31710  0.18550  0.06030  Biso   1.000  H
  H14      1.0000 0.26950  0.06990  0.98800  Biso   1.000  H
  C12      1.0000 0.12920  0.85000  0.10950  Biso   1.000  C
  H15      1.0000 0.11700  0.97750  0.07940  Biso   1.000  H
  C13      1.0000 0.18870  0.85100  0.16870  Biso   1.000  C
  H16      1.0000 0.21430  0.97880  0.17850  Biso   1.000  H
  C14      1.0000 0.20970  0.66000  0.21280  Biso   1.000  C
  C15      1.0000 0.16850  0.48100  0.19500  Biso   1.000  C
  H17      1.0000 0.18040  0.34910  0.22310  Biso   1.000  H
  C16      1.0000 0.11010  0.49300  0.13650  Biso   1.000  C
  H18      1.0000 0.08390  0.36700  0.12600  Biso   1.000  H
  C17      1.0000 0.27180  0.66300  0.27720  Biso   1.000  C
  H19      1.0000 0.29390  0.80110  0.27750  Biso   1.000  H
  H20      1.0000 0.29530  0.52940  0.27740  Biso   1.000  H
  C18      1.0000 0.32390  0.74890  0.40700  Biso   1.000  C
  H21      1.0000 0.33530  0.89750  0.39530  Biso   1.000  H
  C19      1.0000 0.37710  0.57850  0.42820  Biso   1.000  C
  C20      1.0000 0.31030  0.78710  0.46600  Biso   1.000  C
  H22      1.0000 0.27070  0.87050  0.44430  Biso   1.000  H
  C21      1.0000 0.35760  0.94800  0.52370  Biso   1.000  C
  H23      1.0000 0.33920  0.02070  0.54770  Biso   1.000  H
  H24      1.0000 0.37040  0.06380  0.50260  Biso   1.000  H
  H25      1.0000 0.39300  0.85920  0.55700  Biso   1.000  H
  C22      1.0000 0.29990  0.56500  0.49620  Biso   1.000  C
  H26      1.0000 0.33600  0.46860  0.51410  Biso   1.000  H
  H27      1.0000 0.26470  0.48420  0.45950  Biso   1.000  H
  H28      1.0000 0.29260  0.60270  0.53380  Biso   1.000  H
  N1       1.0000 0.49740  0.27780  0.41860  Biso   1.000  N
  N2       1.0000 0.42000  0.98650  0.17070  Biso   1.000  N
  H29      1.0000 0.39240  0.91910  0.17940  Biso   1.000  H
  H30      1.0000 0.41100  0.13830  0.16330  Biso   1.000  H
  N3       1.0000 0.08880  0.68000  0.09350  Biso   1.000  N
  N4       1.0000 0.26630  0.65950  0.34220  Biso   1.000  N
  H31      1.0000 0.25900  0.51360  0.35030  Biso   1.000  H
  H32      1.0000 0.23370  0.74680  0.33440  Biso   1.000  H
  O1       1.0000 0.43070  0.67480  0.46840  Biso   1.000  O
  O2       1.0000 0.36690  0.37700  0.41000  Biso   1.000  O
  O3       1.0000 0.46600  0.92540  0.04170  Biso   1.000  O
  O4       1.0000 0.45710  0.24410  0.09360  Biso   1.000  O
  C23      1.0000 0.02590  0.87600  0.38410  Biso   1.000  C
  H33      1.0000 0.04630  0.01650  0.39970  Biso   1.000  H
  C24      1.0000 0.02400  0.76800  0.32850  Biso   1.000  C
  H34      1.0000 0.04620  0.82900  0.30890  Biso   1.000  H
  C25      1.0000 0.98870  0.56280  0.29930  Biso   1.000  C
  C26      1.0000 0.96090  0.47500  0.33330  Biso   1.000  C
  H35      1.0000 0.93840  0.33810  0.31690  Biso   1.000  H
  C27      1.0000 0.96530  0.58200  0.39100  Biso   1.000  C
  H36      1.0000 0.94490  0.51670  0.41210  Biso   1.000  H
  C28      1.0000 0.98480  0.45600  0.23470  Biso   1.000  C
  H37      1.0000 0.99480  0.29300  0.24290  Biso   1.000  H
  H38      1.0000 0.01480  0.52970  0.22560  Biso   1.000  H
  C29      1.0000 0.91460  0.38280  0.10560  Biso   1.000  C
  H39      1.0000 0.93300  0.22790  0.11660  Biso   1.000  H
  C30      1.0000 0.94850  0.53360  0.07890  Biso   1.000  C
  C31      1.0000 0.84590  0.36500  0.04790  Biso   1.000  C
  H40      1.0000 0.82540  0.28550  0.06980  Biso   1.000  H
  C32      1.0000 0.83660  0.21200  0.98710  Biso   1.000  C
  H41      1.0000 0.83850  0.30470  0.95200  Biso   1.000  H
  H42      1.0000 0.79690  0.13770  0.96640  Biso   1.000  H
  H43      1.0000 0.86860  0.09640  0.00440  Biso   1.000  H
  C33      1.0000 0.81270  0.59700  0.02110  Biso   1.000  C
  H44      1.0000 0.83060  0.68010  0.99820  Biso   1.000  H
  H45      1.0000 0.81710  0.68550  0.06030  Biso   1.000  H
  H46      1.0000 0.76950  0.56990  0.98800  Biso   1.000  H
  C34      1.0000 0.62920  0.35000  0.10950  Biso   1.000  C
  H47      1.0000 0.61700  0.47750  0.07940  Biso   1.000  H
  C35      1.0000 0.68870  0.35100  0.16870  Biso   1.000  C
  H48      1.0000 0.71430  0.47880  0.17850  Biso   1.000  H
  C36      1.0000 0.70970  0.16000  0.21280  Biso   1.000  C
  C37      1.0000 0.66850  0.98100  0.19500  Biso   1.000  C
  H49      1.0000 0.68040  0.84910  0.22310  Biso   1.000  H
  C38      1.0000 0.61010  0.99300  0.13650  Biso   1.000  C
  H50      1.0000 0.58390  0.86700  0.12600  Biso   1.000  H
  C39      1.0000 0.77180  0.16300  0.27720  Biso   1.000  C
  H51      1.0000 0.79390  0.30110  0.27750  Biso   1.000  H
  H52      1.0000 0.79530  0.02940  0.27740  Biso   1.000  H
  C40      1.0000 0.82390  0.24890  0.40700  Biso   1.000  C
  H53      1.0000 0.83530  0.39750  0.39530  Biso   1.000  H
  C41      1.0000 0.87710  0.07850  0.42820  Biso   1.000  C
  C42      1.0000 0.81030  0.28710  0.46600  Biso   1.000  C
  H54      1.0000 0.77070  0.37050  0.44430  Biso   1.000  H
  C43      1.0000 0.85760  0.44800  0.52370  Biso   1.000  C
  H55      1.0000 0.83920  0.52070  0.54770  Biso   1.000  H
  H56      1.0000 0.87040  0.56380  0.50260  Biso   1.000  H
  H57      1.0000 0.89300  0.35920  0.55700  Biso   1.000  H
  C44      1.0000 0.79990  0.06500  0.49620  Biso   1.000  C
  H58      1.0000 0.83600  0.96860  0.51410  Biso   1.000  H
  H59      1.0000 0.76470  0.98420  0.45950  Biso   1.000  H
  H60      1.0000 0.79260  0.10270  0.53380  Biso   1.000  H
  N5       1.0000 0.99740  0.77780  0.41860  Biso   1.000  N
  N6       1.0000 0.92000  0.48650  0.17070  Biso   1.000  N
  H61      1.0000 0.89240  0.41910  0.17940  Biso   1.000  H
  H62      1.0000 0.91100  0.63830  0.16330  Biso   1.000  H
  N7       1.0000 0.58880  0.18000  0.09350  Biso   1.000  N
  N8       1.0000 0.76630  0.15950  0.34220  Biso   1.000  N
  H63      1.0000 0.75900  0.01360  0.35030  Biso   1.000  H
  H64      1.0000 0.73370  0.24680  0.33440  Biso   1.000  H
  O5       1.0000 0.93070  0.17480  0.46840  Biso   1.000  O
  O6       1.0000 0.86690  0.87700  0.41000  Biso   1.000  O
  O7       1.0000 0.96600  0.42540  0.04170  Biso   1.000  O
  O8       1.0000 0.95710  0.74410  0.09360  Biso   1.000  O
  C45      1.0000 0.47410  0.37600  0.61590  Biso   1.000  C
  H65      1.0000 0.45370  0.51650  0.60030  Biso   1.000  H
  C46      1.0000 0.47600  0.26800  0.67150  Biso   1.000  C
  H66      1.0000 0.45380  0.32900  0.69110  Biso   1.000  H
  C47      1.0000 0.51130  0.06280  0.70070  Biso   1.000  C
  C48      1.0000 0.53910  0.97500  0.66670  Biso   1.000  C
  H67      1.0000 0.56160  0.83810  0.68310  Biso   1.000  H
  C49      1.0000 0.53470  0.08200  0.60900  Biso   1.000  C
  H68      1.0000 0.55510  0.01670  0.58790  Biso   1.000  H
  C50      1.0000 0.51520  0.95600  0.76530  Biso   1.000  C
  H69      1.0000 0.50520  0.79300  0.75710  Biso   1.000  H
  H70      1.0000 0.48520  0.02970  0.77440  Biso   1.000  H
  C51      1.0000 0.58540  0.88280  0.89440  Biso   1.000  C
  H71      1.0000 0.56700  0.72790  0.88340  Biso   1.000  H
  C52      1.0000 0.55150  0.03360  0.92110  Biso   1.000  C
  C53      1.0000 0.65410  0.86500  0.95210  Biso   1.000  C
  H72      1.0000 0.67460  0.78550  0.93020  Biso   1.000  H
  C54      1.0000 0.66340  0.71200  0.01290  Biso   1.000  C
  H73      1.0000 0.66150  0.80470  0.04800  Biso   1.000  H
  H74      1.0000 0.70310  0.63770  0.03360  Biso   1.000  H
  H75      1.0000 0.63140  0.59640  0.99560  Biso   1.000  H
  C55      1.0000 0.68730  0.09700  0.97890  Biso   1.000  C
  H76      1.0000 0.66940  0.18010  0.00180  Biso   1.000  H
  H77      1.0000 0.68290  0.18550  0.93970  Biso   1.000  H
  H78      1.0000 0.73050  0.06990  0.01200  Biso   1.000  H
  C56      1.0000 0.87080  0.85000  0.89050  Biso   1.000  C
  H79      1.0000 0.88300  0.97750  0.92060  Biso   1.000  H
  C57      1.0000 0.81130  0.85100  0.83130  Biso   1.000  C
  H80      1.0000 0.78570  0.97880  0.82150  Biso   1.000  H
  C58      1.0000 0.79030  0.66000  0.78720  Biso   1.000  C
  C59      1.0000 0.83150  0.48100  0.80500  Biso   1.000  C
  H81      1.0000 0.81960  0.34910  0.77690  Biso   1.000  H
  C60      1.0000 0.88990  0.49300  0.86350  Biso   1.000  C
  H82      1.0000 0.91610  0.36700  0.87400  Biso   1.000  H
  C61      1.0000 0.72820  0.66300  0.72280  Biso   1.000  C
  H83      1.0000 0.70610  0.80110  0.72250  Biso   1.000  H
  H84      1.0000 0.70470  0.52940  0.72260  Biso   1.000  H
  C62      1.0000 0.67610  0.74890  0.59300  Biso   1.000  C
  H85      1.0000 0.66470  0.89750  0.60470  Biso   1.000  H
  C63      1.0000 0.62290  0.57850  0.57180  Biso   1.000  C
  C64      1.0000 0.68970  0.78710  0.53400  Biso   1.000  C
  H86      1.0000 0.72930  0.87050  0.55570  Biso   1.000  H
  C65      1.0000 0.64240  0.94800  0.47630  Biso   1.000  C
  H87      1.0000 0.66080  0.02070  0.45230  Biso   1.000  H
  H88      1.0000 0.62960  0.06380  0.49740  Biso   1.000  H
  H89      1.0000 0.60700  0.85920  0.44300  Biso   1.000  H
  C66      1.0000 0.70010  0.56500  0.50380  Biso   1.000  C
  H90      1.0000 0.66400  0.46860  0.48590  Biso   1.000  H
  H91      1.0000 0.73530  0.48420  0.54050  Biso   1.000  H
  H92      1.0000 0.70740  0.60270  0.46620  Biso   1.000  H
  N9       1.0000 0.50260  0.27780  0.58140  Biso   1.000  N
  N10      1.0000 0.58000  0.98650  0.82930  Biso   1.000  N
  H93      1.0000 0.60760  0.91910  0.82060  Biso   1.000  H
  H94      1.0000 0.58900  0.13830  0.83670  Biso   1.000  H
  N11      1.0000 0.91120  0.68000  0.90650  Biso   1.000  N
  N12      1.0000 0.73370  0.65950  0.65780  Biso   1.000  N
  H95      1.0000 0.74100  0.51360  0.64970  Biso   1.000  H
  H96      1.0000 0.76630  0.74680  0.66560  Biso   1.000  H
  O9       1.0000 0.56930  0.67480  0.53160  Biso   1.000  O
  O10      1.0000 0.63310  0.37700  0.59000  Biso   1.000  O
  O11      1.0000 0.53400  0.92540  0.95830  Biso   1.000  O
  O12      1.0000 0.54290  0.24410  0.90640  Biso   1.000  O
  C67      1.0000 0.97410  0.87600  0.61590  Biso   1.000  C
  H97      1.0000 0.95370  0.01650  0.60030  Biso   1.000  H
  C68      1.0000 0.97600  0.76800  0.67150  Biso   1.000  C
  H98      1.0000 0.95380  0.82900  0.69110  Biso   1.000  H
  C69      1.0000 0.01130  0.56280  0.70070  Biso   1.000  C
  C70      1.0000 0.03910  0.47500  0.66670  Biso   1.000  C
  H99      1.0000 0.06160  0.33810  0.68310  Biso   1.000  H
  C71      1.0000 0.03470  0.58200  0.60900  Biso   1.000  C
  H100     1.0000 0.05510  0.51670  0.58790  Biso   1.000  H
  C72      1.0000 0.01520  0.45600  0.76530  Biso   1.000  C
  H101     1.0000 0.00520  0.29300  0.75710  Biso   1.000  H
  H102     1.0000 0.98520  0.52970  0.77440  Biso   1.000  H
  C73      1.0000 0.08540  0.38280  0.89440  Biso   1.000  C
  H103     1.0000 0.06700  0.22790  0.88340  Biso   1.000  H
  C74      1.0000 0.05150  0.53360  0.92110  Biso   1.000  C
  C75      1.0000 0.15410  0.36500  0.95210  Biso   1.000  C
  H104     1.0000 0.17460  0.28550  0.93020  Biso   1.000  H
  C76      1.0000 0.16340  0.21200  0.01290  Biso   1.000  C
  H105     1.0000 0.16150  0.30470  0.04800  Biso   1.000  H
  H106     1.0000 0.20310  0.13770  0.03360  Biso   1.000  H
  H107     1.0000 0.13140  0.09640  0.99560  Biso   1.000  H
  C77      1.0000 0.18730  0.59700  0.97890  Biso   1.000  C
  H108     1.0000 0.16940  0.68010  0.00180  Biso   1.000  H
  H109     1.0000 0.18290  0.68550  0.93970  Biso   1.000  H
  H110     1.0000 0.23050  0.56990  0.01200  Biso   1.000  H
  C78      1.0000 0.37080  0.35000  0.89050  Biso   1.000  C
  H111     1.0000 0.38300  0.47750  0.92060  Biso   1.000  H
  C79      1.0000 0.31130  0.35100  0.83130  Biso   1.000  C
  H112     1.0000 0.28570  0.47880  0.82150  Biso   1.000  H
  C80      1.0000 0.29030  0.16000  0.78720  Biso   1.000  C
  C81      1.0000 0.33150  0.98100  0.80500  Biso   1.000  C
  H113     1.0000 0.31960  0.84910  0.77690  Biso   1.000  H
  C82      1.0000 0.38990  0.99300  0.86350  Biso   1.000  C
  H114     1.0000 0.41610  0.86700  0.87400  Biso   1.000  H
  C83      1.0000 0.22820  0.16300  0.72280  Biso   1.000  C
  H115     1.0000 0.20610  0.30110  0.72250  Biso   1.000  H
  H116     1.0000 0.20470  0.02940  0.72260  Biso   1.000  H
  C84      1.0000 0.17610  0.24890  0.59300  Biso   1.000  C
  H117     1.0000 0.16470  0.39750  0.60470  Biso   1.000  H
  C85      1.0000 0.12290  0.07850  0.57180  Biso   1.000  C
  C86      1.0000 0.18970  0.28710  0.53400  Biso   1.000  C
  H118     1.0000 0.22930  0.37050  0.55570  Biso   1.000  H
  C87      1.0000 0.14240  0.44800  0.47630  Biso   1.000  C
  H119     1.0000 0.16080  0.52070  0.45230  Biso   1.000  H
  H120     1.0000 0.12960  0.56380  0.49740  Biso   1.000  H
  H121     1.0000 0.10700  0.35920  0.44300  Biso   1.000  H
  C88      1.0000 0.20010  0.06500  0.50380  Biso   1.000  C
  H122     1.0000 0.16400  0.96860  0.48590  Biso   1.000  H
  H123     1.0000 0.23530  0.98420  0.54050  Biso   1.000  H
  H124     1.0000 0.20740  0.10270  0.46620  Biso   1.000  H
  N13      1.0000 0.00260  0.77780  0.58140  Biso   1.000  N
  N14      1.0000 0.08000  0.48650  0.82930  Biso   1.000  N
  H125     1.0000 0.10760  0.41910  0.82060  Biso   1.000  H
  H126     1.0000 0.08900  0.63830  0.83670  Biso   1.000  H
  N15      1.0000 0.41120  0.18000  0.90650  Biso   1.000  N
  N16      1.0000 0.23370  0.15950  0.65780  Biso   1.000  N
  H127     1.0000 0.24100  0.01360  0.64970  Biso   1.000  H
  H128     1.0000 0.26630  0.24680  0.66560  Biso   1.000  H
  O13      1.0000 0.06930  0.17480  0.53160  Biso   1.000  O
  O14      1.0000 0.13310  0.87700  0.59000  Biso   1.000  O
  O15      1.0000 0.03400  0.42540  0.95830  Biso   1.000  O
  O16      1.0000 0.04290  0.74410  0.90640  Biso   1.000  O
  Zn1      1.0000 0.50000  0.16900  0.00000  Biso   1.000  Zn
  Zn2      1.0000 0.00000  0.66900  0.00000  Biso   1.000  Zn
  Zn3      1.0000 0.50000  0.45090  0.50000  Biso   1.000  Zn
  Zn4      1.0000 0.00000  0.95090  0.50000  Biso   1.000  Zn
