data_BEPROF_clean
_audit_creation_date              2014-07-02
_audit_creation_method            'Materials Studio'
_symmetry_space_group_name_H-M    'P1'
_symmetry_Int_Tables_number       1
_symmetry_cell_setting            triclinic
loop_
_symmetry_equiv_pos_as_xyz
  x,y,z
_cell_length_a                    18.7145
_cell_length_b                    18.7145
_cell_length_c                    18.7145
_cell_angle_alpha                 99.4097
_cell_angle_beta                  99.4097
_cell_angle_gamma                 99.4097
loop_
_atom_site_label
_atom_site_type_symbol
_atom_site_fract_x
_atom_site_fract_y
_atom_site_fract_z
_atom_site_U_iso_or_equiv
_atom_site_adp_type
_atom_site_occupancy
Ni1    Ni    0.25000   0.18019   0.31981   0.01267  Uiso   1.00
Ni2    Ni    0.31981   0.25000   0.18019   0.01267  Uiso   1.00
Ni3    Ni    0.18019   0.31981   0.25000   0.01267  Uiso   1.00
Ni4    Ni    0.75000   0.81981   0.68019   0.01267  Uiso   1.00
Ni5    Ni    0.68019   0.75000   0.81981   0.01267  Uiso   1.00
Ni6    Ni    0.81981   0.68019   0.75000   0.01267  Uiso   1.00
H1     H     0.44720   0.72330   0.69690   0.01267  Uiso   1.00
H2     H     0.33470   0.76020   0.66300   0.01267  Uiso   1.00
H3     H     0.45010   0.95150   0.63470   0.01267  Uiso   1.00
H4     H     0.55940   0.91120   0.66080   0.01267  Uiso   1.00
H5     H     0.35640   0.94570   0.54940   0.01267  Uiso   1.00
H6     H     0.18450   0.07430   0.53450   0.01267  Uiso   1.00
H7     H     0.18500   0.15060   0.45260   0.01267  Uiso   1.00
H8     H     0.69690   0.44720   0.72330   0.01267  Uiso   1.00
H9     H     0.66300   0.33470   0.76020   0.01267  Uiso   1.00
H10    H     0.63470   0.45010   0.95150   0.01267  Uiso   1.00
H11    H     0.66080   0.55940   0.91120   0.01267  Uiso   1.00
H12    H     0.54940   0.35640   0.94570   0.01267  Uiso   1.00
H13    H     0.53450   0.18450   0.07430   0.01267  Uiso   1.00
H14    H     0.45260   0.18500   0.15060   0.01267  Uiso   1.00
H15    H     0.72330   0.69690   0.44720   0.01267  Uiso   1.00
H16    H     0.76020   0.66300   0.33470   0.01267  Uiso   1.00
H17    H     0.95150   0.63470   0.45010   0.01267  Uiso   1.00
H18    H     0.91120   0.66080   0.55940   0.01267  Uiso   1.00
H19    H     0.94570   0.54940   0.35640   0.01267  Uiso   1.00
H20    H     0.07430   0.53450   0.18450   0.01267  Uiso   1.00
H21    H     0.15060   0.45260   0.18500   0.01267  Uiso   1.00
H22    H     0.77670   0.05280   0.80310   0.01267  Uiso   1.00
H23    H     0.73980   0.16530   0.83700   0.01267  Uiso   1.00
H24    H     0.54850   0.04990   0.86530   0.01267  Uiso   1.00
H25    H     0.58880   0.94060   0.83920   0.01267  Uiso   1.00
H26    H     0.55430   0.14360   0.95060   0.01267  Uiso   1.00
H27    H     0.42570   0.31550   0.96550   0.01267  Uiso   1.00
H28    H     0.34940   0.31500   0.04740   0.01267  Uiso   1.00
H29    H     0.05280   0.80310   0.77670   0.01267  Uiso   1.00
H30    H     0.16530   0.83700   0.73980   0.01267  Uiso   1.00
H31    H     0.04990   0.86530   0.54850   0.01267  Uiso   1.00
H32    H     0.94060   0.83920   0.58880   0.01267  Uiso   1.00
H33    H     0.14360   0.95060   0.55430   0.01267  Uiso   1.00
H34    H     0.31550   0.96550   0.42570   0.01267  Uiso   1.00
H35    H     0.31500   0.04740   0.34940   0.01267  Uiso   1.00
H36    H     0.80310   0.77670   0.05280   0.01267  Uiso   1.00
H37    H     0.83700   0.73980   0.16530   0.01267  Uiso   1.00
H38    H     0.86530   0.54850   0.04990   0.01267  Uiso   1.00
H39    H     0.83920   0.58880   0.94060   0.01267  Uiso   1.00
H40    H     0.95060   0.55430   0.14360   0.01267  Uiso   1.00
H41    H     0.96550   0.42570   0.31550   0.01267  Uiso   1.00
H42    H     0.04740   0.34940   0.31500   0.01267  Uiso   1.00
H43    H     0.55280   0.27670   0.30310   0.01267  Uiso   1.00
H44    H     0.66530   0.23980   0.33700   0.01267  Uiso   1.00
H45    H     0.54990   0.04850   0.36530   0.01267  Uiso   1.00
H46    H     0.44060   0.08880   0.33920   0.01267  Uiso   1.00
H47    H     0.64360   0.05430   0.45060   0.01267  Uiso   1.00
H48    H     0.81550   0.92570   0.46550   0.01267  Uiso   1.00
H49    H     0.81500   0.84940   0.54740   0.01267  Uiso   1.00
H50    H     0.30310   0.55280   0.27670   0.01267  Uiso   1.00
H51    H     0.33700   0.66530   0.23980   0.01267  Uiso   1.00
H52    H     0.36530   0.54990   0.04850   0.01267  Uiso   1.00
H53    H     0.33920   0.44060   0.08880   0.01267  Uiso   1.00
H54    H     0.45060   0.64360   0.05430   0.01267  Uiso   1.00
H55    H     0.46550   0.81550   0.92570   0.01267  Uiso   1.00
H56    H     0.54740   0.81500   0.84940   0.01267  Uiso   1.00
H57    H     0.27670   0.30310   0.55280   0.01267  Uiso   1.00
H58    H     0.23980   0.33700   0.66530   0.01267  Uiso   1.00
H59    H     0.04850   0.36530   0.54990   0.01267  Uiso   1.00
H60    H     0.08880   0.33920   0.44060   0.01267  Uiso   1.00
H61    H     0.05430   0.45060   0.64360   0.01267  Uiso   1.00
H62    H     0.92570   0.46550   0.81550   0.01267  Uiso   1.00
H63    H     0.84940   0.54740   0.81500   0.01267  Uiso   1.00
H64    H     0.22330   0.94720   0.19690   0.01267  Uiso   1.00
H65    H     0.26020   0.83470   0.16300   0.01267  Uiso   1.00
H66    H     0.45150   0.95010   0.13470   0.01267  Uiso   1.00
H67    H     0.41120   0.05940   0.16080   0.01267  Uiso   1.00
H68    H     0.44570   0.85640   0.04940   0.01267  Uiso   1.00
H69    H     0.57430   0.68450   0.03450   0.01267  Uiso   1.00
H70    H     0.65060   0.68500   0.95260   0.01267  Uiso   1.00
H71    H     0.94720   0.19690   0.22330   0.01267  Uiso   1.00
H72    H     0.83470   0.16300   0.26020   0.01267  Uiso   1.00
H73    H     0.95010   0.13470   0.45150   0.01267  Uiso   1.00
H74    H     0.05940   0.16080   0.41120   0.01267  Uiso   1.00
H75    H     0.85640   0.04940   0.44570   0.01267  Uiso   1.00
H76    H     0.68450   0.03450   0.57430   0.01267  Uiso   1.00
H77    H     0.68500   0.95260   0.65060   0.01267  Uiso   1.00
H78    H     0.19690   0.22330   0.94720   0.01267  Uiso   1.00
H79    H     0.16300   0.26020   0.83470   0.01267  Uiso   1.00
H80    H     0.13470   0.45150   0.95010   0.01267  Uiso   1.00
H81    H     0.16080   0.41120   0.05940   0.01267  Uiso   1.00
H82    H     0.04940   0.44570   0.85640   0.01267  Uiso   1.00
H83    H     0.03450   0.57430   0.68450   0.01267  Uiso   1.00
H84    H     0.95260   0.65060   0.68500   0.01267  Uiso   1.00
C1     C     0.58560   0.78490   0.69340   0.01267  Uiso   1.00
C2     C     0.51450   0.81090   0.67790   0.01267  Uiso   1.00
C3     C     0.44760   0.76900   0.68110   0.01267  Uiso   1.00
C4     C     0.37990   0.79130   0.66200   0.01267  Uiso   1.00
C5     C     0.38020   0.85900   0.64200   0.01267  Uiso   1.00
C6     C     0.44860   0.90320   0.64460   0.01267  Uiso   1.00
C7     C     0.51410   0.87980   0.66100   0.01267  Uiso   1.00
C8     C     0.31090   0.88390   0.61560   0.01267  Uiso   1.00
C9     C     0.31210   0.93120   0.56650   0.01267  Uiso   1.00
C10    C     0.21160   0.06700   0.49610   0.01267  Uiso   1.00
C11    C     0.21270   0.11230   0.44760   0.01267  Uiso   1.00
C12    C     0.69340   0.58560   0.78490   0.01267  Uiso   1.00
C13    C     0.67790   0.51450   0.81090   0.01267  Uiso   1.00
C14    C     0.68110   0.44760   0.76900   0.01267  Uiso   1.00
C15    C     0.66200   0.37990   0.79130   0.01267  Uiso   1.00
C16    C     0.64200   0.38020   0.85900   0.01267  Uiso   1.00
C17    C     0.64460   0.44860   0.90320   0.01267  Uiso   1.00
C18    C     0.66100   0.51410   0.87980   0.01267  Uiso   1.00
C19    C     0.61560   0.31090   0.88390   0.01267  Uiso   1.00
C20    C     0.56650   0.31210   0.93120   0.01267  Uiso   1.00
C21    C     0.49610   0.21160   0.06700   0.01267  Uiso   1.00
C22    C     0.44760   0.21270   0.11230   0.01267  Uiso   1.00
C23    C     0.78490   0.69340   0.58560   0.01267  Uiso   1.00
C24    C     0.81090   0.67790   0.51450   0.01267  Uiso   1.00
C25    C     0.76900   0.68110   0.44760   0.01267  Uiso   1.00
C26    C     0.79130   0.66200   0.37990   0.01267  Uiso   1.00
C27    C     0.85900   0.64200   0.38020   0.01267  Uiso   1.00
C28    C     0.90320   0.64460   0.44860   0.01267  Uiso   1.00
C29    C     0.87980   0.66100   0.51410   0.01267  Uiso   1.00
C30    C     0.88390   0.61560   0.31090   0.01267  Uiso   1.00
C31    C     0.93120   0.56650   0.31210   0.01267  Uiso   1.00
C32    C     0.06700   0.49610   0.21160   0.01267  Uiso   1.00
C33    C     0.11230   0.44760   0.21270   0.01267  Uiso   1.00
C34    C     0.71510   0.91440   0.80660   0.01267  Uiso   1.00
C35    C     0.68910   0.98550   0.82210   0.01267  Uiso   1.00
C36    C     0.73100   0.05240   0.81890   0.01267  Uiso   1.00
C37    C     0.70870   0.12010   0.83800   0.01267  Uiso   1.00
C38    C     0.64100   0.11980   0.85800   0.01267  Uiso   1.00
C39    C     0.59680   0.05140   0.85540   0.01267  Uiso   1.00
C40    C     0.62020   0.98590   0.83900   0.01267  Uiso   1.00
C41    C     0.61610   0.18910   0.88440   0.01267  Uiso   1.00
C42    C     0.56880   0.18790   0.93350   0.01267  Uiso   1.00
C43    C     0.43300   0.28840   0.00390   0.01267  Uiso   1.00
C44    C     0.38770   0.28730   0.05240   0.01267  Uiso   1.00
C45    C     0.91440   0.80660   0.71510   0.01267  Uiso   1.00
C46    C     0.98550   0.82210   0.68910   0.01267  Uiso   1.00
C47    C     0.05240   0.81890   0.73100   0.01267  Uiso   1.00
C48    C     0.12010   0.83800   0.70870   0.01267  Uiso   1.00
C49    C     0.11980   0.85800   0.64100   0.01267  Uiso   1.00
C50    C     0.05140   0.85540   0.59680   0.01267  Uiso   1.00
C51    C     0.98590   0.83900   0.62020   0.01267  Uiso   1.00
C52    C     0.18910   0.88440   0.61610   0.01267  Uiso   1.00
C53    C     0.18790   0.93350   0.56880   0.01267  Uiso   1.00
C54    C     0.28840   0.00390   0.43300   0.01267  Uiso   1.00
C55    C     0.28730   0.05240   0.38770   0.01267  Uiso   1.00
C56    C     0.80660   0.71510   0.91440   0.01267  Uiso   1.00
C57    C     0.82210   0.68910   0.98550   0.01267  Uiso   1.00
C58    C     0.81890   0.73100   0.05240   0.01267  Uiso   1.00
C59    C     0.83800   0.70870   0.12010   0.01267  Uiso   1.00
C60    C     0.85800   0.64100   0.11980   0.01267  Uiso   1.00
C61    C     0.85540   0.59680   0.05140   0.01267  Uiso   1.00
C62    C     0.83900   0.62020   0.98590   0.01267  Uiso   1.00
C63    C     0.88440   0.61610   0.18910   0.01267  Uiso   1.00
C64    C     0.93350   0.56880   0.18790   0.01267  Uiso   1.00
C65    C     0.00390   0.43300   0.28840   0.01267  Uiso   1.00
C66    C     0.05240   0.38770   0.28730   0.01267  Uiso   1.00
C67    C     0.41440   0.21510   0.30660   0.01267  Uiso   1.00
C68    C     0.48550   0.18910   0.32210   0.01267  Uiso   1.00
C69    C     0.55240   0.23100   0.31890   0.01267  Uiso   1.00
C70    C     0.62010   0.20870   0.33800   0.01267  Uiso   1.00
C71    C     0.61980   0.14100   0.35800   0.01267  Uiso   1.00
C72    C     0.55140   0.09680   0.35540   0.01267  Uiso   1.00
C73    C     0.48590   0.12020   0.33900   0.01267  Uiso   1.00
C74    C     0.68910   0.11610   0.38440   0.01267  Uiso   1.00
C75    C     0.68790   0.06880   0.43350   0.01267  Uiso   1.00
C76    C     0.78840   0.93300   0.50390   0.01267  Uiso   1.00
C77    C     0.78730   0.88770   0.55240   0.01267  Uiso   1.00
C78    C     0.30660   0.41440   0.21510   0.01267  Uiso   1.00
C79    C     0.32210   0.48550   0.18910   0.01267  Uiso   1.00
C80    C     0.31890   0.55240   0.23100   0.01267  Uiso   1.00
C81    C     0.33800   0.62010   0.20870   0.01267  Uiso   1.00
C82    C     0.35800   0.61980   0.14100   0.01267  Uiso   1.00
C83    C     0.35540   0.55140   0.09680   0.01267  Uiso   1.00
C84    C     0.33900   0.48590   0.12020   0.01267  Uiso   1.00
C85    C     0.38440   0.68910   0.11610   0.01267  Uiso   1.00
C86    C     0.43350   0.68790   0.06880   0.01267  Uiso   1.00
C87    C     0.50390   0.78840   0.93300   0.01267  Uiso   1.00
C88    C     0.55240   0.78730   0.88770   0.01267  Uiso   1.00
C89    C     0.21510   0.30660   0.41440   0.01267  Uiso   1.00
C90    C     0.18910   0.32210   0.48550   0.01267  Uiso   1.00
C91    C     0.23100   0.31890   0.55240   0.01267  Uiso   1.00
C92    C     0.20870   0.33800   0.62010   0.01267  Uiso   1.00
C93    C     0.14100   0.35800   0.61980   0.01267  Uiso   1.00
C94    C     0.09680   0.35540   0.55140   0.01267  Uiso   1.00
C95    C     0.12020   0.33900   0.48590   0.01267  Uiso   1.00
C96    C     0.11610   0.38440   0.68910   0.01267  Uiso   1.00
C97    C     0.06880   0.43350   0.68790   0.01267  Uiso   1.00
C98    C     0.93300   0.50390   0.78840   0.01267  Uiso   1.00
C99    C     0.88770   0.55240   0.78730   0.01267  Uiso   1.00
C100   C     0.28490   0.08560   0.19340   0.01267  Uiso   1.00
C101   C     0.31090   0.01450   0.17790   0.01267  Uiso   1.00
C102   C     0.26900   0.94760   0.18110   0.01267  Uiso   1.00
C103   C     0.29130   0.87990   0.16200   0.01267  Uiso   1.00
C104   C     0.35900   0.88020   0.14200   0.01267  Uiso   1.00
C105   C     0.40320   0.94860   0.14460   0.01267  Uiso   1.00
C106   C     0.37980   0.01410   0.16100   0.01267  Uiso   1.00
C107   C     0.38390   0.81090   0.11560   0.01267  Uiso   1.00
C108   C     0.43120   0.81210   0.06650   0.01267  Uiso   1.00
C109   C     0.56700   0.71160   0.99610   0.01267  Uiso   1.00
C110   C     0.61230   0.71270   0.94760   0.01267  Uiso   1.00
C111   C     0.08560   0.19340   0.28490   0.01267  Uiso   1.00
C112   C     0.01450   0.17790   0.31090   0.01267  Uiso   1.00
C113   C     0.94760   0.18110   0.26900   0.01267  Uiso   1.00
C114   C     0.87990   0.16200   0.29130   0.01267  Uiso   1.00
C115   C     0.88020   0.14200   0.35900   0.01267  Uiso   1.00
C116   C     0.94860   0.14460   0.40320   0.01267  Uiso   1.00
C117   C     0.01410   0.16100   0.37980   0.01267  Uiso   1.00
C118   C     0.81090   0.11560   0.38390   0.01267  Uiso   1.00
C119   C     0.81210   0.06650   0.43120   0.01267  Uiso   1.00
C120   C     0.71160   0.99610   0.56700   0.01267  Uiso   1.00
C121   C     0.71270   0.94760   0.61230   0.01267  Uiso   1.00
C122   C     0.19340   0.28490   0.08560   0.01267  Uiso   1.00
C123   C     0.17790   0.31090   0.01450   0.01267  Uiso   1.00
C124   C     0.18110   0.26900   0.94760   0.01267  Uiso   1.00
C125   C     0.16200   0.29130   0.87990   0.01267  Uiso   1.00
C126   C     0.14200   0.35900   0.88020   0.01267  Uiso   1.00
C127   C     0.14460   0.40320   0.94860   0.01267  Uiso   1.00
C128   C     0.16100   0.37980   0.01410   0.01267  Uiso   1.00
C129   C     0.11560   0.38390   0.81090   0.01267  Uiso   1.00
C130   C     0.06650   0.43120   0.81210   0.01267  Uiso   1.00
C131   C     0.99610   0.56700   0.71160   0.01267  Uiso   1.00
C132   C     0.94760   0.61230   0.71270   0.01267  Uiso   1.00
C133   C     0.25000   0.95805   0.54195   0.01267  Uiso   1.00
C134   C     0.25000   0.00935   0.49065   0.01267  Uiso   1.00
C135   C     0.54195   0.25000   0.95805   0.01267  Uiso   1.00
C136   C     0.49065   0.25000   0.00935   0.01267  Uiso   1.00
C137   C     0.95805   0.54195   0.25000   0.01267  Uiso   1.00
C138   C     0.00935   0.49065   0.25000   0.01267  Uiso   1.00
C139   C     0.75000   0.04195   0.45805   0.01267  Uiso   1.00
C140   C     0.75000   0.99065   0.50935   0.01267  Uiso   1.00
C141   C     0.45805   0.75000   0.04195   0.01267  Uiso   1.00
C142   C     0.50935   0.75000   0.99065   0.01267  Uiso   1.00
C143   C     0.04195   0.45805   0.75000   0.01267  Uiso   1.00
C144   C     0.99065   0.50935   0.75000   0.01267  Uiso   1.00
N1     N     0.25000   0.10715   0.39285   0.01267  Uiso   1.00
N2     N     0.25000   0.85995   0.64005   0.01267  Uiso   1.00
N3     N     0.39285   0.25000   0.10715   0.01267  Uiso   1.00
N4     N     0.64005   0.25000   0.85995   0.01267  Uiso   1.00
N5     N     0.10715   0.39285   0.25000   0.01267  Uiso   1.00
N6     N     0.85995   0.64005   0.25000   0.01267  Uiso   1.00
N7     N     0.75000   0.89285   0.60715   0.01267  Uiso   1.00
N8     N     0.75000   0.14005   0.35995   0.01267  Uiso   1.00
N9     N     0.60715   0.75000   0.89285   0.01267  Uiso   1.00
N10    N     0.35995   0.75000   0.14005   0.01267  Uiso   1.00
N11    N     0.89285   0.60715   0.75000   0.01267  Uiso   1.00
N12    N     0.14005   0.35995   0.75000   0.01267  Uiso   1.00
O1     O     0.59040   0.73707   0.73325   0.01267  Uiso   1.00
O2     O     0.63683   0.81506   0.66604   0.01267  Uiso   1.00
O3     O     0.73325   0.59040   0.73707   0.01267  Uiso   1.00
O4     O     0.66604   0.63683   0.81506   0.01267  Uiso   1.00
O5     O     0.73707   0.73325   0.59040   0.01267  Uiso   1.00
O6     O     0.81506   0.66604   0.63683   0.01267  Uiso   1.00
O7     O     0.76293   0.90960   0.76675   0.01267  Uiso   1.00
O8     O     0.68494   0.86317   0.83396   0.01267  Uiso   1.00
O9     O     0.90960   0.76675   0.76293   0.01267  Uiso   1.00
O10    O     0.86317   0.83396   0.68494   0.01267  Uiso   1.00
O11    O     0.76675   0.76293   0.90960   0.01267  Uiso   1.00
O12    O     0.83396   0.68494   0.86317   0.01267  Uiso   1.00
O13    O     0.40960   0.26293   0.26675   0.01267  Uiso   1.00
O14    O     0.36317   0.18494   0.33396   0.01267  Uiso   1.00
O15    O     0.26675   0.40960   0.26293   0.01267  Uiso   1.00
O16    O     0.33396   0.36317   0.18494   0.01267  Uiso   1.00
O17    O     0.26293   0.26675   0.40960   0.01267  Uiso   1.00
O18    O     0.18494   0.33396   0.36317   0.01267  Uiso   1.00
O19    O     0.23707   0.09040   0.23325   0.01267  Uiso   1.00
O20    O     0.31506   0.13683   0.16604   0.01267  Uiso   1.00
O21    O     0.09040   0.23325   0.23707   0.01267  Uiso   1.00
O22    O     0.13683   0.16604   0.31506   0.01267  Uiso   1.00
O23    O     0.23325   0.23707   0.09040   0.01267  Uiso   1.00
O24    O     0.16604   0.31506   0.13683   0.01267  Uiso   1.00
O25    O     0.25000   0.25000   0.25000   0.01267  Uiso   1.00
O26    O     0.75000   0.75000   0.75000   0.01267  Uiso   1.00
