data_BEPVID_clean
_audit_creation_date              2014-07-02
_audit_creation_method            'Materials Studio'
_symmetry_space_group_name_H-M    'P1'
_symmetry_Int_Tables_number       1
_symmetry_cell_setting            triclinic
loop_
_symmetry_equiv_pos_as_xyz
  x,y,z
_cell_length_a                    11.4569
_cell_length_b                    11.4723
_cell_length_c                    13.1199
_cell_angle_alpha                 90.1760
_cell_angle_beta                  115.7050
_cell_angle_gamma                 110.1470
loop_
_atom_site_label
_atom_site_type_symbol
_atom_site_fract_x
_atom_site_fract_y
_atom_site_fract_z
_atom_site_U_iso_or_equiv
_atom_site_adp_type
_atom_site_occupancy
Cu1    Cu    0.82917   0.87972   0.59108   0.01267  Uiso   1.00
Cu2    Cu    0.13897   0.04955   0.00474   0.01267  Uiso   1.00
Cu3    Cu    0.35496   0.81607   0.29581   0.01267  Uiso   1.00
Cu4    Cu    0.17083   0.12028   0.40892   0.01267  Uiso   1.00
Cu5    Cu    0.86103   0.95045   0.99526   0.01267  Uiso   1.00
Cu6    Cu    0.64504   0.18393   0.70419   0.01267  Uiso   1.00
H1     H     0.55510   0.33930   0.40100   0.01267  Uiso   1.00
H2     H     0.58460   0.47850   0.37960   0.01267  Uiso   1.00
H3     H     0.48970   0.42010   0.43840   0.01267  Uiso   1.00
H4     H     0.38490   0.19010   0.22810   0.01267  Uiso   1.00
H5     H     0.12900   0.89490   0.70270   0.01267  Uiso   1.00
H6     H     0.99440   0.28590   0.00400   0.01267  Uiso   1.00
H7     H     0.09000   0.41930   0.99890   0.01267  Uiso   1.00
H8     H     0.07220   0.29780   0.92910   0.01267  Uiso   1.00
H9     H     0.39920   0.59330   0.28600   0.01267  Uiso   1.00
H10    H     0.27570   0.57600   0.16390   0.01267  Uiso   1.00
H11    H     0.12920   0.35630   0.29130   0.01267  Uiso   1.00
H12    H     0.99660   0.37790   0.37720   0.01267  Uiso   1.00
H13    H     0.00010   0.57460   0.41920   0.01267  Uiso   1.00
H14    H     0.08770   0.81980   0.31160   0.01267  Uiso   1.00
H15    H     0.24130   0.85850   0.40980   0.01267  Uiso   1.00
H16    H     0.33980   0.83420   0.72550   0.01267  Uiso   1.00
H17    H     0.36490   0.84210   0.61690   0.01267  Uiso   1.00
H18    H     0.38870   0.96500   0.68890   0.01267  Uiso   1.00
H19    H     0.76820   0.80680   0.35110   0.01267  Uiso   1.00
H20    H     0.85700   0.83240   0.28430   0.01267  Uiso   1.00
H21    H     0.79920   0.69720   0.31060   0.01267  Uiso   1.00
H22    H     0.44490   0.66070   0.59900   0.01267  Uiso   1.00
H23    H     0.41540   0.52150   0.62040   0.01267  Uiso   1.00
H24    H     0.51030   0.57990   0.56160   0.01267  Uiso   1.00
H25    H     0.61510   0.80990   0.77190   0.01267  Uiso   1.00
H26    H     0.87100   0.10510   0.29730   0.01267  Uiso   1.00
H27    H     0.00560   0.71410   0.99600   0.01267  Uiso   1.00
H28    H     0.91000   0.58070   0.00110   0.01267  Uiso   1.00
H29    H     0.92780   0.70220   0.07090   0.01267  Uiso   1.00
H30    H     0.60080   0.40670   0.71400   0.01267  Uiso   1.00
H31    H     0.72430   0.42400   0.83610   0.01267  Uiso   1.00
H32    H     0.87080   0.64370   0.70870   0.01267  Uiso   1.00
H33    H     0.00340   0.62210   0.62280   0.01267  Uiso   1.00
H34    H     0.99990   0.42540   0.58080   0.01267  Uiso   1.00
H35    H     0.91230   0.18020   0.68840   0.01267  Uiso   1.00
H36    H     0.75870   0.14150   0.59020   0.01267  Uiso   1.00
H37    H     0.66020   0.16580   0.27450   0.01267  Uiso   1.00
H38    H     0.63510   0.15790   0.38310   0.01267  Uiso   1.00
H39    H     0.61130   0.03500   0.31110   0.01267  Uiso   1.00
H40    H     0.23180   0.19320   0.64890   0.01267  Uiso   1.00
H41    H     0.14300   0.16760   0.71570   0.01267  Uiso   1.00
H42    H     0.20080   0.30280   0.68940   0.01267  Uiso   1.00
C1     C     0.51600   0.40270   0.38160   0.01267  Uiso   1.00
C2     C     0.38940   0.35650   0.26627   0.01267  Uiso   1.00
C3     C     0.30065   0.41222   0.20138   0.01267  Uiso   1.00
C4     C     0.20246   0.32330   0.10029   0.01267  Uiso   1.00
C5     C     0.07860   0.33240   0.99890   0.01267  Uiso   1.00
C6     C     0.30330   0.53920   0.23284   0.01267  Uiso   1.00
C7     C     0.21059   0.54015   0.28651   0.01267  Uiso   1.00
C8     C     0.13050   0.43520   0.30960   0.01267  Uiso   1.00
C9     C     0.05130   0.44820   0.36040   0.01267  Uiso   1.00
C10    C     0.05390   0.56500   0.38590   0.01267  Uiso   1.00
C11    C     0.13690   0.66821   0.36168   0.01267  Uiso   1.00
C12    C     0.14520   0.80050   0.38385   0.01267  Uiso   1.00
C13    C     0.33240   0.87650   0.66130   0.01267  Uiso   1.00
C14    C     0.18052   0.85820   0.58654   0.01267  Uiso   1.00
C15    C     0.09954   0.82449   0.47059   0.01267  Uiso   1.00
C16    C     0.96671   0.81970   0.44991   0.01267  Uiso   1.00
C17    C     0.83620   0.78610   0.33917   0.01267  Uiso   1.00
C18    C     0.01662   0.98550   0.84877   0.01267  Uiso   1.00
C19    C     0.29618   0.90997   0.18121   0.01267  Uiso   1.00
C20    C     0.64355   0.84850   0.48797   0.01267  Uiso   1.00
C21    C     0.48400   0.59730   0.61840   0.01267  Uiso   1.00
C22    C     0.61060   0.64350   0.73373   0.01267  Uiso   1.00
C23    C     0.69935   0.58778   0.79862   0.01267  Uiso   1.00
C24    C     0.79754   0.67670   0.89971   0.01267  Uiso   1.00
C25    C     0.92140   0.66760   0.00110   0.01267  Uiso   1.00
C26    C     0.69670   0.46080   0.76716   0.01267  Uiso   1.00
C27    C     0.78941   0.45985   0.71349   0.01267  Uiso   1.00
C28    C     0.86950   0.56480   0.69040   0.01267  Uiso   1.00
C29    C     0.94870   0.55180   0.63960   0.01267  Uiso   1.00
C30    C     0.94610   0.43500   0.61410   0.01267  Uiso   1.00
C31    C     0.86310   0.33179   0.63832   0.01267  Uiso   1.00
C32    C     0.85480   0.19950   0.61615   0.01267  Uiso   1.00
C33    C     0.66760   0.12350   0.33870   0.01267  Uiso   1.00
C34    C     0.81948   0.14180   0.41346   0.01267  Uiso   1.00
C35    C     0.90046   0.17551   0.52941   0.01267  Uiso   1.00
C36    C     0.03329   0.18030   0.55009   0.01267  Uiso   1.00
C37    C     0.16380   0.21390   0.66083   0.01267  Uiso   1.00
C38    C     0.98338   0.01450   0.15123   0.01267  Uiso   1.00
C39    C     0.70382   0.09003   0.81879   0.01267  Uiso   1.00
C40    C     0.35645   0.15150   0.51203   0.01267  Uiso   1.00
N1     N     0.23010   0.21959   0.10310   0.01267  Uiso   1.00
N2     N     0.34482   0.24274   0.20503   0.01267  Uiso   1.00
N3     N     0.21485   0.65588   0.31273   0.01267  Uiso   1.00
N4     N     0.09997   0.87289   0.63048   0.01267  Uiso   1.00
N5     N     0.96775   0.84923   0.54874   0.01267  Uiso   1.00
N6     N     0.94758   0.94430   0.75345   0.01267  Uiso   1.00
N7     N     0.25506   0.96765   0.11408   0.01267  Uiso   1.00
N8     N     0.53290   0.83358   0.41946   0.01267  Uiso   1.00
N9     N     0.76990   0.78041   0.89690   0.01267  Uiso   1.00
N10    N     0.65518   0.75726   0.79497   0.01267  Uiso   1.00
N11    N     0.78515   0.34412   0.68727   0.01267  Uiso   1.00
N12    N     0.90003   0.12711   0.36952   0.01267  Uiso   1.00
N13    N     0.03225   0.15077   0.45126   0.01267  Uiso   1.00
N14    N     0.05242   0.05570   0.24655   0.01267  Uiso   1.00
N15    N     0.74494   0.03235   0.88592   0.01267  Uiso   1.00
N16    N     0.46710   0.16642   0.58054   0.01267  Uiso   1.00
