data_BEPVOJ_clean
_audit_creation_date              2014-07-02
_audit_creation_method            'Materials Studio'
_symmetry_space_group_name_H-M    'P1'
_symmetry_Int_Tables_number       1
_symmetry_cell_setting            triclinic
loop_
_symmetry_equiv_pos_as_xyz
  x,y,z
_cell_length_a                    11.3120
_cell_length_b                    11.5152
_cell_length_c                    12.6953
_cell_angle_alpha                 88.5030
_cell_angle_beta                  65.8290
_cell_angle_gamma                 68.3470
loop_
_atom_site_label
_atom_site_type_symbol
_atom_site_fract_x
_atom_site_fract_y
_atom_site_fract_z
_atom_site_U_iso_or_equiv
_atom_site_adp_type
_atom_site_occupancy
Cu1    Cu    0.17140   0.88051   0.59397   0.01267  Uiso   1.00
Cu2    Cu    0.86536   0.05819   0.00869   0.01267  Uiso   1.00
Cu3    Cu    0.63976   0.81806   0.28921   0.01267  Uiso   1.00
Cu4    Cu    0.82860   0.11949   0.40603   0.01267  Uiso   1.00
Cu5    Cu    0.13464   0.94181   0.99131   0.01267  Uiso   1.00
Cu6    Cu    0.36024   0.18194   0.71079   0.01267  Uiso   1.00
H1     H     0.47610   0.34650   0.43110   0.01267  Uiso   1.00
H2     H     0.45330   0.48970   0.41220   0.01267  Uiso   1.00
H3     H     0.38400   0.41860   0.36370   0.01267  Uiso   1.00
H4     H     0.60030   0.19650   0.22290   0.01267  Uiso   1.00
H5     H     0.86720   0.89220   0.70450   0.01267  Uiso   1.00
H6     H     0.96250   0.26440   0.94640   0.01267  Uiso   1.00
H7     H     0.88400   0.41510   0.96890   0.01267  Uiso   1.00
H8     H     0.97790   0.34670   0.03600   0.01267  Uiso   1.00
H9     H     0.70180   0.58800   0.16600   0.01267  Uiso   1.00
H10    H     0.58640   0.59610   0.29450   0.01267  Uiso   1.00
H11    H     0.87370   0.35410   0.28990   0.01267  Uiso   1.00
H12    H     0.01710   0.37080   0.37320   0.01267  Uiso   1.00
H13    H     0.01980   0.56990   0.40590   0.01267  Uiso   1.00
H14    H     0.76640   0.85850   0.39010   0.01267  Uiso   1.00
H15    H     0.92540   0.81540   0.29380   0.01267  Uiso   1.00
H16    H     0.61800   0.94720   0.70460   0.01267  Uiso   1.00
H17    H     0.62710   0.86910   0.59720   0.01267  Uiso   1.00
H18    H     0.66920   0.79680   0.69390   0.01267  Uiso   1.00
H19    H     0.20790   0.70000   0.30510   0.01267  Uiso   1.00
H20    H     0.14660   0.84120   0.27910   0.01267  Uiso   1.00
H21    H     0.23800   0.80860   0.35240   0.01267  Uiso   1.00
H22    H     0.52390   0.65350   0.56890   0.01267  Uiso   1.00
H23    H     0.54670   0.51030   0.58780   0.01267  Uiso   1.00
H24    H     0.61600   0.58140   0.63630   0.01267  Uiso   1.00
H25    H     0.39970   0.80350   0.77710   0.01267  Uiso   1.00
H26    H     0.13280   0.10780   0.29550   0.01267  Uiso   1.00
H27    H     0.03750   0.73560   0.05360   0.01267  Uiso   1.00
H28    H     0.11600   0.58490   0.03110   0.01267  Uiso   1.00
H29    H     0.02210   0.65330   0.96400   0.01267  Uiso   1.00
H30    H     0.29820   0.41200   0.83400   0.01267  Uiso   1.00
H31    H     0.41360   0.40390   0.70550   0.01267  Uiso   1.00
H32    H     0.12630   0.64590   0.71010   0.01267  Uiso   1.00
H33    H     0.98290   0.62920   0.62680   0.01267  Uiso   1.00
H34    H     0.98020   0.43010   0.59410   0.01267  Uiso   1.00
H35    H     0.23360   0.14150   0.60990   0.01267  Uiso   1.00
H36    H     0.07460   0.18460   0.70620   0.01267  Uiso   1.00
H37    H     0.38200   0.05280   0.29540   0.01267  Uiso   1.00
H38    H     0.37290   0.13090   0.40280   0.01267  Uiso   1.00
H39    H     0.33080   0.20320   0.30610   0.01267  Uiso   1.00
H40    H     0.79210   0.30000   0.69490   0.01267  Uiso   1.00
H41    H     0.85340   0.15880   0.72090   0.01267  Uiso   1.00
H42    H     0.76200   0.19140   0.64760   0.01267  Uiso   1.00
C1     C     0.46610   0.40840   0.37760   0.01267  Uiso   1.00
C2     C     0.59450   0.36370   0.26550   0.01267  Uiso   1.00
C3     C     0.68800   0.41818   0.20220   0.01267  Uiso   1.00
C4     C     0.78840   0.33120   0.10160   0.01267  Uiso   1.00
C5     C     0.91390   0.34010   0.00500   0.01267  Uiso   1.00
C6     C     0.68320   0.54470   0.23580   0.01267  Uiso   1.00
C7     C     0.78520   0.54187   0.28490   0.01267  Uiso   1.00
C8     C     0.87290   0.43420   0.30730   0.01267  Uiso   1.00
C9     C     0.95880   0.44360   0.35460   0.01267  Uiso   1.00
C10    C     0.95920   0.56150   0.37510   0.01267  Uiso   1.00
C11    C     0.87130   0.66530   0.35030   0.01267  Uiso   1.00
C12    C     0.86420   0.79780   0.36870   0.01267  Uiso   1.00
C13    C     0.67060   0.86800   0.65010   0.01267  Uiso   1.00
C14    C     0.82210   0.85381   0.57970   0.01267  Uiso   1.00
C15    C     0.90760   0.82150   0.46080   0.01267  Uiso   1.00
C16    C     0.03770   0.81908   0.44675   0.01267  Uiso   1.00
C17    C     0.16880   0.78970   0.33640   0.01267  Uiso   1.00
C18    C     0.99300   0.98898   0.85376   0.01267  Uiso   1.00
C19    C     0.69790   0.91348   0.17254   0.01267  Uiso   1.00
C20    C     0.35640   0.85018   0.48843   0.01267  Uiso   1.00
C21    C     0.53390   0.59160   0.62240   0.01267  Uiso   1.00
C22    C     0.40550   0.63630   0.73450   0.01267  Uiso   1.00
C23    C     0.31200   0.58182   0.79780   0.01267  Uiso   1.00
C24    C     0.21160   0.66880   0.89840   0.01267  Uiso   1.00
C25    C     0.08610   0.65990   0.99500   0.01267  Uiso   1.00
C26    C     0.31680   0.45530   0.76420   0.01267  Uiso   1.00
C27    C     0.21480   0.45813   0.71510   0.01267  Uiso   1.00
C28    C     0.12710   0.56580   0.69270   0.01267  Uiso   1.00
C29    C     0.04120   0.55640   0.64540   0.01267  Uiso   1.00
C30    C     0.04080   0.43850   0.62490   0.01267  Uiso   1.00
C31    C     0.12870   0.33470   0.64970   0.01267  Uiso   1.00
C32    C     0.13580   0.20220   0.63130   0.01267  Uiso   1.00
C33    C     0.32940   0.13200   0.34990   0.01267  Uiso   1.00
C34    C     0.17790   0.14619   0.42030   0.01267  Uiso   1.00
C35    C     0.09240   0.17850   0.53920   0.01267  Uiso   1.00
C36    C     0.96230   0.18092   0.55325   0.01267  Uiso   1.00
C37    C     0.83120   0.21030   0.66360   0.01267  Uiso   1.00
C38    C     0.00700   0.01102   0.14624   0.01267  Uiso   1.00
C39    C     0.30210   0.08652   0.82746   0.01267  Uiso   1.00
C40    C     0.64360   0.14982   0.51157   0.01267  Uiso   1.00
N1     N     0.76022   0.22851   0.10213   0.01267  Uiso   1.00
N2     N     0.64167   0.25016   0.20196   0.01267  Uiso   1.00
N3     N     0.78469   0.65572   0.30700   0.01267  Uiso   1.00
N4     N     0.89899   0.87036   0.62906   0.01267  Uiso   1.00
N5     N     0.03312   0.84961   0.54947   0.01267  Uiso   1.00
N6     N     0.05960   0.94587   0.75692   0.01267  Uiso   1.00
N7     N     0.74063   0.97398   0.10563   0.01267  Uiso   1.00
N8     N     0.46610   0.83611   0.41813   0.01267  Uiso   1.00
N9     N     0.23978   0.77149   0.89787   0.01267  Uiso   1.00
N10    N     0.35833   0.74984   0.79804   0.01267  Uiso   1.00
N11    N     0.21531   0.34428   0.69300   0.01267  Uiso   1.00
N12    N     0.10101   0.12964   0.37094   0.01267  Uiso   1.00
N13    N     0.96688   0.15039   0.45053   0.01267  Uiso   1.00
N14    N     0.94040   0.05413   0.24308   0.01267  Uiso   1.00
N15    N     0.25937   0.02602   0.89437   0.01267  Uiso   1.00
N16    N     0.53390   0.16389   0.58187   0.01267  Uiso   1.00
