data_BEPVOJ01_clean
_audit_creation_date              2014-07-02
_audit_creation_method            'Materials Studio'
_symmetry_space_group_name_H-M    'P1'
_symmetry_Int_Tables_number       1
_symmetry_cell_setting            triclinic
loop_
_symmetry_equiv_pos_as_xyz
  x,y,z
_cell_length_a                    11.3571
_cell_length_b                    11.4964
_cell_length_c                    12.9352
_cell_angle_alpha                 88.8670
_cell_angle_beta                  64.6140
_cell_angle_gamma                 69.3050
loop_
_atom_site_label
_atom_site_type_symbol
_atom_site_fract_x
_atom_site_fract_y
_atom_site_fract_z
_atom_site_U_iso_or_equiv
_atom_site_adp_type
_atom_site_occupancy
Cu1    Cu    0.86319   0.05879   0.00615   0.01267  Uiso   1.00
Cu2    Cu    0.17028   0.87794   0.59423   0.01267  Uiso   1.00
Cu3    Cu    0.64266   0.81923   0.29311   0.01267  Uiso   1.00
Cu4    Cu    0.13681   0.94121   0.99385   0.01267  Uiso   1.00
Cu5    Cu    0.82972   0.12206   0.40577   0.01267  Uiso   1.00
Cu6    Cu    0.35734   0.18077   0.70689   0.01267  Uiso   1.00
H1     H     0.86710   0.88810   0.70510   0.01267  Uiso   1.00
H2     H     0.61200   0.19800   0.22540   0.01267  Uiso   1.00
H3     H     0.91760   0.82100   0.30520   0.01267  Uiso   1.00
H4     H     0.76270   0.85780   0.40180   0.01267  Uiso   1.00
H5     H     0.22180   0.70200   0.32530   0.01267  Uiso   1.00
H6     H     0.14220   0.81240   0.27710   0.01267  Uiso   1.00
H7     H     0.21880   0.83720   0.34530   0.01267  Uiso   1.00
H8     H     0.72350   0.58300   0.15770   0.01267  Uiso   1.00
H9     H     0.60130   0.59800   0.28110   0.01267  Uiso   1.00
H10    H     0.88010   0.35850   0.28210   0.01267  Uiso   1.00
H11    H     0.01130   0.57250   0.41090   0.01267  Uiso   1.00
H12    H     0.89020   0.40910   0.95850   0.01267  Uiso   1.00
H13    H     0.98510   0.34990   0.02020   0.01267  Uiso   1.00
H14    H     0.96890   0.26270   0.93970   0.01267  Uiso   1.00
H15    H     0.61200   0.95260   0.69800   0.01267  Uiso   1.00
H16    H     0.62990   0.85060   0.60780   0.01267  Uiso   1.00
H17    H     0.66210   0.81020   0.71230   0.01267  Uiso   1.00
H18    H     0.45230   0.34140   0.40690   0.01267  Uiso   1.00
H19    H     0.50130   0.44450   0.43200   0.01267  Uiso   1.00
H20    H     0.40360   0.47430   0.37060   0.01267  Uiso   1.00
H21    H     0.01630   0.37770   0.36600   0.01267  Uiso   1.00
H22    H     0.13290   0.11190   0.29490   0.01267  Uiso   1.00
H23    H     0.38800   0.80200   0.77460   0.01267  Uiso   1.00
H24    H     0.08240   0.17900   0.69480   0.01267  Uiso   1.00
H25    H     0.23730   0.14220   0.59820   0.01267  Uiso   1.00
H26    H     0.77820   0.29800   0.67470   0.01267  Uiso   1.00
H27    H     0.85780   0.18760   0.72290   0.01267  Uiso   1.00
H28    H     0.78120   0.16280   0.65470   0.01267  Uiso   1.00
H29    H     0.27650   0.41700   0.84230   0.01267  Uiso   1.00
H30    H     0.39870   0.40200   0.71890   0.01267  Uiso   1.00
H31    H     0.11990   0.64150   0.71790   0.01267  Uiso   1.00
H32    H     0.98870   0.42750   0.58910   0.01267  Uiso   1.00
H33    H     0.10980   0.59090   0.04150   0.01267  Uiso   1.00
H34    H     0.01490   0.65010   0.97980   0.01267  Uiso   1.00
H35    H     0.03110   0.73730   0.06030   0.01267  Uiso   1.00
H36    H     0.38800   0.04740   0.30200   0.01267  Uiso   1.00
H37    H     0.37010   0.14940   0.39220   0.01267  Uiso   1.00
H38    H     0.33790   0.18980   0.28770   0.01267  Uiso   1.00
H39    H     0.54770   0.65860   0.59310   0.01267  Uiso   1.00
H40    H     0.49870   0.55550   0.56800   0.01267  Uiso   1.00
H41    H     0.59640   0.52570   0.62940   0.01267  Uiso   1.00
H42    H     0.98370   0.62230   0.63400   0.01267  Uiso   1.00
C1     C     0.03416   0.82102   0.45036   0.01267  Uiso   1.00
C2     C     0.98777   0.98815   0.85227   0.01267  Uiso   1.00
C3     C     0.79742   0.33014   0.09580   0.01267  Uiso   1.00
C4     C     0.69790   0.91674   0.17761   0.01267  Uiso   1.00
C5     C     0.90366   0.82207   0.46723   0.01267  Uiso   1.00
C6     C     0.60670   0.36428   0.26323   0.01267  Uiso   1.00
C7     C     0.81952   0.85270   0.58481   0.01267  Uiso   1.00
C8     C     0.85936   0.80019   0.37740   0.01267  Uiso   1.00
C9     C     0.69927   0.41862   0.19656   0.01267  Uiso   1.00
C10    C     0.86888   0.66896   0.35466   0.01267  Uiso   1.00
C11    C     0.16600   0.79040   0.33965   0.01267  Uiso   1.00
C12    C     0.79223   0.54434   0.28082   0.01267  Uiso   1.00
C13    C     0.69720   0.54479   0.22744   0.01267  Uiso   1.00
C14    C     0.87760   0.43714   0.30130   0.01267  Uiso   1.00
C15    C     0.95590   0.56442   0.37770   0.01267  Uiso   1.00
C16    C     0.92140   0.33870   0.99450   0.01267  Uiso   1.00
C17    C     0.66680   0.86790   0.65740   0.01267  Uiso   1.00
C18    C     0.47960   0.41020   0.37850   0.01267  Uiso   1.00
C19    C     0.95870   0.44900   0.35070   0.01267  Uiso   1.00
C20    C     0.35630   0.84809   0.48951   0.01267  Uiso   1.00
C21    C     0.96584   0.17898   0.54964   0.01267  Uiso   1.00
C22    C     0.01223   0.01185   0.14773   0.01267  Uiso   1.00
C23    C     0.20258   0.66986   0.90420   0.01267  Uiso   1.00
C24    C     0.30210   0.08326   0.82239   0.01267  Uiso   1.00
C25    C     0.09634   0.17793   0.53277   0.01267  Uiso   1.00
C26    C     0.39330   0.63572   0.73677   0.01267  Uiso   1.00
C27    C     0.18048   0.14730   0.41519   0.01267  Uiso   1.00
C28    C     0.14064   0.19981   0.62260   0.01267  Uiso   1.00
C29    C     0.30073   0.58138   0.80344   0.01267  Uiso   1.00
C30    C     0.13112   0.33104   0.64534   0.01267  Uiso   1.00
C31    C     0.83400   0.20960   0.66035   0.01267  Uiso   1.00
C32    C     0.20777   0.45566   0.71918   0.01267  Uiso   1.00
C33    C     0.30280   0.45521   0.77256   0.01267  Uiso   1.00
C34    C     0.12240   0.56286   0.69870   0.01267  Uiso   1.00
C35    C     0.04410   0.43558   0.62230   0.01267  Uiso   1.00
C36    C     0.07860   0.66130   0.00550   0.01267  Uiso   1.00
C37    C     0.33320   0.13210   0.34260   0.01267  Uiso   1.00
C38    C     0.52040   0.58980   0.62150   0.01267  Uiso   1.00
C39    C     0.04130   0.55100   0.64930   0.01267  Uiso   1.00
C40    C     0.64370   0.15191   0.51049   0.01267  Uiso   1.00
N1     N     0.76677   0.22866   0.10060   0.01267  Uiso   1.00
N2     N     0.78782   0.65779   0.30773   0.01267  Uiso   1.00
N3     N     0.89772   0.86786   0.63194   0.01267  Uiso   1.00
N4     N     0.03115   0.84788   0.55187   0.01267  Uiso   1.00
N5     N     0.73707   0.97692   0.11123   0.01267  Uiso   1.00
N6     N     0.65227   0.25085   0.20193   0.01267  Uiso   1.00
N7     N     0.05615   0.94303   0.75739   0.01267  Uiso   1.00
N8     N     0.46710   0.83539   0.42002   0.01267  Uiso   1.00
N9     N     0.23323   0.77134   0.89940   0.01267  Uiso   1.00
N10    N     0.21218   0.34221   0.69227   0.01267  Uiso   1.00
N11    N     0.10228   0.13214   0.36806   0.01267  Uiso   1.00
N12    N     0.96885   0.15212   0.44813   0.01267  Uiso   1.00
N13    N     0.26293   0.02308   0.88877   0.01267  Uiso   1.00
N14    N     0.34773   0.74915   0.79807   0.01267  Uiso   1.00
N15    N     0.94385   0.05697   0.24261   0.01267  Uiso   1.00
N16    N     0.53290   0.16461   0.57998   0.01267  Uiso   1.00
