data_image0
_cell_length_a       12.743
_cell_length_b       13.9644
_cell_length_c       14.7971
_cell_angle_alpha    84.9842
_cell_angle_beta     83.4508
_cell_angle_gamma    64.4417

_symmetry_space_group_name_H-M    "P 1"
_symmetry_int_tables_number       1

loop_
  _symmetry_equiv_pos_as_xyz
  'x, y, z'

loop_
  _atom_site_label
  _atom_site_occupancy
  _atom_site_fract_x
  _atom_site_fract_y
  _atom_site_fract_z
  _atom_site_thermal_displace_type
  _atom_site_B_iso_or_equiv
  _atom_site_type_symbol
  Cu1      1.0000 0.88551  0.46759  0.99259  Biso   1.000  Cu
  O1       1.0000 0.97673  0.33854  0.06524  Biso   1.000  O
  O2       1.0000 0.88630  0.36682  0.90975  Biso   1.000  O
  O3       1.0000 0.72069  0.40608  0.06639  Biso   1.000  O
  O4       1.0000 0.90187  0.56162  0.07461  Biso   1.000  O
  O5       1.0000 0.77956  0.59512  0.93490  Biso   1.000  O
  C1       1.0000 0.95680  0.26130  0.04550  Biso   1.000  C
  C2       1.0000 0.87860  0.28420  0.96774  Biso   1.000  C
  Cu2      1.0000 0.61429  0.53352  0.00890  Biso   1.000  Cu
  C3       1.0000 0.75280  0.31790  0.01265  Biso   1.000  C
  C4       1.0000 0.82980  0.65840  0.06270  Biso   1.000  C
  C5       1.0000 0.74760  0.68350  0.98837  Biso   1.000  C
  O6       1.0000 0.99250  0.17425  0.08819  Biso   1.000  O
  H1       1.0000 0.90230  0.22010  0.93350  Biso   1.000  H
  O7       1.0000 0.59821  0.43953  0.92669  Biso   1.000  O
  O8       1.0000 0.61345  0.63413  0.09121  Biso   1.000  O
  O9       1.0000 0.52371  0.66266  0.93568  Biso   1.000  O
  H2       1.0000 0.74970  0.25860  0.05170  Biso   1.000  H
  C6       1.0000 0.66970  0.34340  0.93880  Biso   1.000  C
  O10      1.0000 0.82559  0.73135  0.10856  Biso   1.000  O
  H3       1.0000 0.75060  0.74280  0.94930  Biso   1.000  H
  C7       1.0000 0.62160  0.71670  0.03340  Biso   1.000  C
  C8       1.0000 0.54490  0.73930  0.95480  Biso   1.000  C
  O11      1.0000 0.67352  0.27050  0.89255  Biso   1.000  O
  H4       1.0000 0.59720  0.78090  0.06760  Biso   1.000  H
  O12      1.0000 0.50990  0.82620  0.91167  Biso   1.000  O
  C9       1.0000 0.51210  0.27950  0.54060  Biso   1.000  C
  C10      1.0000 0.58740  0.30600  0.46329  Biso   1.000  C
  H5       1.0000 0.61340  0.25220  0.41740  Biso   1.000  H
  O13      1.0000 0.41279  0.35474  0.56385  Biso   1.000  O
  O14      1.0000 0.54915  0.19002  0.57887  Biso   1.000  O
  O15      1.0000 0.52559  0.40664  0.42213  Biso   1.000  O
  C11      1.0000 0.69540  0.30220  0.50540  Biso   1.000  C
  H6       1.0000 0.74200  0.23040  0.52990  Biso   1.000  H
  C12      1.0000 0.76620  0.33310  0.42720  Biso   1.000  C
  O16      1.0000 0.66030  0.37639  0.57450  Biso   1.000  O
  O17      1.0000 0.75044  0.42973  0.42273  Biso   1.000  O
  O18      1.0000 0.83082  0.26669  0.37069  Biso   1.000  O
  C13      1.0000 0.03170  0.26780  0.54230  Biso   1.000  C
  C14      1.0000 0.09940  0.30070  0.46367  Biso   1.000  C
  H7       1.0000 0.13250  0.24470  0.41940  Biso   1.000  H
  O19      1.0000 0.92834  0.33753  0.56545  Biso   1.000  O
  O20      1.0000 0.07769  0.18006  0.58288  Biso   1.000  O
  O21      1.0000 0.02955  0.39627  0.42028  Biso   1.000  O
  C15      1.0000 0.20000  0.31280  0.50436  Biso   1.000  C
  H8       1.0000 0.25300  0.24430  0.53060  Biso   1.000  H
  C16      1.0000 0.26470  0.34860  0.42643  Biso   1.000  C
  O22      1.0000 0.15495  0.38923  0.57207  Biso   1.000  O
  O23      1.0000 0.24056  0.44746  0.41982  Biso   1.000  O
  O24      1.0000 0.33385  0.28339  0.37010  Biso   1.000  O
  Cu3      1.0000 0.38380  0.48771  0.49256  Biso   1.000  Cu
  Cu4      1.0000 0.10985  0.52603  0.50706  Biso   1.000  Cu
  Li1      1.0000 0.53070  0.42750  0.29280  Biso   1.000  Li
  O25      1.0000 0.49689  0.58008  0.27958  Biso   1.000  O
  H9       1.0000 0.45400  0.59900  0.32670  Biso   1.000  H
  H10      1.0000 0.56070  0.57700  0.29100  Biso   1.000  H
  Li2      1.0000 0.46850  0.68130  0.17220  Biso   1.000  Li
  Li3      1.0000 0.03050  0.42270  0.29210  Biso   1.000  Li
  O26      1.0000 0.99732  0.57528  0.27988  Biso   1.000  O
  H11      1.0000 0.95700  0.59300  0.32910  Biso   1.000  H
  H12      1.0000 0.06230  0.57000  0.28900  Biso   1.000  H
  Li4      1.0000 0.79350  0.33680  0.65080  Biso   1.000  Li
  Li5      1.0000 0.96900  0.67690  0.17230  Biso   1.000  Li
  Li6      1.0000 0.01090  0.03300  0.08030  Biso   1.000  Li
  Li7      1.0000 0.28650  0.34340  0.65180  Biso   1.000  Li
  O27      1.0000 0.33850  0.05050  0.92900  Biso   1.000  O
  O28      1.0000 0.40390  0.01440  0.99290  Biso   1.000  O
  O29      1.0000 0.99680  0.99970  0.04430  Biso   1.000  O
  Li8      1.0000 0.50590  0.96600  0.91970  Biso   1.000  Li
  Cu5      1.0000 0.11449  0.53241  0.00741  Biso   1.000  Cu
  O30      1.0000 0.02327  0.66146  0.93476  Biso   1.000  O
  O31      1.0000 0.11370  0.63318  0.09025  Biso   1.000  O
  O32      1.0000 0.27931  0.59392  0.93361  Biso   1.000  O
  O33      1.0000 0.09813  0.43838  0.92539  Biso   1.000  O
  O34      1.0000 0.22044  0.40488  0.06510  Biso   1.000  O
  C17      1.0000 0.04320  0.73870  0.95450  Biso   1.000  C
  C18      1.0000 0.12140  0.71580  0.03226  Biso   1.000  C
  Cu6      1.0000 0.38571  0.46648  0.99110  Biso   1.000  Cu
  C19      1.0000 0.24720  0.68210  0.98735  Biso   1.000  C
  C20      1.0000 0.17020  0.34160  0.93730  Biso   1.000  C
  C21      1.0000 0.25240  0.31650  0.01163  Biso   1.000  C
  O35      1.0000 0.00750  0.82575  0.91181  Biso   1.000  O
  H13      1.0000 0.09770  0.77990  0.06650  Biso   1.000  H
  O36      1.0000 0.40179  0.56047  0.07331  Biso   1.000  O
  O37      1.0000 0.38655  0.36587  0.90879  Biso   1.000  O
  O38      1.0000 0.47629  0.33734  0.06432  Biso   1.000  O
  H14      1.0000 0.25030  0.74140  0.94830  Biso   1.000  H
  C22      1.0000 0.33030  0.65660  0.06120  Biso   1.000  C
  O39      1.0000 0.17441  0.26865  0.89144  Biso   1.000  O
  H15      1.0000 0.24940  0.25720  0.05070  Biso   1.000  H
  C23      1.0000 0.37840  0.28330  0.96660  Biso   1.000  C
  C24      1.0000 0.45510  0.26070  0.04520  Biso   1.000  C
  O40      1.0000 0.32648  0.72950  0.10745  Biso   1.000  O
  H16      1.0000 0.40280  0.21910  0.93240  Biso   1.000  H
  O41      1.0000 0.49010  0.17380  0.08833  Biso   1.000  O
  C25      1.0000 0.48790  0.72050  0.45940  Biso   1.000  C
  C26      1.0000 0.41260  0.69400  0.53671  Biso   1.000  C
  H17      1.0000 0.38660  0.74780  0.58260  Biso   1.000  H
  O42      1.0000 0.58721  0.64526  0.43615  Biso   1.000  O
  O43      1.0000 0.45085  0.80998  0.42113  Biso   1.000  O
  O44      1.0000 0.47441  0.59336  0.57787  Biso   1.000  O
  C27      1.0000 0.30460  0.69780  0.49460  Biso   1.000  C
  H18      1.0000 0.25800  0.76960  0.47010  Biso   1.000  H
  C28      1.0000 0.23380  0.66690  0.57280  Biso   1.000  C
  O45      1.0000 0.33970  0.62361  0.42550  Biso   1.000  O
  O46      1.0000 0.24956  0.57027  0.57727  Biso   1.000  O
  O47      1.0000 0.16918  0.73331  0.62931  Biso   1.000  O
  C29      1.0000 0.96830  0.73220  0.45770  Biso   1.000  C
  C30      1.0000 0.90060  0.69930  0.53633  Biso   1.000  C
  H19      1.0000 0.86750  0.75530  0.58060  Biso   1.000  H
  O48      1.0000 0.07166  0.66247  0.43455  Biso   1.000  O
  O49      1.0000 0.92231  0.81994  0.41712  Biso   1.000  O
  O50      1.0000 0.97045  0.60373  0.57972  Biso   1.000  O
  C31      1.0000 0.80000  0.68720  0.49564  Biso   1.000  C
  H20      1.0000 0.74700  0.75570  0.46940  Biso   1.000  H
  C32      1.0000 0.73530  0.65140  0.57357  Biso   1.000  C
  O51      1.0000 0.84505  0.61077  0.42793  Biso   1.000  O
  O52      1.0000 0.75944  0.55254  0.58018  Biso   1.000  O
  O53      1.0000 0.66615  0.71661  0.62990  Biso   1.000  O
  Cu7      1.0000 0.61620  0.51229  0.50744  Biso   1.000  Cu
  Cu8      1.0000 0.89015  0.47397  0.49294  Biso   1.000  Cu
  Li9      1.0000 0.46930  0.57250  0.70720  Biso   1.000  Li
  O54      1.0000 0.50311  0.41992  0.72042  Biso   1.000  O
  H21      1.0000 0.54600  0.40100  0.67330  Biso   1.000  H
  H22      1.0000 0.43930  0.42300  0.70900  Biso   1.000  H
  Li10     1.0000 0.53150  0.31870  0.82780  Biso   1.000  Li
  Li11     1.0000 0.96950  0.57730  0.70790  Biso   1.000  Li
  O55      1.0000 0.00268  0.42472  0.72012  Biso   1.000  O
  H23      1.0000 0.04300  0.40700  0.67090  Biso   1.000  H
  H24      1.0000 0.93770  0.43000  0.71100  Biso   1.000  H
  Li12     1.0000 0.20650  0.66320  0.34920  Biso   1.000  Li
  Li13     1.0000 0.03100  0.32310  0.82770  Biso   1.000  Li
  Li14     1.0000 0.98910  0.96700  0.91970  Biso   1.000  Li
  Li15     1.0000 0.71350  0.65660  0.34820  Biso   1.000  Li
  O56      1.0000 0.66150  0.94950  0.07100  Biso   1.000  O
  O57      1.0000 0.59610  0.98560  0.00710  Biso   1.000  O
  O58      1.0000 0.00320  0.00030  0.95570  Biso   1.000  O
  Li16     1.0000 0.49410  0.03400  0.08030  Biso   1.000  Li
