data_BERFIP_clean
_audit_creation_date              2014-07-02
_audit_creation_method            'Materials Studio'
_symmetry_space_group_name_H-M    'P1'
_symmetry_Int_Tables_number       1
_symmetry_cell_setting            triclinic
loop_
_symmetry_equiv_pos_as_xyz
  x,y,z
_cell_length_a                    7.9770
_cell_length_b                    9.2821
_cell_length_c                    15.8519
_cell_angle_alpha                 85.3868
_cell_angle_beta                  79.2120
_cell_angle_gamma                 64.5516
loop_
_atom_site_label
_atom_site_type_symbol
_atom_site_fract_x
_atom_site_fract_y
_atom_site_fract_z
_atom_site_U_iso_or_equiv
_atom_site_adp_type
_atom_site_occupancy
Zn1    Zn    0.25056   0.35124   0.50431   0.01267  Uiso   1.00
Zn2    Zn    0.39820   0.35124   0.99569   0.01267  Uiso   1.00
Zn3    Zn    0.74944   0.64876   0.49569   0.01267  Uiso   1.00
Zn4    Zn    0.60180   0.64876   0.00431   0.01267  Uiso   1.00
Zn5    Zn    0.93553   0.12894   0.25000   0.01267  Uiso   1.00
Zn6    Zn    0.06447   0.87106   0.75000   0.01267  Uiso   1.00
H1     H     0.83020   0.20880   0.59450   0.01267  Uiso   1.00
H2     H     0.39400   0.09640   0.36520   0.01267  Uiso   1.00
H3     H     0.31690   0.04500   0.30060   0.01267  Uiso   1.00
H4     H     0.71870   0.44080   0.35800   0.01267  Uiso   1.00
H5     H     0.96100   0.20880   0.90550   0.01267  Uiso   1.00
H6     H     0.50960   0.09640   0.13480   0.01267  Uiso   1.00
H7     H     0.63810   0.04500   0.19940   0.01267  Uiso   1.00
H8     H     0.84050   0.44080   0.14200   0.01267  Uiso   1.00
H9     H     0.16980   0.79120   0.40550   0.01267  Uiso   1.00
H10    H     0.60600   0.90360   0.63480   0.01267  Uiso   1.00
H11    H     0.68310   0.95500   0.69940   0.01267  Uiso   1.00
H12    H     0.28130   0.55920   0.64200   0.01267  Uiso   1.00
H13    H     0.03900   0.79120   0.09450   0.01267  Uiso   1.00
H14    H     0.49040   0.90360   0.86520   0.01267  Uiso   1.00
H15    H     0.36190   0.95500   0.80060   0.01267  Uiso   1.00
H16    H     0.15950   0.55920   0.85800   0.01267  Uiso   1.00
C1     C     0.60080   0.19000   0.50140   0.01267  Uiso   1.00
C2     C     0.89930   0.12440   0.55620   0.01267  Uiso   1.00
C3     C     0.91140   0.96320   0.44190   0.01267  Uiso   1.00
C4     C     0.80760   0.09080   0.49880   0.01267  Uiso   1.00
C5     C     0.13090   0.23380   0.36330   0.01267  Uiso   1.00
C6     C     0.84160   0.39280   0.36880   0.01267  Uiso   1.00
C7     C     0.83130   0.91540   0.37580   0.01267  Uiso   1.00
C8     C     0.20920   0.19000   0.99860   0.01267  Uiso   1.00
C9     C     0.97630   0.12440   0.94380   0.01267  Uiso   1.00
C10    C     0.12540   0.96320   0.05810   0.01267  Uiso   1.00
C11    C     0.10160   0.09080   0.00120   0.01267  Uiso   1.00
C12    C     0.63530   0.23380   0.13670   0.01267  Uiso   1.00
C13    C     0.76560   0.39280   0.13120   0.01267  Uiso   1.00
C14    C     0.25330   0.91540   0.12420   0.01267  Uiso   1.00
C15    C     0.39920   0.81000   0.49860   0.01267  Uiso   1.00
C16    C     0.10070   0.87560   0.44380   0.01267  Uiso   1.00
C17    C     0.08860   0.03680   0.55810   0.01267  Uiso   1.00
C18    C     0.19240   0.90920   0.50120   0.01267  Uiso   1.00
C19    C     0.86910   0.76620   0.63670   0.01267  Uiso   1.00
C20    C     0.15840   0.60720   0.63120   0.01267  Uiso   1.00
C21    C     0.16870   0.08460   0.62420   0.01267  Uiso   1.00
C22    C     0.79080   0.81000   0.00140   0.01267  Uiso   1.00
C23    C     0.02370   0.87560   0.05620   0.01267  Uiso   1.00
C24    C     0.87460   0.03680   0.94190   0.01267  Uiso   1.00
C25    C     0.89840   0.90920   0.99880   0.01267  Uiso   1.00
C26    C     0.36470   0.76620   0.86330   0.01267  Uiso   1.00
C27    C     0.23440   0.60720   0.86880   0.01267  Uiso   1.00
C28    C     0.74670   0.08460   0.87580   0.01267  Uiso   1.00
N1     N     0.09040   0.34180   0.42370   0.01267  Uiso   1.00
N2     N     0.30140   0.11000   0.34020   0.01267  Uiso   1.00
N3     N     0.97720   0.26160   0.32770   0.01267  Uiso   1.00
N4     N     0.90200   0.44540   0.42590   0.01267  Uiso   1.00
N5     N     0.56780   0.34180   0.07630   0.01267  Uiso   1.00
N6     N     0.58860   0.11000   0.15980   0.01267  Uiso   1.00
N7     N     0.76120   0.26160   0.17230   0.01267  Uiso   1.00
N8     N     0.65260   0.44540   0.07410   0.01267  Uiso   1.00
N9     N     0.90960   0.65820   0.57630   0.01267  Uiso   1.00
N10    N     0.69860   0.89000   0.65980   0.01267  Uiso   1.00
N11    N     0.02280   0.73840   0.67230   0.01267  Uiso   1.00
N12    N     0.09800   0.55460   0.57410   0.01267  Uiso   1.00
N13    N     0.43220   0.65820   0.92370   0.01267  Uiso   1.00
N14    N     0.41140   0.89000   0.84020   0.01267  Uiso   1.00
N15    N     0.23880   0.73840   0.82770   0.01267  Uiso   1.00
N16    N     0.34740   0.55460   0.92590   0.01267  Uiso   1.00
O1     O     0.51590   0.15580   0.45280   0.01267  Uiso   1.00
O2     O     0.51470   0.30560   0.55180   0.01267  Uiso   1.00
O3     O     0.79000   0.79860   0.39080   0.01267  Uiso   1.00
O4     O     0.82530   0.98360   0.30330   0.01267  Uiso   1.00
O5     O     0.32830   0.15580   0.04720   0.01267  Uiso   1.00
O6     O     0.17970   0.30560   0.94820   0.01267  Uiso   1.00
O7     O     0.41140   0.79860   0.10920   0.01267  Uiso   1.00
O8     O     0.19110   0.98360   0.19670   0.01267  Uiso   1.00
O9     O     0.48410   0.84420   0.54720   0.01267  Uiso   1.00
O10    O     0.48530   0.69440   0.44820   0.01267  Uiso   1.00
O11    O     0.21000   0.20140   0.60920   0.01267  Uiso   1.00
O12    O     0.17470   0.01640   0.69670   0.01267  Uiso   1.00
O13    O     0.67170   0.84420   0.95280   0.01267  Uiso   1.00
O14    O     0.82030   0.69440   0.05180   0.01267  Uiso   1.00
O15    O     0.58860   0.20140   0.89080   0.01267  Uiso   1.00
O16    O     0.80890   0.01640   0.80330   0.01267  Uiso   1.00
