data_BETDIP_clean
_audit_creation_date              2014-07-02
_audit_creation_method            'Materials Studio'
_symmetry_space_group_name_H-M    'P1'
_symmetry_Int_Tables_number       1
_symmetry_cell_setting            triclinic
loop_
_symmetry_equiv_pos_as_xyz
  x,y,z
_cell_length_a                    13.0903
_cell_length_b                    13.9533
_cell_length_c                    15.9804
_cell_angle_alpha                 96.9080
_cell_angle_beta                  114.1780
_cell_angle_gamma                 90.0000
loop_
_atom_site_label
_atom_site_type_symbol
_atom_site_fract_x
_atom_site_fract_y
_atom_site_fract_z
_atom_site_U_iso_or_equiv
_atom_site_adp_type
_atom_site_occupancy
Tb1    Tb    0.48325   0.45895   0.37108   0.01267  Uiso   1.00
Tb2    Tb    0.11217   0.04105   0.62892   0.01267  Uiso   1.00
Tb3    Tb    0.51675   0.54105   0.62892   0.01267  Uiso   1.00
Tb4    Tb    0.88783   0.95895   0.37108   0.01267  Uiso   1.00
H1     H     0.13910   0.54240   0.11000   0.01267  Uiso   1.00
H2     H     0.03790   0.59480   0.96940   0.01267  Uiso   1.00
H3     H     0.31920   0.64850   0.94200   0.01267  Uiso   1.00
H4     H     0.42140   0.60300   0.08900   0.01267  Uiso   1.00
H5     H     0.81700   0.57130   0.68760   0.01267  Uiso   1.00
H6     H     0.04810   0.77450   0.71780   0.01267  Uiso   1.00
H7     H     0.79570   0.69730   0.46820   0.01267  Uiso   1.00
H8     H     0.16300   0.69100   0.83400   0.01267  Uiso   1.00
H9     H     0.02910   0.95760   0.89000   0.01267  Uiso   1.00
H10    H     0.06850   0.90520   0.03060   0.01267  Uiso   1.00
H11    H     0.37720   0.85150   0.05800   0.01267  Uiso   1.00
H12    H     0.33240   0.89700   0.91100   0.01267  Uiso   1.00
H13    H     0.12940   0.92870   0.31240   0.01267  Uiso   1.00
H14    H     0.33030   0.72550   0.28220   0.01267  Uiso   1.00
H15    H     0.32750   0.80270   0.53180   0.01267  Uiso   1.00
H16    H     0.32900   0.80900   0.16600   0.01267  Uiso   1.00
H17    H     0.86090   0.45760   0.89000   0.01267  Uiso   1.00
H18    H     0.96210   0.40520   0.03060   0.01267  Uiso   1.00
H19    H     0.68080   0.35150   0.05800   0.01267  Uiso   1.00
H20    H     0.57860   0.39700   0.91100   0.01267  Uiso   1.00
H21    H     0.18300   0.42870   0.31240   0.01267  Uiso   1.00
H22    H     0.95190   0.22550   0.28220   0.01267  Uiso   1.00
H23    H     0.20430   0.30270   0.53180   0.01267  Uiso   1.00
H24    H     0.83700   0.30900   0.16600   0.01267  Uiso   1.00
H25    H     0.97090   0.04240   0.11000   0.01267  Uiso   1.00
H26    H     0.93150   0.09480   0.96940   0.01267  Uiso   1.00
H27    H     0.62280   0.14850   0.94200   0.01267  Uiso   1.00
H28    H     0.66760   0.10300   0.08900   0.01267  Uiso   1.00
H29    H     0.87060   0.07130   0.68760   0.01267  Uiso   1.00
H30    H     0.66970   0.27450   0.71780   0.01267  Uiso   1.00
H31    H     0.67250   0.19730   0.46820   0.01267  Uiso   1.00
H32    H     0.67100   0.19100   0.83400   0.01267  Uiso   1.00
C1     C     0.35490   0.52680   0.20240   0.01267  Uiso   1.00
C2     C     0.29000   0.56440   0.11120   0.01267  Uiso   1.00
C3     C     0.17630   0.56380   0.07660   0.01267  Uiso   1.00
C4     C     0.11570   0.59470   0.99200   0.01267  Uiso   1.00
C5     C     0.16770   0.62490   0.94180   0.01267  Uiso   1.00
C6     C     0.28230   0.62770   0.97600   0.01267  Uiso   1.00
C7     C     0.34340   0.59860   0.06360   0.01267  Uiso   1.00
C8     C     0.10620   0.65260   0.84680   0.01267  Uiso   1.00
C9     C     0.68620   0.56500   0.50740   0.01267  Uiso   1.00
C10    C     0.78940   0.62510   0.56860   0.01267  Uiso   1.00
C11    C     0.84610   0.61480   0.66220   0.01267  Uiso   1.00
C12    C     0.94320   0.66740   0.71680   0.01267  Uiso   1.00
C13    C     0.98320   0.73680   0.68020   0.01267  Uiso   1.00
C14    C     0.92580   0.74980   0.58720   0.01267  Uiso   1.00
C15    C     0.83130   0.69180   0.53100   0.01267  Uiso   1.00
C16    C     0.96530   0.82760   0.54860   0.01267  Uiso   1.00
C17    C     0.15250   0.97320   0.79760   0.01267  Uiso   1.00
C18    C     0.17880   0.93560   0.88880   0.01267  Uiso   1.00
C19    C     0.09970   0.93620   0.92340   0.01267  Uiso   1.00
C20    C     0.12370   0.90530   0.00800   0.01267  Uiso   1.00
C21    C     0.22590   0.87510   0.05820   0.01267  Uiso   1.00
C22    C     0.30630   0.87230   0.02400   0.01267  Uiso   1.00
C23    C     0.27980   0.90140   0.93640   0.01267  Uiso   1.00
C24    C     0.25940   0.84740   0.15320   0.01267  Uiso   1.00
C25    C     0.17880   0.93500   0.49260   0.01267  Uiso   1.00
C26    C     0.22080   0.87490   0.43140   0.01267  Uiso   1.00
C27    C     0.18390   0.88520   0.33780   0.01267  Uiso   1.00
C28    C     0.22640   0.83260   0.28320   0.01267  Uiso   1.00
C29    C     0.30300   0.76320   0.31980   0.01267  Uiso   1.00
C30    C     0.33860   0.75020   0.41280   0.01267  Uiso   1.00
C31    C     0.30030   0.80820   0.46900   0.01267  Uiso   1.00
C32    C     0.41670   0.67240   0.45140   0.01267  Uiso   1.00
C33    C     0.64510   0.47320   0.79760   0.01267  Uiso   1.00
C34    C     0.71000   0.43560   0.88880   0.01267  Uiso   1.00
C35    C     0.82370   0.43620   0.92340   0.01267  Uiso   1.00
C36    C     0.88430   0.40530   0.00800   0.01267  Uiso   1.00
C37    C     0.83230   0.37510   0.05820   0.01267  Uiso   1.00
C38    C     0.71770   0.37230   0.02400   0.01267  Uiso   1.00
C39    C     0.65660   0.40140   0.93640   0.01267  Uiso   1.00
C40    C     0.89380   0.34740   0.15320   0.01267  Uiso   1.00
C41    C     0.31380   0.43500   0.49260   0.01267  Uiso   1.00
C42    C     0.21060   0.37490   0.43140   0.01267  Uiso   1.00
C43    C     0.15390   0.38520   0.33780   0.01267  Uiso   1.00
C44    C     0.05680   0.33260   0.28320   0.01267  Uiso   1.00
C45    C     0.01680   0.26320   0.31980   0.01267  Uiso   1.00
C46    C     0.07420   0.25020   0.41280   0.01267  Uiso   1.00
C47    C     0.16870   0.30820   0.46900   0.01267  Uiso   1.00
C48    C     0.03470   0.17240   0.45140   0.01267  Uiso   1.00
C49    C     0.84750   0.02680   0.20240   0.01267  Uiso   1.00
C50    C     0.82120   0.06440   0.11120   0.01267  Uiso   1.00
C51    C     0.90030   0.06380   0.07660   0.01267  Uiso   1.00
C52    C     0.87630   0.09470   0.99200   0.01267  Uiso   1.00
C53    C     0.77410   0.12490   0.94180   0.01267  Uiso   1.00
C54    C     0.69370   0.12770   0.97600   0.01267  Uiso   1.00
C55    C     0.72020   0.09860   0.06360   0.01267  Uiso   1.00
C56    C     0.74060   0.15260   0.84680   0.01267  Uiso   1.00
C57    C     0.82120   0.06500   0.50740   0.01267  Uiso   1.00
C58    C     0.77920   0.12510   0.56860   0.01267  Uiso   1.00
C59    C     0.81610   0.11480   0.66220   0.01267  Uiso   1.00
C60    C     0.77360   0.16740   0.71680   0.01267  Uiso   1.00
C61    C     0.69700   0.23680   0.68020   0.01267  Uiso   1.00
C62    C     0.66140   0.24980   0.58720   0.01267  Uiso   1.00
C63    C     0.69970   0.19180   0.53100   0.01267  Uiso   1.00
C64    C     0.58330   0.32760   0.54860   0.01267  Uiso   1.00
N1     N     0.99836   0.64730   0.80892   0.01267  Uiso   1.00
N2     N     0.18944   0.85270   0.19108   0.01267  Uiso   1.00
N3     N     0.00164   0.35270   0.19108   0.01267  Uiso   1.00
N4     N     0.81056   0.14730   0.80892   0.01267  Uiso   1.00
O1     O     0.30461   0.49990   0.24782   0.01267  Uiso   1.00
O2     O     0.46021   0.52430   0.22982   0.01267  Uiso   1.00
O3     O     0.62238   0.53250   0.54176   0.01267  Uiso   1.00
O4     O     0.66209   0.54560   0.42258   0.01267  Uiso   1.00
O5     O     0.05347   0.87450   0.59994   0.01267  Uiso   1.00
O6     O     0.90415   0.83890   0.46570   0.01267  Uiso   1.00
O7     O     0.05679   0.00010   0.75218   0.01267  Uiso   1.00
O8     O     0.23039   0.97570   0.77018   0.01267  Uiso   1.00
O9     O     0.08062   0.96750   0.45824   0.01267  Uiso   1.00
O10    O     0.23951   0.95440   0.57742   0.01267  Uiso   1.00
O11    O     0.45353   0.62550   0.40006   0.01267  Uiso   1.00
O12    O     0.43845   0.66110   0.53430   0.01267  Uiso   1.00
O13    O     0.69539   0.50010   0.75218   0.01267  Uiso   1.00
O14    O     0.53979   0.47570   0.77018   0.01267  Uiso   1.00
O15    O     0.37762   0.46750   0.45824   0.01267  Uiso   1.00
O16    O     0.33791   0.45440   0.57742   0.01267  Uiso   1.00
O17    O     0.94653   0.12550   0.40006   0.01267  Uiso   1.00
O18    O     0.09585   0.16110   0.53430   0.01267  Uiso   1.00
O19    O     0.94321   0.99990   0.24782   0.01267  Uiso   1.00
O20    O     0.76961   0.02430   0.22982   0.01267  Uiso   1.00
O21    O     0.91938   0.03250   0.54176   0.01267  Uiso   1.00
O22    O     0.76049   0.04560   0.42258   0.01267  Uiso   1.00
O23    O     0.54647   0.37450   0.59994   0.01267  Uiso   1.00
O24    O     0.56155   0.33890   0.46570   0.01267  Uiso   1.00
