data_BETDAH_clean
_audit_creation_date              2014-07-02
_audit_creation_method            'Materials Studio'
_symmetry_space_group_name_H-M    'P1'
_symmetry_Int_Tables_number       1
_symmetry_cell_setting            triclinic
loop_
_symmetry_equiv_pos_as_xyz
  x,y,z
_cell_length_a                    13.3467
_cell_length_b                    14.3540
_cell_length_c                    16.0336
_cell_angle_alpha                 116.5910
_cell_angle_beta                  98.6210
_cell_angle_gamma                 90.0000
loop_
_atom_site_label
_atom_site_type_symbol
_atom_site_fract_x
_atom_site_fract_y
_atom_site_fract_z
_atom_site_U_iso_or_equiv
_atom_site_adp_type
_atom_site_occupancy
Ho1    Ho    0.96027   0.89592   0.36682   0.01267  Uiso   1.00
Ho2    Ho    0.53973   0.52910   0.63318   0.01267  Uiso   1.00
Ho3    Ho    0.03973   0.10408   0.63318   0.01267  Uiso   1.00
Ho4    Ho    0.46027   0.47090   0.36682   0.01267  Uiso   1.00
H1     H     0.45000   0.86680   0.88420   0.01267  Uiso   1.00
H2     H     0.39380   0.97280   0.02960   0.01267  Uiso   1.00
H3     H     0.38080   0.72790   0.08080   0.01267  Uiso   1.00
H4     H     0.40330   0.61740   0.92560   0.01267  Uiso   1.00
H5     H     0.29670   0.22650   0.54020   0.01267  Uiso   1.00
H6     H     0.22700   0.97240   0.28780   0.01267  Uiso   1.00
H7     H     0.42180   0.20210   0.31760   0.01267  Uiso   1.00
H8     H     0.05000   0.98260   0.11580   0.01267  Uiso   1.00
H9     H     0.10620   0.94320   0.97040   0.01267  Uiso   1.00
H10    H     0.11920   0.64710   0.91920   0.01267  Uiso   1.00
H11    H     0.09670   0.69180   0.07440   0.01267  Uiso   1.00
H12    H     0.20330   0.68630   0.45980   0.01267  Uiso   1.00
H13    H     0.27300   0.68460   0.71220   0.01267  Uiso   1.00
H14    H     0.07820   0.88450   0.68240   0.01267  Uiso   1.00
H15    H     0.55000   0.13320   0.11580   0.01267  Uiso   1.00
H16    H     0.60620   0.02720   0.97040   0.01267  Uiso   1.00
H17    H     0.61920   0.27210   0.91920   0.01267  Uiso   1.00
H18    H     0.59670   0.38260   0.07440   0.01267  Uiso   1.00
H19    H     0.70330   0.77350   0.45980   0.01267  Uiso   1.00
H20    H     0.77300   0.02760   0.71220   0.01267  Uiso   1.00
H21    H     0.57820   0.79790   0.68240   0.01267  Uiso   1.00
H22    H     0.95000   0.01740   0.88420   0.01267  Uiso   1.00
H23    H     0.89380   0.05680   0.02960   0.01267  Uiso   1.00
H24    H     0.88080   0.35290   0.08080   0.01267  Uiso   1.00
H25    H     0.90330   0.30820   0.92560   0.01267  Uiso   1.00
H26    H     0.79670   0.31370   0.54020   0.01267  Uiso   1.00
H27    H     0.72700   0.31540   0.28780   0.01267  Uiso   1.00
H28    H     0.92180   0.11550   0.31760   0.01267  Uiso   1.00
C1     C     0.48000   0.66610   0.80500   0.01267  Uiso   1.00
C2     C     0.44300   0.73450   0.89440   0.01267  Uiso   1.00
C3     C     0.43410   0.83730   0.92220   0.01267  Uiso   1.00
C4     C     0.40000   0.90180   0.01020   0.01267  Uiso   1.00
C5     C     0.37690   0.85570   0.06500   0.01267  Uiso   1.00
C6     C     0.38800   0.75550   0.03900   0.01267  Uiso   1.00
C7     C     0.41000   0.68960   0.94900   0.01267  Uiso   1.00
C8     C     0.35110   0.92210   0.16120   0.01267  Uiso   1.00
C9     C     0.42640   0.33450   0.49800   0.01267  Uiso   1.00
C10    C     0.37010   0.23050   0.43960   0.01267  Uiso   1.00
C11    C     0.30440   0.18950   0.47720   0.01267  Uiso   1.00
C12    C     0.25020   0.09300   0.41980   0.01267  Uiso   1.00
C13    C     0.26380   0.03620   0.32600   0.01267  Uiso   1.00
C14    C     0.33190   0.07450   0.28980   0.01267  Uiso   1.00
C15    C     0.38140   0.17360   0.34420   0.01267  Uiso   1.00
C16    C     0.17270   0.05100   0.45760   0.01267  Uiso   1.00
C17    C     0.02000   0.86110   0.19500   0.01267  Uiso   1.00
C18    C     0.05700   0.84010   0.10560   0.01267  Uiso   1.00
C19    C     0.06590   0.91510   0.07780   0.01267  Uiso   1.00
C20    C     0.10000   0.89160   0.98980   0.01267  Uiso   1.00
C21    C     0.12310   0.79070   0.93500   0.01267  Uiso   1.00
C22    C     0.11200   0.71650   0.96100   0.01267  Uiso   1.00
C23    C     0.09000   0.74060   0.05100   0.01267  Uiso   1.00
C24    C     0.14890   0.76090   0.83880   0.01267  Uiso   1.00
C25    C     0.07360   0.83650   0.50200   0.01267  Uiso   1.00
C26    C     0.12990   0.79090   0.56040   0.01267  Uiso   1.00
C27    C     0.19560   0.71230   0.52280   0.01267  Uiso   1.00
C28    C     0.24980   0.67320   0.58020   0.01267  Uiso   1.00
C29    C     0.23620   0.71020   0.67400   0.01267  Uiso   1.00
C30    C     0.16810   0.78470   0.71020   0.01267  Uiso   1.00
C31    C     0.11860   0.82940   0.65580   0.01267  Uiso   1.00
C32    C     0.32730   0.59340   0.54240   0.01267  Uiso   1.00
C33    C     0.52000   0.33390   0.19500   0.01267  Uiso   1.00
C34    C     0.55700   0.26550   0.10560   0.01267  Uiso   1.00
C35    C     0.56590   0.16270   0.07780   0.01267  Uiso   1.00
C36    C     0.60000   0.09820   0.98980   0.01267  Uiso   1.00
C37    C     0.62310   0.14430   0.93500   0.01267  Uiso   1.00
C38    C     0.61200   0.24450   0.96100   0.01267  Uiso   1.00
C39    C     0.59000   0.31040   0.05100   0.01267  Uiso   1.00
C40    C     0.64890   0.07790   0.83880   0.01267  Uiso   1.00
C41    C     0.57360   0.66550   0.50200   0.01267  Uiso   1.00
C42    C     0.62990   0.76950   0.56040   0.01267  Uiso   1.00
C43    C     0.69560   0.81050   0.52280   0.01267  Uiso   1.00
C44    C     0.74980   0.90700   0.58020   0.01267  Uiso   1.00
C45    C     0.73620   0.96380   0.67400   0.01267  Uiso   1.00
C46    C     0.66810   0.92550   0.71020   0.01267  Uiso   1.00
C47    C     0.61860   0.82640   0.65580   0.01267  Uiso   1.00
C48    C     0.82730   0.94900   0.54240   0.01267  Uiso   1.00
C49    C     0.98000   0.13890   0.80500   0.01267  Uiso   1.00
C50    C     0.94300   0.15990   0.89440   0.01267  Uiso   1.00
C51    C     0.93410   0.08490   0.92220   0.01267  Uiso   1.00
C52    C     0.90000   0.10840   0.01020   0.01267  Uiso   1.00
C53    C     0.87690   0.20930   0.06500   0.01267  Uiso   1.00
C54    C     0.88800   0.28350   0.03900   0.01267  Uiso   1.00
C55    C     0.91000   0.25940   0.94900   0.01267  Uiso   1.00
C56    C     0.85110   0.23910   0.16120   0.01267  Uiso   1.00
C57    C     0.92640   0.16350   0.49800   0.01267  Uiso   1.00
C58    C     0.87010   0.20910   0.43960   0.01267  Uiso   1.00
C59    C     0.80440   0.28770   0.47720   0.01267  Uiso   1.00
C60    C     0.75020   0.32680   0.41980   0.01267  Uiso   1.00
C61    C     0.76380   0.28980   0.32600   0.01267  Uiso   1.00
C62    C     0.83190   0.21530   0.28980   0.01267  Uiso   1.00
C63    C     0.88140   0.17060   0.34420   0.01267  Uiso   1.00
C64    C     0.67270   0.40660   0.45760   0.01267  Uiso   1.00
N1     N     0.35020   0.01880   0.19540   0.01267  Uiso   1.00
N2     N     0.14980   0.82340   0.80460   0.01267  Uiso   1.00
N3     N     0.64980   0.98120   0.80460   0.01267  Uiso   1.00
N4     N     0.85020   0.17660   0.19540   0.01267  Uiso   1.00
O1     O     0.48160   0.57250   0.77840   0.01267  Uiso   1.00
O2     O     0.50600   0.70800   0.75440   0.01267  Uiso   1.00
O3     O     0.44560   0.36800   0.58740   0.01267  Uiso   1.00
O4     O     0.45530   0.38730   0.46000   0.01267  Uiso   1.00
O5     O     0.12790   0.96300   0.40140   0.01267  Uiso   1.00
O6     O     0.16090   0.10730   0.54240   0.01267  Uiso   1.00
O7     O     0.01840   0.79410   0.22160   0.01267  Uiso   1.00
O8     O     0.99400   0.95360   0.24560   0.01267  Uiso   1.00
O9     O     0.05440   0.78060   0.41260   0.01267  Uiso   1.00
O10    O     0.04470   0.92730   0.54000   0.01267  Uiso   1.00
O11    O     0.37210   0.56160   0.59860   0.01267  Uiso   1.00
O12    O     0.33910   0.56490   0.45760   0.01267  Uiso   1.00
O13    O     0.51840   0.42750   0.22160   0.01267  Uiso   1.00
O14    O     0.49400   0.29200   0.24560   0.01267  Uiso   1.00
O15    O     0.55440   0.63200   0.41260   0.01267  Uiso   1.00
O16    O     0.54470   0.61270   0.54000   0.01267  Uiso   1.00
O17    O     0.87210   0.03700   0.59860   0.01267  Uiso   1.00
O18    O     0.83910   0.89270   0.45760   0.01267  Uiso   1.00
O19    O     0.98160   0.20590   0.77840   0.01267  Uiso   1.00
O20    O     0.00600   0.04640   0.75440   0.01267  Uiso   1.00
O21    O     0.94560   0.21940   0.58740   0.01267  Uiso   1.00
O22    O     0.95530   0.07270   0.46000   0.01267  Uiso   1.00
O23    O     0.62790   0.43840   0.40140   0.01267  Uiso   1.00
O24    O     0.66090   0.43510   0.54240   0.01267  Uiso   1.00
