data_BETFEN_clean
_audit_creation_date              2014-07-02
_audit_creation_method            'Materials Studio'
_symmetry_space_group_name_H-M    'P1'
_symmetry_Int_Tables_number       1
_symmetry_cell_setting            triclinic
loop_
_symmetry_equiv_pos_as_xyz
  x,y,z
_cell_length_a                    13.6347
_cell_length_b                    14.3145
_cell_length_c                    16.1151
_cell_angle_alpha                 116.3680
_cell_angle_beta                  98.6325
_cell_angle_gamma                 90.0000
loop_
_atom_site_label
_atom_site_type_symbol
_atom_site_fract_x
_atom_site_fract_y
_atom_site_fract_z
_atom_site_U_iso_or_equiv
_atom_site_adp_type
_atom_site_occupancy
Pr1    Pr    0.04320   0.03095   0.63654   0.01267  Uiso   1.00
Pr2    Pr    0.45680   0.39441   0.36346   0.01267  Uiso   1.00
Pr3    Pr    0.95680   0.96905   0.36346   0.01267  Uiso   1.00
Pr4    Pr    0.54320   0.60559   0.63654   0.01267  Uiso   1.00
H1     H     0.92050   0.11970   0.93740   0.01267  Uiso   1.00
H2     H     0.88660   0.22350   0.08460   0.01267  Uiso   1.00
H3     H     0.89890   0.47190   0.03340   0.01267  Uiso   1.00
H4     H     0.94760   0.36670   0.88940   0.01267  Uiso   1.00
H5     H     0.88200   0.38600   0.20000   0.01267  Uiso   1.00
H6     H     0.79970   0.72170   0.54040   0.01267  Uiso   1.00
H7     H     0.72420   0.47170   0.28780   0.01267  Uiso   1.00
H8     H     0.91980   0.69900   0.31920   0.01267  Uiso   1.00
H9     H     0.57950   0.18230   0.06260   0.01267  Uiso   1.00
H10    H     0.61340   0.13890   0.91540   0.01267  Uiso   1.00
H11    H     0.60110   0.43850   0.96660   0.01267  Uiso   1.00
H12    H     0.55240   0.47730   0.11060   0.01267  Uiso   1.00
H13    H     0.61800   0.18600   0.80000   0.01267  Uiso   1.00
H14    H     0.70030   0.18130   0.45960   0.01267  Uiso   1.00
H15    H     0.77580   0.18390   0.71220   0.01267  Uiso   1.00
H16    H     0.58020   0.37980   0.68080   0.01267  Uiso   1.00
H17    H     0.07950   0.88030   0.06260   0.01267  Uiso   1.00
H18    H     0.11340   0.77650   0.91540   0.01267  Uiso   1.00
H19    H     0.10110   0.52810   0.96660   0.01267  Uiso   1.00
H20    H     0.05240   0.63330   0.11060   0.01267  Uiso   1.00
H21    H     0.11800   0.61400   0.80000   0.01267  Uiso   1.00
H22    H     0.20030   0.27830   0.45960   0.01267  Uiso   1.00
H23    H     0.27580   0.52830   0.71220   0.01267  Uiso   1.00
H24    H     0.08020   0.30100   0.68080   0.01267  Uiso   1.00
H25    H     0.42050   0.81770   0.93740   0.01267  Uiso   1.00
H26    H     0.38660   0.86110   0.08460   0.01267  Uiso   1.00
H27    H     0.39890   0.56150   0.03340   0.01267  Uiso   1.00
H28    H     0.44760   0.52270   0.88940   0.01267  Uiso   1.00
H29    H     0.38200   0.81400   0.20000   0.01267  Uiso   1.00
H30    H     0.29970   0.81870   0.54040   0.01267  Uiso   1.00
H31    H     0.22420   0.81610   0.28780   0.01267  Uiso   1.00
H32    H     0.41980   0.62020   0.31920   0.01267  Uiso   1.00
C1     C     0.97860   0.16740   0.81000   0.01267  Uiso   1.00
C2     C     0.94290   0.23370   0.89980   0.01267  Uiso   1.00
C3     C     0.91920   0.19140   0.95780   0.01267  Uiso   1.00
C4     C     0.89410   0.25200   0.04400   0.01267  Uiso   1.00
C5     C     0.88020   0.35660   0.06980   0.01267  Uiso   1.00
C6     C     0.90330   0.40060   0.01420   0.01267  Uiso   1.00
C7     C     0.93370   0.33720   0.92780   0.01267  Uiso   1.00
C8     C     0.85540   0.42050   0.16340   0.01267  Uiso   1.00
C9     C     0.93000   0.82970   0.50200   0.01267  Uiso   1.00
C10    C     0.87200   0.72490   0.43980   0.01267  Uiso   1.00
C11    C     0.80680   0.68460   0.47760   0.01267  Uiso   1.00
C12    C     0.75270   0.58900   0.42100   0.01267  Uiso   1.00
C13    C     0.76310   0.53360   0.32680   0.01267  Uiso   1.00
C14    C     0.83280   0.57210   0.29160   0.01267  Uiso   1.00
C15    C     0.88100   0.66980   0.34580   0.01267  Uiso   1.00
C16    C     0.67850   0.55030   0.45780   0.01267  Uiso   1.00
C17    C     0.52140   0.35740   0.19000   0.01267  Uiso   1.00
C18    C     0.55710   0.33390   0.10020   0.01267  Uiso   1.00
C19    C     0.58080   0.23360   0.04220   0.01267  Uiso   1.00
C20    C     0.60590   0.20800   0.95600   0.01267  Uiso   1.00
C21    C     0.61980   0.28680   0.93020   0.01267  Uiso   1.00
C22    C     0.59670   0.38640   0.98580   0.01267  Uiso   1.00
C23    C     0.56630   0.40940   0.07220   0.01267  Uiso   1.00
C24    C     0.64460   0.25710   0.83660   0.01267  Uiso   1.00
C25    C     0.57000   0.32770   0.49800   0.01267  Uiso   1.00
C26    C     0.62800   0.28510   0.56020   0.01267  Uiso   1.00
C27    C     0.69320   0.20700   0.52240   0.01267  Uiso   1.00
C28    C     0.74730   0.16800   0.57900   0.01267  Uiso   1.00
C29    C     0.73690   0.20680   0.67320   0.01267  Uiso   1.00
C30    C     0.66720   0.28050   0.70840   0.01267  Uiso   1.00
C31    C     0.61900   0.32400   0.65420   0.01267  Uiso   1.00
C32    C     0.82150   0.09250   0.54220   0.01267  Uiso   1.00
C33    C     0.02140   0.83260   0.19000   0.01267  Uiso   1.00
C34    C     0.05710   0.76630   0.10020   0.01267  Uiso   1.00
C35    C     0.08080   0.80860   0.04220   0.01267  Uiso   1.00
C36    C     0.10590   0.74800   0.95600   0.01267  Uiso   1.00
C37    C     0.11980   0.64340   0.93020   0.01267  Uiso   1.00
C38    C     0.09670   0.59940   0.98580   0.01267  Uiso   1.00
C39    C     0.06630   0.66280   0.07220   0.01267  Uiso   1.00
C40    C     0.14460   0.57950   0.83660   0.01267  Uiso   1.00
C41    C     0.07000   0.17030   0.49800   0.01267  Uiso   1.00
C42    C     0.12800   0.27510   0.56020   0.01267  Uiso   1.00
C43    C     0.19320   0.31540   0.52240   0.01267  Uiso   1.00
C44    C     0.24730   0.41100   0.57900   0.01267  Uiso   1.00
C45    C     0.23690   0.46640   0.67320   0.01267  Uiso   1.00
C46    C     0.16720   0.42790   0.70840   0.01267  Uiso   1.00
C47    C     0.11900   0.33020   0.65420   0.01267  Uiso   1.00
C48    C     0.32150   0.44970   0.54220   0.01267  Uiso   1.00
C49    C     0.47860   0.64260   0.81000   0.01267  Uiso   1.00
C50    C     0.44290   0.66610   0.89980   0.01267  Uiso   1.00
C51    C     0.41920   0.76640   0.95780   0.01267  Uiso   1.00
C52    C     0.39410   0.79200   0.04400   0.01267  Uiso   1.00
C53    C     0.38020   0.71320   0.06980   0.01267  Uiso   1.00
C54    C     0.40330   0.61360   0.01420   0.01267  Uiso   1.00
C55    C     0.43370   0.59060   0.92780   0.01267  Uiso   1.00
C56    C     0.35540   0.74290   0.16340   0.01267  Uiso   1.00
C57    C     0.43000   0.67230   0.50200   0.01267  Uiso   1.00
C58    C     0.37200   0.71490   0.43980   0.01267  Uiso   1.00
C59    C     0.30680   0.79300   0.47760   0.01267  Uiso   1.00
C60    C     0.25270   0.83200   0.42100   0.01267  Uiso   1.00
C61    C     0.26310   0.79320   0.32680   0.01267  Uiso   1.00
C62    C     0.33280   0.71950   0.29160   0.01267  Uiso   1.00
C63    C     0.38100   0.67600   0.34580   0.01267  Uiso   1.00
C64    C     0.17850   0.90750   0.45780   0.01267  Uiso   1.00
N1     N     0.85070   0.51560   0.19700   0.01267  Uiso   1.00
N2     N     0.64930   0.31860   0.80300   0.01267  Uiso   1.00
N3     N     0.14930   0.48440   0.80300   0.01267  Uiso   1.00
N4     N     0.35070   0.68140   0.19700   0.01267  Uiso   1.00
O1     O     0.00590   0.20870   0.76220   0.01267  Uiso   1.00
O2     O     0.98230   0.07370   0.78660   0.01267  Uiso   1.00
O3     O     0.96140   0.88302   0.46464   0.01267  Uiso   1.00
O4     O     0.94630   0.86060   0.58880   0.01267  Uiso   1.00
O5     O     0.66900   0.60310   0.54300   0.01267  Uiso   1.00
O6     O     0.62990   0.46300   0.40200   0.01267  Uiso   1.00
O7     O     0.49410   0.44650   0.23780   0.01267  Uiso   1.00
O8     O     0.51770   0.28710   0.21340   0.01267  Uiso   1.00
O9     O     0.53860   0.41838   0.53536   0.01267  Uiso   1.00
O10    O     0.55370   0.27180   0.41120   0.01267  Uiso   1.00
O11    O     0.83100   0.06010   0.45700   0.01267  Uiso   1.00
O12    O     0.87010   0.06100   0.59800   0.01267  Uiso   1.00
O13    O     0.99410   0.79130   0.23780   0.01267  Uiso   1.00
O14    O     0.01770   0.92630   0.21340   0.01267  Uiso   1.00
O15    O     0.03860   0.11698   0.53536   0.01267  Uiso   1.00
O16    O     0.05370   0.13940   0.41120   0.01267  Uiso   1.00
O17    O     0.33100   0.39690   0.45700   0.01267  Uiso   1.00
O18    O     0.37010   0.53700   0.59800   0.01267  Uiso   1.00
O19    O     0.50590   0.55350   0.76220   0.01267  Uiso   1.00
O20    O     0.48230   0.71290   0.78660   0.01267  Uiso   1.00
O21    O     0.46140   0.58162   0.46464   0.01267  Uiso   1.00
O22    O     0.44630   0.72820   0.58880   0.01267  Uiso   1.00
O23    O     0.16900   0.93990   0.54300   0.01267  Uiso   1.00
O24    O     0.12990   0.93900   0.40200   0.01267  Uiso   1.00
