data_image0
_cell_length_a       18.5564
_cell_length_b       18.5564
_cell_length_c       18.5564
_cell_angle_alpha    90
_cell_angle_beta     90
_cell_angle_gamma    90

_symmetry_space_group_name_H-M    "P 1"
_symmetry_int_tables_number       1

loop_
  _symmetry_equiv_pos_as_xyz
  'x, y, z'

loop_
  _atom_site_label
  _atom_site_occupancy
  _atom_site_fract_x
  _atom_site_fract_y
  _atom_site_fract_z
  _atom_site_thermal_displace_type
  _atom_site_B_iso_or_equiv
  _atom_site_type_symbol
  N1       1.0000 0.37153  0.42154  0.07629  Biso   1.000  N
  N2       1.0000 0.32637  0.41064  0.13058  Biso   1.000  N
  N3       1.0000 0.62847  0.57846  0.07629  Biso   1.000  N
  N4       1.0000 0.67363  0.58936  0.13058  Biso   1.000  N
  N5       1.0000 0.62847  0.42154  0.92371  Biso   1.000  N
  N6       1.0000 0.67363  0.41064  0.86942  Biso   1.000  N
  N7       1.0000 0.37153  0.57846  0.92371  Biso   1.000  N
  N8       1.0000 0.32637  0.58936  0.86942  Biso   1.000  N
  N9       1.0000 0.07629  0.37153  0.42154  Biso   1.000  N
  N10      1.0000 0.13058  0.32637  0.41064  Biso   1.000  N
  N11      1.0000 0.07629  0.62847  0.57846  Biso   1.000  N
  N12      1.0000 0.13058  0.67363  0.58936  Biso   1.000  N
  N13      1.0000 0.92371  0.62847  0.42154  Biso   1.000  N
  N14      1.0000 0.86942  0.67363  0.41064  Biso   1.000  N
  N15      1.0000 0.92371  0.37153  0.57846  Biso   1.000  N
  N16      1.0000 0.86942  0.32637  0.58936  Biso   1.000  N
  N17      1.0000 0.42154  0.07629  0.37153  Biso   1.000  N
  N18      1.0000 0.41064  0.13058  0.32637  Biso   1.000  N
  N19      1.0000 0.57846  0.07629  0.62847  Biso   1.000  N
  N20      1.0000 0.58936  0.13058  0.67363  Biso   1.000  N
  N21      1.0000 0.42154  0.92371  0.62847  Biso   1.000  N
  N22      1.0000 0.41064  0.86942  0.67363  Biso   1.000  N
  N23      1.0000 0.57846  0.92371  0.37153  Biso   1.000  N
  N24      1.0000 0.58936  0.86942  0.32637  Biso   1.000  N
  N25      1.0000 0.42154  0.37153  0.92371  Biso   1.000  N
  N26      1.0000 0.41064  0.32637  0.86942  Biso   1.000  N
  N27      1.0000 0.57846  0.62847  0.92371  Biso   1.000  N
  N28      1.0000 0.58936  0.67363  0.86942  Biso   1.000  N
  N29      1.0000 0.42154  0.62847  0.07629  Biso   1.000  N
  N30      1.0000 0.41064  0.67363  0.13058  Biso   1.000  N
  N31      1.0000 0.57846  0.37153  0.07629  Biso   1.000  N
  N32      1.0000 0.58936  0.32637  0.13058  Biso   1.000  N
  N33      1.0000 0.37153  0.07629  0.57846  Biso   1.000  N
  N34      1.0000 0.32637  0.13058  0.58936  Biso   1.000  N
  N35      1.0000 0.62847  0.07629  0.42154  Biso   1.000  N
  N36      1.0000 0.67363  0.13058  0.41064  Biso   1.000  N
  N37      1.0000 0.62847  0.92371  0.57846  Biso   1.000  N
  N38      1.0000 0.67363  0.86942  0.58936  Biso   1.000  N
  N39      1.0000 0.37153  0.92371  0.42154  Biso   1.000  N
  N40      1.0000 0.32637  0.86942  0.41064  Biso   1.000  N
  N41      1.0000 0.07629  0.42154  0.62847  Biso   1.000  N
  N42      1.0000 0.13058  0.41064  0.67363  Biso   1.000  N
  N43      1.0000 0.07629  0.57846  0.37153  Biso   1.000  N
  N44      1.0000 0.13058  0.58936  0.32637  Biso   1.000  N
  N45      1.0000 0.92371  0.42154  0.37153  Biso   1.000  N
  N46      1.0000 0.86942  0.41064  0.32637  Biso   1.000  N
  N47      1.0000 0.92371  0.57846  0.62847  Biso   1.000  N
  N48      1.0000 0.86942  0.58936  0.67363  Biso   1.000  N
  N49      1.0000 0.62847  0.57846  0.92371  Biso   1.000  N
  N50      1.0000 0.67363  0.58936  0.86942  Biso   1.000  N
  N51      1.0000 0.37153  0.42154  0.92371  Biso   1.000  N
  N52      1.0000 0.32637  0.41064  0.86942  Biso   1.000  N
  N53      1.0000 0.37153  0.57846  0.07629  Biso   1.000  N
  N54      1.0000 0.32637  0.58936  0.13058  Biso   1.000  N
  N55      1.0000 0.62847  0.42154  0.07629  Biso   1.000  N
  N56      1.0000 0.67363  0.41064  0.13058  Biso   1.000  N
  N57      1.0000 0.92371  0.62847  0.57846  Biso   1.000  N
  N58      1.0000 0.86942  0.67363  0.58936  Biso   1.000  N
  N59      1.0000 0.92371  0.37153  0.42154  Biso   1.000  N
  N60      1.0000 0.86942  0.32637  0.41064  Biso   1.000  N
  N61      1.0000 0.07629  0.37153  0.57846  Biso   1.000  N
  N62      1.0000 0.13058  0.32637  0.58936  Biso   1.000  N
  N63      1.0000 0.07629  0.62847  0.42154  Biso   1.000  N
  N64      1.0000 0.13058  0.67363  0.41064  Biso   1.000  N
  N65      1.0000 0.57846  0.92371  0.62847  Biso   1.000  N
  N66      1.0000 0.58936  0.86942  0.67363  Biso   1.000  N
  N67      1.0000 0.42154  0.92371  0.37153  Biso   1.000  N
  N68      1.0000 0.41064  0.86942  0.32637  Biso   1.000  N
  N69      1.0000 0.57846  0.07629  0.37153  Biso   1.000  N
  N70      1.0000 0.58936  0.13058  0.32637  Biso   1.000  N
  N71      1.0000 0.42154  0.07629  0.62847  Biso   1.000  N
  N72      1.0000 0.41064  0.13058  0.67363  Biso   1.000  N
  N73      1.0000 0.57846  0.62847  0.07629  Biso   1.000  N
  N74      1.0000 0.58936  0.67363  0.13058  Biso   1.000  N
  N75      1.0000 0.42154  0.37153  0.07629  Biso   1.000  N
  N76      1.0000 0.41064  0.32637  0.13058  Biso   1.000  N
  N77      1.0000 0.57846  0.37153  0.92371  Biso   1.000  N
  N78      1.0000 0.58936  0.32637  0.86942  Biso   1.000  N
  N79      1.0000 0.42154  0.62847  0.92371  Biso   1.000  N
  N80      1.0000 0.41064  0.67363  0.86942  Biso   1.000  N
  N81      1.0000 0.62847  0.92371  0.42154  Biso   1.000  N
  N82      1.0000 0.67363  0.86942  0.41064  Biso   1.000  N
  N83      1.0000 0.37153  0.92371  0.57846  Biso   1.000  N
  N84      1.0000 0.32637  0.86942  0.58936  Biso   1.000  N
  N85      1.0000 0.37153  0.07629  0.42154  Biso   1.000  N
  N86      1.0000 0.32637  0.13058  0.41064  Biso   1.000  N
  N87      1.0000 0.62847  0.07629  0.57846  Biso   1.000  N
  N88      1.0000 0.67363  0.13058  0.58936  Biso   1.000  N
  N89      1.0000 0.92371  0.57846  0.37153  Biso   1.000  N
  N90      1.0000 0.86942  0.58936  0.32637  Biso   1.000  N
  N91      1.0000 0.92371  0.42154  0.62847  Biso   1.000  N
  N92      1.0000 0.86942  0.41064  0.67363  Biso   1.000  N
  N93      1.0000 0.07629  0.57846  0.62847  Biso   1.000  N
  N94      1.0000 0.13058  0.58936  0.67363  Biso   1.000  N
  N95      1.0000 0.07629  0.42154  0.37153  Biso   1.000  N
  N96      1.0000 0.13058  0.41064  0.32637  Biso   1.000  N
  Ni1      1.0000 0.36647  0.50000  0.00000  Biso   1.000  Ni
  Ni2      1.0000 0.63353  0.50000  0.00000  Biso   1.000  Ni
  Ni3      1.0000 0.00000  0.36647  0.50000  Biso   1.000  Ni
  Ni4      1.0000 0.00000  0.63353  0.50000  Biso   1.000  Ni
  Ni5      1.0000 0.50000  0.00000  0.36647  Biso   1.000  Ni
  Ni6      1.0000 0.50000  0.00000  0.63353  Biso   1.000  Ni
  Ni7      1.0000 0.50000  0.36647  0.00000  Biso   1.000  Ni
  Ni8      1.0000 0.50000  0.63353  0.00000  Biso   1.000  Ni
  Ni9      1.0000 0.36647  0.00000  0.50000  Biso   1.000  Ni
  Ni10     1.0000 0.63353  0.00000  0.50000  Biso   1.000  Ni
  Ni11     1.0000 0.00000  0.50000  0.63353  Biso   1.000  Ni
  Ni12     1.0000 0.00000  0.50000  0.36647  Biso   1.000  Ni
  C1       1.0000 0.35110  0.35110  0.16260  Biso   1.000  C
  C2       1.0000 0.31700  0.31700  0.22550  Biso   1.000  C
  C3       1.0000 0.64890  0.64890  0.16260  Biso   1.000  C
  C4       1.0000 0.68300  0.68300  0.22550  Biso   1.000  C
  C5       1.0000 0.64890  0.35110  0.83740  Biso   1.000  C
  C6       1.0000 0.68300  0.31700  0.77450  Biso   1.000  C
  C7       1.0000 0.35110  0.64890  0.83740  Biso   1.000  C
  C8       1.0000 0.31700  0.68300  0.77450  Biso   1.000  C
  C9       1.0000 0.16260  0.35110  0.35110  Biso   1.000  C
  C10      1.0000 0.22550  0.31700  0.31700  Biso   1.000  C
  C11      1.0000 0.16260  0.64890  0.64890  Biso   1.000  C
  C12      1.0000 0.22550  0.68300  0.68300  Biso   1.000  C
  C13      1.0000 0.83740  0.64890  0.35110  Biso   1.000  C
  C14      1.0000 0.77450  0.68300  0.31700  Biso   1.000  C
  C15      1.0000 0.83740  0.35110  0.64890  Biso   1.000  C
  C16      1.0000 0.77450  0.31700  0.68300  Biso   1.000  C
  C17      1.0000 0.35110  0.16260  0.35110  Biso   1.000  C
  C18      1.0000 0.31700  0.22550  0.31700  Biso   1.000  C
  C19      1.0000 0.64890  0.16260  0.64890  Biso   1.000  C
  C20      1.0000 0.68300  0.22550  0.68300  Biso   1.000  C
  C21      1.0000 0.35110  0.83740  0.64890  Biso   1.000  C
  C22      1.0000 0.31700  0.77450  0.68300  Biso   1.000  C
  C23      1.0000 0.64890  0.83740  0.35110  Biso   1.000  C
  C24      1.0000 0.68300  0.77450  0.31700  Biso   1.000  C
  C25      1.0000 0.35110  0.35110  0.83740  Biso   1.000  C
  C26      1.0000 0.31700  0.31700  0.77450  Biso   1.000  C
  C27      1.0000 0.64890  0.64890  0.83740  Biso   1.000  C
  C28      1.0000 0.68300  0.68300  0.77450  Biso   1.000  C
  C29      1.0000 0.35110  0.64890  0.16260  Biso   1.000  C
  C30      1.0000 0.31700  0.68300  0.22550  Biso   1.000  C
  C31      1.0000 0.64890  0.35110  0.16260  Biso   1.000  C
  C32      1.0000 0.68300  0.31700  0.22550  Biso   1.000  C
  C33      1.0000 0.35110  0.16260  0.64890  Biso   1.000  C
  C34      1.0000 0.31700  0.22550  0.68300  Biso   1.000  C
  C35      1.0000 0.64890  0.16260  0.35110  Biso   1.000  C
  C36      1.0000 0.68300  0.22550  0.31700  Biso   1.000  C
  C37      1.0000 0.64890  0.83740  0.64890  Biso   1.000  C
  C38      1.0000 0.68300  0.77450  0.68300  Biso   1.000  C
  C39      1.0000 0.35110  0.83740  0.35110  Biso   1.000  C
  C40      1.0000 0.31700  0.77450  0.31700  Biso   1.000  C
  C41      1.0000 0.16260  0.35110  0.64890  Biso   1.000  C
  C42      1.0000 0.22550  0.31700  0.68300  Biso   1.000  C
  C43      1.0000 0.16260  0.64890  0.35110  Biso   1.000  C
  C44      1.0000 0.22550  0.68300  0.31700  Biso   1.000  C
  C45      1.0000 0.83740  0.35110  0.35110  Biso   1.000  C
  C46      1.0000 0.77450  0.31700  0.31700  Biso   1.000  C
  C47      1.0000 0.83740  0.64890  0.64890  Biso   1.000  C
  C48      1.0000 0.77450  0.68300  0.68300  Biso   1.000  C
  C49      1.0000 0.25580  0.34810  0.25580  Biso   1.000  C
  H1       1.0000 0.23550  0.38910  0.23550  Biso   1.000  H
  C50      1.0000 0.74420  0.65190  0.25580  Biso   1.000  C
  H2       1.0000 0.76450  0.61090  0.23550  Biso   1.000  H
  C51      1.0000 0.74420  0.34810  0.74420  Biso   1.000  C
  H3       1.0000 0.76450  0.38910  0.76450  Biso   1.000  H
  C52      1.0000 0.25580  0.65190  0.74420  Biso   1.000  C
  H4       1.0000 0.23550  0.61090  0.76450  Biso   1.000  H
  C53      1.0000 0.25580  0.25580  0.34810  Biso   1.000  C
  H5       1.0000 0.23550  0.23550  0.38910  Biso   1.000  H
  C54      1.0000 0.25580  0.74420  0.65190  Biso   1.000  C
  H6       1.0000 0.23550  0.76450  0.61090  Biso   1.000  H
  C55      1.0000 0.74420  0.74420  0.34810  Biso   1.000  C
  H7       1.0000 0.76450  0.76450  0.38910  Biso   1.000  H
  C56      1.0000 0.74420  0.25580  0.65190  Biso   1.000  C
  H8       1.0000 0.76450  0.23550  0.61090  Biso   1.000  H
  C57      1.0000 0.34810  0.25580  0.25580  Biso   1.000  C
  H9       1.0000 0.38910  0.23550  0.23550  Biso   1.000  H
  C58      1.0000 0.65190  0.25580  0.74420  Biso   1.000  C
  H10      1.0000 0.61090  0.23550  0.76450  Biso   1.000  H
  C59      1.0000 0.34810  0.74420  0.74420  Biso   1.000  C
  H11      1.0000 0.38910  0.76450  0.76450  Biso   1.000  H
  C60      1.0000 0.65190  0.74420  0.25580  Biso   1.000  C
  H12      1.0000 0.61090  0.76450  0.23550  Biso   1.000  H
  C61      1.0000 0.34810  0.25580  0.74420  Biso   1.000  C
  H13      1.0000 0.38910  0.23550  0.76450  Biso   1.000  H
  C62      1.0000 0.65190  0.74420  0.74420  Biso   1.000  C
  H14      1.0000 0.61090  0.76450  0.76450  Biso   1.000  H
  C63      1.0000 0.34810  0.74420  0.25580  Biso   1.000  C
  H15      1.0000 0.38910  0.76450  0.23550  Biso   1.000  H
  C64      1.0000 0.65190  0.25580  0.25580  Biso   1.000  C
  H16      1.0000 0.61090  0.23550  0.23550  Biso   1.000  H
  C65      1.0000 0.25580  0.25580  0.65190  Biso   1.000  C
  H17      1.0000 0.23550  0.23550  0.61090  Biso   1.000  H
  C66      1.0000 0.74420  0.25580  0.34810  Biso   1.000  C
  H18      1.0000 0.76450  0.23550  0.38910  Biso   1.000  H
  C67      1.0000 0.74420  0.74420  0.65190  Biso   1.000  C
  H19      1.0000 0.76450  0.76450  0.61090  Biso   1.000  H
  C68      1.0000 0.25580  0.74420  0.34810  Biso   1.000  C
  H20      1.0000 0.23550  0.76450  0.38910  Biso   1.000  H
  C69      1.0000 0.25580  0.34810  0.74420  Biso   1.000  C
  H21      1.0000 0.23550  0.38910  0.76450  Biso   1.000  H
  C70      1.0000 0.25580  0.65190  0.25580  Biso   1.000  C
  H22      1.0000 0.23550  0.61090  0.23550  Biso   1.000  H
  C71      1.0000 0.74420  0.34810  0.25580  Biso   1.000  C
  H23      1.0000 0.76450  0.38910  0.23550  Biso   1.000  H
  C72      1.0000 0.74420  0.65190  0.74420  Biso   1.000  C
  H24      1.0000 0.76450  0.61090  0.76450  Biso   1.000  H
  Cl1      1.0000 0.50000  0.50000  0.00000  Biso   1.000  Cl
  Cl2      1.0000 0.00000  0.50000  0.50000  Biso   1.000  Cl
  Cl3      1.0000 0.50000  0.00000  0.50000  Biso   1.000  Cl
  O1       1.0000 0.15390  0.50000  0.15390  Biso   1.000  O
  Cl4      1.0000 0.27120  0.50000  0.27120  Biso   1.000  Cl
  O2       1.0000 0.84610  0.50000  0.15390  Biso   1.000  O
  Cl5      1.0000 0.72880  0.50000  0.27120  Biso   1.000  Cl
  O3       1.0000 0.84610  0.50000  0.84610  Biso   1.000  O
  Cl6      1.0000 0.72880  0.50000  0.72880  Biso   1.000  Cl
  O4       1.0000 0.15390  0.50000  0.84610  Biso   1.000  O
  Cl7      1.0000 0.27120  0.50000  0.72880  Biso   1.000  Cl
  O5       1.0000 0.15390  0.15390  0.50000  Biso   1.000  O
  Cl8      1.0000 0.27120  0.27120  0.50000  Biso   1.000  Cl
  O6       1.0000 0.15390  0.84610  0.50000  Biso   1.000  O
  Cl9      1.0000 0.27120  0.72880  0.50000  Biso   1.000  Cl
  O7       1.0000 0.84610  0.84610  0.50000  Biso   1.000  O
  Cl10     1.0000 0.72880  0.72880  0.50000  Biso   1.000  Cl
  O8       1.0000 0.84610  0.15390  0.50000  Biso   1.000  O
  Cl11     1.0000 0.72880  0.27120  0.50000  Biso   1.000  Cl
  O9       1.0000 0.50000  0.15390  0.15390  Biso   1.000  O
  Cl12     1.0000 0.50000  0.27120  0.27120  Biso   1.000  Cl
  O10      1.0000 0.50000  0.15390  0.84610  Biso   1.000  O
  Cl13     1.0000 0.50000  0.27120  0.72880  Biso   1.000  Cl
  O11      1.0000 0.50000  0.84610  0.84610  Biso   1.000  O
  Cl14     1.0000 0.50000  0.72880  0.72880  Biso   1.000  Cl
  O12      1.0000 0.50000  0.84610  0.15390  Biso   1.000  O
  Cl15     1.0000 0.50000  0.72880  0.27120  Biso   1.000  Cl
  Ni13     1.0000 0.26048  0.50000  0.14052  Biso   1.000  Ni
  Ni14     1.0000 0.73952  0.50000  0.14052  Biso   1.000  Ni
  Ni15     1.0000 0.73952  0.50000  0.85948  Biso   1.000  Ni
  Ni16     1.0000 0.26048  0.50000  0.85948  Biso   1.000  Ni
  Ni17     1.0000 0.14052  0.26048  0.50000  Biso   1.000  Ni
  Ni18     1.0000 0.14052  0.73952  0.50000  Biso   1.000  Ni
  Ni19     1.0000 0.85948  0.73952  0.50000  Biso   1.000  Ni
  Ni20     1.0000 0.85948  0.26048  0.50000  Biso   1.000  Ni
  Ni21     1.0000 0.50000  0.14052  0.26048  Biso   1.000  Ni
  Ni22     1.0000 0.50000  0.14052  0.73952  Biso   1.000  Ni
  Ni23     1.0000 0.50000  0.85948  0.73952  Biso   1.000  Ni
  Ni24     1.0000 0.50000  0.85948  0.26048  Biso   1.000  Ni
  Ni25     1.0000 0.50000  0.26048  0.85948  Biso   1.000  Ni
  Ni26     1.0000 0.50000  0.73952  0.85948  Biso   1.000  Ni
  Ni27     1.0000 0.50000  0.73952  0.14052  Biso   1.000  Ni
  Ni28     1.0000 0.50000  0.26048  0.14052  Biso   1.000  Ni
  Ni29     1.0000 0.26048  0.14052  0.50000  Biso   1.000  Ni
  Ni30     1.0000 0.73952  0.14052  0.50000  Biso   1.000  Ni
  Ni31     1.0000 0.73952  0.85948  0.50000  Biso   1.000  Ni
  Ni32     1.0000 0.26048  0.85948  0.50000  Biso   1.000  Ni
  Ni33     1.0000 0.14052  0.50000  0.73952  Biso   1.000  Ni
  Ni34     1.0000 0.14052  0.50000  0.26048  Biso   1.000  Ni
  Ni35     1.0000 0.85948  0.50000  0.26048  Biso   1.000  Ni
  Ni36     1.0000 0.85948  0.50000  0.73952  Biso   1.000  Ni
