data_image0
_cell_length_a       18.6483
_cell_length_b       18.6483
_cell_length_c       18.6483
_cell_angle_alpha    90
_cell_angle_beta     90
_cell_angle_gamma    90

_symmetry_space_group_name_H-M    "P 1"
_symmetry_int_tables_number       1

loop_
  _symmetry_equiv_pos_as_xyz
  'x, y, z'

loop_
  _atom_site_label
  _atom_site_occupancy
  _atom_site_fract_x
  _atom_site_fract_y
  _atom_site_fract_z
  _atom_site_thermal_displace_type
  _atom_site_B_iso_or_equiv
  _atom_site_type_symbol
  N1       1.0000 0.37103  0.42035  0.07702  Biso   1.000  N
  N2       1.0000 0.32613  0.41040  0.13175  Biso   1.000  N
  N3       1.0000 0.62897  0.57965  0.07702  Biso   1.000  N
  N4       1.0000 0.67387  0.58960  0.13175  Biso   1.000  N
  N5       1.0000 0.62897  0.42035  0.92298  Biso   1.000  N
  N6       1.0000 0.67387  0.41040  0.86825  Biso   1.000  N
  N7       1.0000 0.37103  0.57965  0.92298  Biso   1.000  N
  N8       1.0000 0.32613  0.58960  0.86825  Biso   1.000  N
  N9       1.0000 0.07702  0.37103  0.42035  Biso   1.000  N
  N10      1.0000 0.13175  0.32613  0.41040  Biso   1.000  N
  N11      1.0000 0.07702  0.62897  0.57965  Biso   1.000  N
  N12      1.0000 0.13175  0.67387  0.58960  Biso   1.000  N
  N13      1.0000 0.92298  0.62897  0.42035  Biso   1.000  N
  N14      1.0000 0.86825  0.67387  0.41040  Biso   1.000  N
  N15      1.0000 0.92298  0.37103  0.57965  Biso   1.000  N
  N16      1.0000 0.86825  0.32613  0.58960  Biso   1.000  N
  N17      1.0000 0.42035  0.07702  0.37103  Biso   1.000  N
  N18      1.0000 0.41040  0.13175  0.32613  Biso   1.000  N
  N19      1.0000 0.57965  0.07702  0.62897  Biso   1.000  N
  N20      1.0000 0.58960  0.13175  0.67387  Biso   1.000  N
  N21      1.0000 0.42035  0.92298  0.62897  Biso   1.000  N
  N22      1.0000 0.41040  0.86825  0.67387  Biso   1.000  N
  N23      1.0000 0.57965  0.92298  0.37103  Biso   1.000  N
  N24      1.0000 0.58960  0.86825  0.32613  Biso   1.000  N
  N25      1.0000 0.42035  0.37103  0.92298  Biso   1.000  N
  N26      1.0000 0.41040  0.32613  0.86825  Biso   1.000  N
  N27      1.0000 0.57965  0.62897  0.92298  Biso   1.000  N
  N28      1.0000 0.58960  0.67387  0.86825  Biso   1.000  N
  N29      1.0000 0.42035  0.62897  0.07702  Biso   1.000  N
  N30      1.0000 0.41040  0.67387  0.13175  Biso   1.000  N
  N31      1.0000 0.57965  0.37103  0.07702  Biso   1.000  N
  N32      1.0000 0.58960  0.32613  0.13175  Biso   1.000  N
  N33      1.0000 0.37103  0.07702  0.57965  Biso   1.000  N
  N34      1.0000 0.32613  0.13175  0.58960  Biso   1.000  N
  N35      1.0000 0.62897  0.07702  0.42035  Biso   1.000  N
  N36      1.0000 0.67387  0.13175  0.41040  Biso   1.000  N
  N37      1.0000 0.62897  0.92298  0.57965  Biso   1.000  N
  N38      1.0000 0.67387  0.86825  0.58960  Biso   1.000  N
  N39      1.0000 0.37103  0.92298  0.42035  Biso   1.000  N
  N40      1.0000 0.32613  0.86825  0.41040  Biso   1.000  N
  N41      1.0000 0.07702  0.42035  0.62897  Biso   1.000  N
  N42      1.0000 0.13175  0.41040  0.67387  Biso   1.000  N
  N43      1.0000 0.07702  0.57965  0.37103  Biso   1.000  N
  N44      1.0000 0.13175  0.58960  0.32613  Biso   1.000  N
  N45      1.0000 0.92298  0.42035  0.37103  Biso   1.000  N
  N46      1.0000 0.86825  0.41040  0.32613  Biso   1.000  N
  N47      1.0000 0.92298  0.57965  0.62897  Biso   1.000  N
  N48      1.0000 0.86825  0.58960  0.67387  Biso   1.000  N
  N49      1.0000 0.62897  0.57965  0.92298  Biso   1.000  N
  N50      1.0000 0.67387  0.58960  0.86825  Biso   1.000  N
  N51      1.0000 0.37103  0.42035  0.92298  Biso   1.000  N
  N52      1.0000 0.32613  0.41040  0.86825  Biso   1.000  N
  N53      1.0000 0.37103  0.57965  0.07702  Biso   1.000  N
  N54      1.0000 0.32613  0.58960  0.13175  Biso   1.000  N
  N55      1.0000 0.62897  0.42035  0.07702  Biso   1.000  N
  N56      1.0000 0.67387  0.41040  0.13175  Biso   1.000  N
  N57      1.0000 0.92298  0.62897  0.57965  Biso   1.000  N
  N58      1.0000 0.86825  0.67387  0.58960  Biso   1.000  N
  N59      1.0000 0.92298  0.37103  0.42035  Biso   1.000  N
  N60      1.0000 0.86825  0.32613  0.41040  Biso   1.000  N
  N61      1.0000 0.07702  0.37103  0.57965  Biso   1.000  N
  N62      1.0000 0.13175  0.32613  0.58960  Biso   1.000  N
  N63      1.0000 0.07702  0.62897  0.42035  Biso   1.000  N
  N64      1.0000 0.13175  0.67387  0.41040  Biso   1.000  N
  N65      1.0000 0.57965  0.92298  0.62897  Biso   1.000  N
  N66      1.0000 0.58960  0.86825  0.67387  Biso   1.000  N
  N67      1.0000 0.42035  0.92298  0.37103  Biso   1.000  N
  N68      1.0000 0.41040  0.86825  0.32613  Biso   1.000  N
  N69      1.0000 0.57965  0.07702  0.37103  Biso   1.000  N
  N70      1.0000 0.58960  0.13175  0.32613  Biso   1.000  N
  N71      1.0000 0.42035  0.07702  0.62897  Biso   1.000  N
  N72      1.0000 0.41040  0.13175  0.67387  Biso   1.000  N
  N73      1.0000 0.57965  0.62897  0.07702  Biso   1.000  N
  N74      1.0000 0.58960  0.67387  0.13175  Biso   1.000  N
  N75      1.0000 0.42035  0.37103  0.07702  Biso   1.000  N
  N76      1.0000 0.41040  0.32613  0.13175  Biso   1.000  N
  N77      1.0000 0.57965  0.37103  0.92298  Biso   1.000  N
  N78      1.0000 0.58960  0.32613  0.86825  Biso   1.000  N
  N79      1.0000 0.42035  0.62897  0.92298  Biso   1.000  N
  N80      1.0000 0.41040  0.67387  0.86825  Biso   1.000  N
  N81      1.0000 0.62897  0.92298  0.42035  Biso   1.000  N
  N82      1.0000 0.67387  0.86825  0.41040  Biso   1.000  N
  N83      1.0000 0.37103  0.92298  0.57965  Biso   1.000  N
  N84      1.0000 0.32613  0.86825  0.58960  Biso   1.000  N
  N85      1.0000 0.37103  0.07702  0.42035  Biso   1.000  N
  N86      1.0000 0.32613  0.13175  0.41040  Biso   1.000  N
  N87      1.0000 0.62897  0.07702  0.57965  Biso   1.000  N
  N88      1.0000 0.67387  0.13175  0.58960  Biso   1.000  N
  N89      1.0000 0.92298  0.57965  0.37103  Biso   1.000  N
  N90      1.0000 0.86825  0.58960  0.32613  Biso   1.000  N
  N91      1.0000 0.92298  0.42035  0.62897  Biso   1.000  N
  N92      1.0000 0.86825  0.41040  0.67387  Biso   1.000  N
  N93      1.0000 0.07702  0.57965  0.62897  Biso   1.000  N
  N94      1.0000 0.13175  0.58960  0.67387  Biso   1.000  N
  N95      1.0000 0.07702  0.42035  0.37103  Biso   1.000  N
  N96      1.0000 0.13175  0.41040  0.32613  Biso   1.000  N
  Ni1      1.0000 0.36564  0.50000  0.00000  Biso   1.000  Ni
  Ni2      1.0000 0.63436  0.50000  0.00000  Biso   1.000  Ni
  Ni3      1.0000 0.00000  0.36564  0.50000  Biso   1.000  Ni
  Ni4      1.0000 0.00000  0.63436  0.50000  Biso   1.000  Ni
  Ni5      1.0000 0.50000  0.00000  0.36564  Biso   1.000  Ni
  Ni6      1.0000 0.50000  0.00000  0.63436  Biso   1.000  Ni
  Ni7      1.0000 0.50000  0.36564  0.00000  Biso   1.000  Ni
  Ni8      1.0000 0.50000  0.63436  0.00000  Biso   1.000  Ni
  Ni9      1.0000 0.36564  0.00000  0.50000  Biso   1.000  Ni
  Ni10     1.0000 0.63436  0.00000  0.50000  Biso   1.000  Ni
  Ni11     1.0000 0.00000  0.50000  0.63436  Biso   1.000  Ni
  Ni12     1.0000 0.00000  0.50000  0.36564  Biso   1.000  Ni
  Cl1      1.0000 0.50000  0.50000  0.00000  Biso   1.000  Cl
  Cl2      1.0000 0.00000  0.50000  0.50000  Biso   1.000  Cl
  Cl3      1.0000 0.50000  0.00000  0.50000  Biso   1.000  Cl
  C1       1.0000 0.35186  0.35186  0.16430  Biso   1.000  C
  C2       1.0000 0.31895  0.31895  0.22750  Biso   1.000  C
  C3       1.0000 0.64814  0.64814  0.16430  Biso   1.000  C
  C4       1.0000 0.68105  0.68105  0.22750  Biso   1.000  C
  C5       1.0000 0.64814  0.35186  0.83570  Biso   1.000  C
  C6       1.0000 0.68105  0.31895  0.77250  Biso   1.000  C
  C7       1.0000 0.35186  0.64814  0.83570  Biso   1.000  C
  C8       1.0000 0.31895  0.68105  0.77250  Biso   1.000  C
  C9       1.0000 0.16430  0.35186  0.35186  Biso   1.000  C
  C10      1.0000 0.22750  0.31895  0.31895  Biso   1.000  C
  C11      1.0000 0.16430  0.64814  0.64814  Biso   1.000  C
  C12      1.0000 0.22750  0.68105  0.68105  Biso   1.000  C
  C13      1.0000 0.83570  0.64814  0.35186  Biso   1.000  C
  C14      1.0000 0.77250  0.68105  0.31895  Biso   1.000  C
  C15      1.0000 0.83570  0.35186  0.64814  Biso   1.000  C
  C16      1.0000 0.77250  0.31895  0.68105  Biso   1.000  C
  C17      1.0000 0.35186  0.16430  0.35186  Biso   1.000  C
  C18      1.0000 0.31895  0.22750  0.31895  Biso   1.000  C
  C19      1.0000 0.64814  0.16430  0.64814  Biso   1.000  C
  C20      1.0000 0.68105  0.22750  0.68105  Biso   1.000  C
  C21      1.0000 0.35186  0.83570  0.64814  Biso   1.000  C
  C22      1.0000 0.31895  0.77250  0.68105  Biso   1.000  C
  C23      1.0000 0.64814  0.83570  0.35186  Biso   1.000  C
  C24      1.0000 0.68105  0.77250  0.31895  Biso   1.000  C
  C25      1.0000 0.35186  0.35186  0.83570  Biso   1.000  C
  C26      1.0000 0.31895  0.31895  0.77250  Biso   1.000  C
  C27      1.0000 0.64814  0.64814  0.83570  Biso   1.000  C
  C28      1.0000 0.68105  0.68105  0.77250  Biso   1.000  C
  C29      1.0000 0.35186  0.64814  0.16430  Biso   1.000  C
  C30      1.0000 0.31895  0.68105  0.22750  Biso   1.000  C
  C31      1.0000 0.64814  0.35186  0.16430  Biso   1.000  C
  C32      1.0000 0.68105  0.31895  0.22750  Biso   1.000  C
  C33      1.0000 0.35186  0.16430  0.64814  Biso   1.000  C
  C34      1.0000 0.31895  0.22750  0.68105  Biso   1.000  C
  C35      1.0000 0.64814  0.16430  0.35186  Biso   1.000  C
  C36      1.0000 0.68105  0.22750  0.31895  Biso   1.000  C
  C37      1.0000 0.64814  0.83570  0.64814  Biso   1.000  C
  C38      1.0000 0.68105  0.77250  0.68105  Biso   1.000  C
  C39      1.0000 0.35186  0.83570  0.35186  Biso   1.000  C
  C40      1.0000 0.31895  0.77250  0.31895  Biso   1.000  C
  C41      1.0000 0.16430  0.35186  0.64814  Biso   1.000  C
  C42      1.0000 0.22750  0.31895  0.68105  Biso   1.000  C
  C43      1.0000 0.16430  0.64814  0.35186  Biso   1.000  C
  C44      1.0000 0.22750  0.68105  0.31895  Biso   1.000  C
  C45      1.0000 0.83570  0.35186  0.35186  Biso   1.000  C
  C46      1.0000 0.77250  0.31895  0.31895  Biso   1.000  C
  C47      1.0000 0.83570  0.64814  0.64814  Biso   1.000  C
  C48      1.0000 0.77250  0.68105  0.68105  Biso   1.000  C
  C49      1.0000 0.25879  0.34970  0.25879  Biso   1.000  C
  H1       1.0000 0.23930  0.39130  0.23930  Biso   1.000  H
  Cl4      1.0000 0.14260  0.42400  0.14260  Biso   1.000  Cl
  C50      1.0000 0.74121  0.65030  0.25879  Biso   1.000  C
  H2       1.0000 0.76070  0.60870  0.23930  Biso   1.000  H
  Cl5      1.0000 0.85740  0.57600  0.14260  Biso   1.000  Cl
  C51      1.0000 0.74121  0.34970  0.74121  Biso   1.000  C
  H3       1.0000 0.76070  0.39130  0.76070  Biso   1.000  H
  Cl6      1.0000 0.85740  0.42400  0.85740  Biso   1.000  Cl
  C52      1.0000 0.25879  0.65030  0.74121  Biso   1.000  C
  H4       1.0000 0.23930  0.60870  0.76070  Biso   1.000  H
  Cl7      1.0000 0.14260  0.57600  0.85740  Biso   1.000  Cl
  C53      1.0000 0.25879  0.25879  0.34970  Biso   1.000  C
  H5       1.0000 0.23930  0.23930  0.39130  Biso   1.000  H
  Cl8      1.0000 0.14260  0.14260  0.42400  Biso   1.000  Cl
  C54      1.0000 0.25879  0.74121  0.65030  Biso   1.000  C
  H6       1.0000 0.23930  0.76070  0.60870  Biso   1.000  H
  Cl9      1.0000 0.14260  0.85740  0.57600  Biso   1.000  Cl
  C55      1.0000 0.74121  0.74121  0.34970  Biso   1.000  C
  H7       1.0000 0.76070  0.76070  0.39130  Biso   1.000  H
  Cl10     1.0000 0.85740  0.85740  0.42400  Biso   1.000  Cl
  C56      1.0000 0.74121  0.25879  0.65030  Biso   1.000  C
  H8       1.0000 0.76070  0.23930  0.60870  Biso   1.000  H
  Cl11     1.0000 0.85740  0.14260  0.57600  Biso   1.000  Cl
  C57      1.0000 0.34970  0.25879  0.25879  Biso   1.000  C
  H9       1.0000 0.39130  0.23930  0.23930  Biso   1.000  H
  Cl12     1.0000 0.42400  0.14260  0.14260  Biso   1.000  Cl
  C58      1.0000 0.65030  0.25879  0.74121  Biso   1.000  C
  H10      1.0000 0.60870  0.23930  0.76070  Biso   1.000  H
  Cl13     1.0000 0.57600  0.14260  0.85740  Biso   1.000  Cl
  C59      1.0000 0.34970  0.74121  0.74121  Biso   1.000  C
  H11      1.0000 0.39130  0.76070  0.76070  Biso   1.000  H
  Cl14     1.0000 0.42400  0.85740  0.85740  Biso   1.000  Cl
  C60      1.0000 0.65030  0.74121  0.25879  Biso   1.000  C
  H12      1.0000 0.60870  0.76070  0.23930  Biso   1.000  H
  Cl15     1.0000 0.57600  0.85740  0.14260  Biso   1.000  Cl
  C61      1.0000 0.34970  0.25879  0.74121  Biso   1.000  C
  H13      1.0000 0.39130  0.23930  0.76070  Biso   1.000  H
  Cl16     1.0000 0.42400  0.14260  0.85740  Biso   1.000  Cl
  C62      1.0000 0.65030  0.74121  0.74121  Biso   1.000  C
  H14      1.0000 0.60870  0.76070  0.76070  Biso   1.000  H
  Cl17     1.0000 0.57600  0.85740  0.85740  Biso   1.000  Cl
  C63      1.0000 0.34970  0.74121  0.25879  Biso   1.000  C
  H15      1.0000 0.39130  0.76070  0.23930  Biso   1.000  H
  Cl18     1.0000 0.42400  0.85740  0.14260  Biso   1.000  Cl
  C64      1.0000 0.65030  0.25879  0.25879  Biso   1.000  C
  H16      1.0000 0.60870  0.23930  0.23930  Biso   1.000  H
  Cl19     1.0000 0.57600  0.14260  0.14260  Biso   1.000  Cl
  C65      1.0000 0.25879  0.25879  0.65030  Biso   1.000  C
  H17      1.0000 0.23930  0.23930  0.60870  Biso   1.000  H
  Cl20     1.0000 0.14260  0.14260  0.57600  Biso   1.000  Cl
  C66      1.0000 0.74121  0.25879  0.34970  Biso   1.000  C
  H18      1.0000 0.76070  0.23930  0.39130  Biso   1.000  H
  Cl21     1.0000 0.85740  0.14260  0.42400  Biso   1.000  Cl
  C67      1.0000 0.74121  0.74121  0.65030  Biso   1.000  C
  H19      1.0000 0.76070  0.76070  0.60870  Biso   1.000  H
  Cl22     1.0000 0.85740  0.85740  0.57600  Biso   1.000  Cl
  C68      1.0000 0.25879  0.74121  0.34970  Biso   1.000  C
  H20      1.0000 0.23930  0.76070  0.39130  Biso   1.000  H
  Cl23     1.0000 0.14260  0.85740  0.42400  Biso   1.000  Cl
  C69      1.0000 0.25879  0.34970  0.74121  Biso   1.000  C
  H21      1.0000 0.23930  0.39130  0.76070  Biso   1.000  H
  Cl24     1.0000 0.14260  0.42400  0.85740  Biso   1.000  Cl
  C70      1.0000 0.25879  0.65030  0.25879  Biso   1.000  C
  H22      1.0000 0.23930  0.60870  0.23930  Biso   1.000  H
  Cl25     1.0000 0.14260  0.57600  0.14260  Biso   1.000  Cl
  C71      1.0000 0.74121  0.34970  0.25879  Biso   1.000  C
  H23      1.0000 0.76070  0.39130  0.23930  Biso   1.000  H
  Cl26     1.0000 0.85740  0.42400  0.14260  Biso   1.000  Cl
  C72      1.0000 0.74121  0.65030  0.74121  Biso   1.000  C
  H24      1.0000 0.76070  0.60870  0.76070  Biso   1.000  H
  Cl27     1.0000 0.85740  0.57600  0.85740  Biso   1.000  Cl
  Ni13     1.0000 0.24860  0.50000  0.13427  Biso   1.000  Ni
  Ni14     1.0000 0.75140  0.50000  0.13427  Biso   1.000  Ni
  Ni15     1.0000 0.75140  0.50000  0.86573  Biso   1.000  Ni
  Ni16     1.0000 0.24860  0.50000  0.86573  Biso   1.000  Ni
  Ni17     1.0000 0.13427  0.24860  0.50000  Biso   1.000  Ni
  Ni18     1.0000 0.13427  0.75140  0.50000  Biso   1.000  Ni
  Ni19     1.0000 0.86573  0.75140  0.50000  Biso   1.000  Ni
  Ni20     1.0000 0.86573  0.24860  0.50000  Biso   1.000  Ni
  Ni21     1.0000 0.50000  0.13427  0.24860  Biso   1.000  Ni
  Ni22     1.0000 0.50000  0.13427  0.75140  Biso   1.000  Ni
  Ni23     1.0000 0.50000  0.86573  0.75140  Biso   1.000  Ni
  Ni24     1.0000 0.50000  0.86573  0.24860  Biso   1.000  Ni
  Ni25     1.0000 0.50000  0.24860  0.86573  Biso   1.000  Ni
  Ni26     1.0000 0.50000  0.75140  0.86573  Biso   1.000  Ni
  Ni27     1.0000 0.50000  0.75140  0.13427  Biso   1.000  Ni
  Ni28     1.0000 0.50000  0.24860  0.13427  Biso   1.000  Ni
  Ni29     1.0000 0.24860  0.13427  0.50000  Biso   1.000  Ni
  Ni30     1.0000 0.75140  0.13427  0.50000  Biso   1.000  Ni
  Ni31     1.0000 0.75140  0.86573  0.50000  Biso   1.000  Ni
  Ni32     1.0000 0.24860  0.86573  0.50000  Biso   1.000  Ni
  Ni33     1.0000 0.13427  0.50000  0.75140  Biso   1.000  Ni
  Ni34     1.0000 0.13427  0.50000  0.24860  Biso   1.000  Ni
  Ni35     1.0000 0.86573  0.50000  0.24860  Biso   1.000  Ni
  Ni36     1.0000 0.86573  0.50000  0.75140  Biso   1.000  Ni
