data_BEVQUP_clean
_audit_creation_date              2014-07-02
_audit_creation_method            'Materials Studio'
_symmetry_space_group_name_H-M    'P1'
_symmetry_Int_Tables_number       1
_symmetry_cell_setting            triclinic
loop_
_symmetry_equiv_pos_as_xyz
  x,y,z
_cell_length_a                    9.1502
_cell_length_b                    9.3039
_cell_length_c                    9.3039
_cell_angle_alpha                 76.0066
_cell_angle_beta                  60.5448
_cell_angle_gamma                 60.5448
loop_
_atom_site_label
_atom_site_type_symbol
_atom_site_fract_x
_atom_site_fract_y
_atom_site_fract_z
_atom_site_U_iso_or_equiv
_atom_site_adp_type
_atom_site_occupancy
Rb1    Rb    0.12500   0.75000   0.75000   0.01267  Uiso   1.00
Rb2    Rb    0.87500   0.25000   0.25000   0.01267  Uiso   1.00
Y1     Y     0.62500   0.75000   0.75000   0.01267  Uiso   1.00
Y2     Y     0.37500   0.25000   0.25000   0.01267  Uiso   1.00
C1     C     0.60600   0.97400   0.98400   0.01267  Uiso   1.00
C2     C     0.06400   0.52600   0.51600   0.01267  Uiso   1.00
C3     C     0.59000   0.01600   0.47400   0.01267  Uiso   1.00
C4     C     0.58000   0.48400   0.02600   0.01267  Uiso   1.00
C5     C     0.39400   0.02600   0.01600   0.01267  Uiso   1.00
C6     C     0.93600   0.47400   0.48400   0.01267  Uiso   1.00
C7     C     0.41000   0.98400   0.52600   0.01267  Uiso   1.00
C8     C     0.42000   0.51600   0.97400   0.01267  Uiso   1.00
O1     O     0.72650   0.88300   0.85700   0.01267  Uiso   1.00
O2     O     0.63820   0.13700   0.95700   0.01267  Uiso   1.00
O3     O     0.96650   0.61700   0.64300   0.01267  Uiso   1.00
O4     O     0.23220   0.36300   0.54300   0.01267  Uiso   1.00
O5     O     0.58350   0.14300   0.38300   0.01267  Uiso   1.00
O6     O     0.59520   0.04300   0.63700   0.01267  Uiso   1.00
O7     O     0.60950   0.35700   0.11700   0.01267  Uiso   1.00
O8     O     0.77520   0.45700   0.86300   0.01267  Uiso   1.00
O9     O     0.27350   0.11700   0.14300   0.01267  Uiso   1.00
O10    O     0.36180   0.86300   0.04300   0.01267  Uiso   1.00
O11    O     0.03350   0.38300   0.35700   0.01267  Uiso   1.00
O12    O     0.76780   0.63700   0.45700   0.01267  Uiso   1.00
O13    O     0.41650   0.85700   0.61700   0.01267  Uiso   1.00
O14    O     0.40480   0.95700   0.36300   0.01267  Uiso   1.00
O15    O     0.39050   0.64300   0.88300   0.01267  Uiso   1.00
O16    O     0.22480   0.54300   0.13700   0.01267  Uiso   1.00
