data_BEVRAW_clean
_audit_creation_date              2014-07-02
_audit_creation_method            'Materials Studio'
_symmetry_space_group_name_H-M    'P1'
_symmetry_Int_Tables_number       1
_symmetry_cell_setting            triclinic
loop_
_symmetry_equiv_pos_as_xyz
  x,y,z
_cell_length_a                    8.4288
_cell_length_b                    9.0060
_cell_length_c                    9.0060
_cell_angle_alpha                 77.3507
_cell_angle_beta                  62.0983
_cell_angle_gamma                 62.0983
loop_
_atom_site_label
_atom_site_type_symbol
_atom_site_fract_x
_atom_site_fract_y
_atom_site_fract_z
_atom_site_U_iso_or_equiv
_atom_site_adp_type
_atom_site_occupancy
Ca1    Ca    0.00000   0.00000   0.00000   0.01267  Uiso   1.00
Ca2    Ca    0.50000   0.00000   0.00000   0.01267  Uiso   1.00
Zr1    Zr    0.75000   0.50000   0.50000   0.01267  Uiso   1.00
C1     C     0.97280   0.23160   0.23160   0.01267  Uiso   1.00
C2     C     0.76270   0.26590   0.26590   0.01267  Uiso   1.00
C3     C     0.43600   0.76840   0.76840   0.01267  Uiso   1.00
C4     C     0.29450   0.73410   0.73410   0.01267  Uiso   1.00
C5     C     0.79560   0.23160   0.76840   0.01267  Uiso   1.00
C6     C     0.97140   0.26590   0.73410   0.01267  Uiso   1.00
C7     C     0.79560   0.76840   0.23160   0.01267  Uiso   1.00
C8     C     0.97140   0.73410   0.26590   0.01267  Uiso   1.00
O1     O     0.13500   0.12700   0.12700   0.01267  Uiso   1.00
O2     O     0.00660   0.30750   0.30750   0.01267  Uiso   1.00
O3     O     0.68100   0.20980   0.20980   0.01267  Uiso   1.00
O4     O     0.63730   0.37770   0.37770   0.01267  Uiso   1.00
O5     O     0.38900   0.87300   0.87300   0.01267  Uiso   1.00
O6     O     0.62160   0.69250   0.69250   0.01267  Uiso   1.00
O7     O     0.10060   0.79020   0.79020   0.01267  Uiso   1.00
O8     O     0.39270   0.62230   0.62230   0.01267  Uiso   1.00
O9     O     0.73800   0.12700   0.87300   0.01267  Uiso   1.00
O10    O     0.68590   0.30750   0.69250   0.01267  Uiso   1.00
O11    O     0.10920   0.20980   0.79020   0.01267  Uiso   1.00
O12    O     0.98500   0.37770   0.62230   0.01267  Uiso   1.00
O13    O     0.73800   0.87300   0.12700   0.01267  Uiso   1.00
O14    O     0.68590   0.69250   0.30750   0.01267  Uiso   1.00
O15    O     0.10920   0.79020   0.20980   0.01267  Uiso   1.00
O16    O     0.98500   0.62230   0.37770   0.01267  Uiso   1.00
