data_image0
_cell_length_a       27.96
_cell_length_b       26.62
_cell_length_c       6.101
_cell_angle_alpha    90
_cell_angle_beta     94.96
_cell_angle_gamma    90

_symmetry_space_group_name_H-M    "P 1"
_symmetry_int_tables_number       1

loop_
  _symmetry_equiv_pos_as_xyz
  'x, y, z'

loop_
  _atom_site_label
  _atom_site_occupancy
  _atom_site_fract_x
  _atom_site_fract_y
  _atom_site_fract_z
  _atom_site_thermal_displace_type
  _atom_site_B_iso_or_equiv
  _atom_site_type_symbol
  Cu1      1.0000 0.75300  0.73190  0.36120  Biso   1.000  Cu
  O1       1.0000 0.79010  0.77660  0.48100  Biso   1.000  O
  O2       1.0000 0.94870  0.94380  0.42200  Biso   1.000  O
  O3       1.0000 0.95350  0.09840  0.11600  Biso   1.000  O
  N1       1.0000 0.71800  0.67400  0.20600  Biso   1.000  N
  N2       1.0000 0.79500  0.73400  0.13600  Biso   1.000  N
  C1       1.0000 0.74920  0.66230  0.02800  Biso   1.000  C
  C2       1.0000 0.73720  0.62340  0.88040  Biso   1.000  C
  C3       1.0000 0.76350  0.61620  0.69890  Biso   1.000  C
  C4       1.0000 0.80190  0.64800  0.66480  Biso   1.000  C
  C5       1.0000 0.81390  0.68700  0.81240  Biso   1.000  C
  C6       1.0000 0.78750  0.69410  0.99400  Biso   1.000  C
  C7       1.0000 0.82700  0.76600  0.10500  Biso   1.000  C
  C8       1.0000 0.68500  0.64600  0.25600  Biso   1.000  C
  C9       1.0000 0.66300  0.65400  0.41800  Biso   1.000  C
  C10      1.0000 0.82500  0.80700  0.44000  Biso   1.000  C
  C11      1.0000 0.84900  0.80110  0.25800  Biso   1.000  C
  C12      1.0000 0.88410  0.83640  0.20900  Biso   1.000  C
  C13      1.0000 0.89680  0.87550  0.34500  Biso   1.000  C
  C14      1.0000 0.87480  0.87900  0.53700  Biso   1.000  C
  C15      1.0000 0.93480  0.90970  0.29700  Biso   1.000  C
  H1       1.0000 0.71110  0.60180  0.90360  Biso   1.000  H
  H2       1.0000 0.75530  0.58970  0.59840  Biso   1.000  H
  H3       1.0000 0.81980  0.64310  0.54120  Biso   1.000  H
  H4       1.0000 0.84000  0.70870  0.78930  Biso   1.000  H
  H5       1.0000 0.83790  0.76440  0.96220  Biso   1.000  H
  H6       1.0000 0.84090  0.77220  0.17360  Biso   1.000  H
  H7       1.0000 0.82050  0.85210  0.71110  Biso   1.000  H
  H8       1.0000 0.67770  0.61780  0.16160  Biso   1.000  H
  H9       1.0000 0.89850  0.83170  0.07710  Biso   1.000  H
  H10      1.0000 0.88630  0.90530  0.63910  Biso   1.000  H
  Cu2      1.0000 0.25300  0.23190  0.36120  Biso   1.000  Cu
  O4       1.0000 0.29010  0.27660  0.48100  Biso   1.000  O
  O5       1.0000 0.44870  0.44380  0.42200  Biso   1.000  O
  O6       1.0000 0.45350  0.59840  0.11600  Biso   1.000  O
  N3       1.0000 0.21800  0.17400  0.20600  Biso   1.000  N
  N4       1.0000 0.29500  0.23400  0.13600  Biso   1.000  N
  C16      1.0000 0.24920  0.16230  0.02800  Biso   1.000  C
  C17      1.0000 0.23720  0.12340  0.88040  Biso   1.000  C
  C18      1.0000 0.26350  0.11620  0.69890  Biso   1.000  C
  C19      1.0000 0.30190  0.14800  0.66480  Biso   1.000  C
  C20      1.0000 0.31390  0.18700  0.81240  Biso   1.000  C
  C21      1.0000 0.28750  0.19410  0.99400  Biso   1.000  C
  C22      1.0000 0.32700  0.26600  0.10500  Biso   1.000  C
  C23      1.0000 0.18500  0.14600  0.25600  Biso   1.000  C
  C24      1.0000 0.16300  0.15400  0.41800  Biso   1.000  C
  C25      1.0000 0.32500  0.30700  0.44000  Biso   1.000  C
  C26      1.0000 0.34900  0.30110  0.25800  Biso   1.000  C
  C27      1.0000 0.38410  0.33640  0.20900  Biso   1.000  C
  C28      1.0000 0.39680  0.37550  0.34500  Biso   1.000  C
  C29      1.0000 0.37480  0.37900  0.53700  Biso   1.000  C
  C30      1.0000 0.43480  0.40970  0.29700  Biso   1.000  C
  H11      1.0000 0.21110  0.10180  0.90360  Biso   1.000  H
  H12      1.0000 0.25530  0.08970  0.59840  Biso   1.000  H
  H13      1.0000 0.31980  0.14310  0.54120  Biso   1.000  H
  H14      1.0000 0.34000  0.20870  0.78930  Biso   1.000  H
  H15      1.0000 0.33790  0.26440  0.96220  Biso   1.000  H
  H16      1.0000 0.34090  0.27220  0.17360  Biso   1.000  H
  H17      1.0000 0.32050  0.35210  0.71110  Biso   1.000  H
  H18      1.0000 0.17770  0.11780  0.16160  Biso   1.000  H
  H19      1.0000 0.39850  0.33170  0.07710  Biso   1.000  H
  H20      1.0000 0.38630  0.40530  0.63910  Biso   1.000  H
  Cu3      1.0000 0.24700  0.73190  0.63880  Biso   1.000  Cu
  O7       1.0000 0.20990  0.77660  0.51900  Biso   1.000  O
  O8       1.0000 0.05130  0.94380  0.57800  Biso   1.000  O
  O9       1.0000 0.04650  0.09840  0.88400  Biso   1.000  O
  N5       1.0000 0.28200  0.67400  0.79400  Biso   1.000  N
  N6       1.0000 0.20500  0.73400  0.86400  Biso   1.000  N
  C31      1.0000 0.25080  0.66230  0.97200  Biso   1.000  C
  C32      1.0000 0.26280  0.62340  0.11960  Biso   1.000  C
  C33      1.0000 0.23650  0.61620  0.30110  Biso   1.000  C
  C34      1.0000 0.19810  0.64800  0.33520  Biso   1.000  C
  C35      1.0000 0.18610  0.68700  0.18760  Biso   1.000  C
  C36      1.0000 0.21250  0.69410  0.00600  Biso   1.000  C
  C37      1.0000 0.17300  0.76600  0.89500  Biso   1.000  C
  C38      1.0000 0.31500  0.64600  0.74400  Biso   1.000  C
  C39      1.0000 0.33700  0.65400  0.58200  Biso   1.000  C
  C40      1.0000 0.17500  0.80700  0.56000  Biso   1.000  C
  C41      1.0000 0.15100  0.80110  0.74200  Biso   1.000  C
  C42      1.0000 0.11590  0.83640  0.79100  Biso   1.000  C
  C43      1.0000 0.10320  0.87550  0.65500  Biso   1.000  C
  C44      1.0000 0.12520  0.87900  0.46300  Biso   1.000  C
  C45      1.0000 0.06520  0.90970  0.70300  Biso   1.000  C
  H21      1.0000 0.28890  0.60180  0.09640  Biso   1.000  H
  H22      1.0000 0.24470  0.58970  0.40160  Biso   1.000  H
  H23      1.0000 0.18020  0.64310  0.45880  Biso   1.000  H
  H24      1.0000 0.16000  0.70870  0.21070  Biso   1.000  H
  H25      1.0000 0.16210  0.76440  0.03780  Biso   1.000  H
  H26      1.0000 0.15910  0.77220  0.82640  Biso   1.000  H
  H27      1.0000 0.17950  0.85210  0.28890  Biso   1.000  H
  H28      1.0000 0.32230  0.61780  0.83840  Biso   1.000  H
  H29      1.0000 0.10150  0.83170  0.92290  Biso   1.000  H
  H30      1.0000 0.11370  0.90530  0.36090  Biso   1.000  H
  Cu4      1.0000 0.74700  0.23190  0.63880  Biso   1.000  Cu
  O10      1.0000 0.70990  0.27660  0.51900  Biso   1.000  O
  O11      1.0000 0.55130  0.44380  0.57800  Biso   1.000  O
  O12      1.0000 0.54650  0.59840  0.88400  Biso   1.000  O
  N7       1.0000 0.78200  0.17400  0.79400  Biso   1.000  N
  N8       1.0000 0.70500  0.23400  0.86400  Biso   1.000  N
  C46      1.0000 0.75080  0.16230  0.97200  Biso   1.000  C
  C47      1.0000 0.76280  0.12340  0.11960  Biso   1.000  C
  C48      1.0000 0.73650  0.11620  0.30110  Biso   1.000  C
  C49      1.0000 0.69810  0.14800  0.33520  Biso   1.000  C
  C50      1.0000 0.68610  0.18700  0.18760  Biso   1.000  C
  C51      1.0000 0.71250  0.19410  0.00600  Biso   1.000  C
  C52      1.0000 0.67300  0.26600  0.89500  Biso   1.000  C
  C53      1.0000 0.81500  0.14600  0.74400  Biso   1.000  C
  C54      1.0000 0.83700  0.15400  0.58200  Biso   1.000  C
  C55      1.0000 0.67500  0.30700  0.56000  Biso   1.000  C
  C56      1.0000 0.65100  0.30110  0.74200  Biso   1.000  C
  C57      1.0000 0.61590  0.33640  0.79100  Biso   1.000  C
  C58      1.0000 0.60320  0.37550  0.65500  Biso   1.000  C
  C59      1.0000 0.62520  0.37900  0.46300  Biso   1.000  C
  C60      1.0000 0.56520  0.40970  0.70300  Biso   1.000  C
  H31      1.0000 0.78890  0.10180  0.09640  Biso   1.000  H
  H32      1.0000 0.74470  0.08970  0.40160  Biso   1.000  H
  H33      1.0000 0.68020  0.14310  0.45880  Biso   1.000  H
  H34      1.0000 0.66000  0.20870  0.21070  Biso   1.000  H
  H35      1.0000 0.66210  0.26440  0.03780  Biso   1.000  H
  H36      1.0000 0.65910  0.27220  0.82640  Biso   1.000  H
  H37      1.0000 0.67950  0.35210  0.28890  Biso   1.000  H
  H38      1.0000 0.82230  0.11780  0.83840  Biso   1.000  H
  H39      1.0000 0.60150  0.33170  0.92290  Biso   1.000  H
  H40      1.0000 0.61370  0.40530  0.36090  Biso   1.000  H
  Cu5      1.0000 0.24700  0.26810  0.63880  Biso   1.000  Cu
  O13      1.0000 0.20990  0.22340  0.51900  Biso   1.000  O
  O14      1.0000 0.05130  0.05620  0.57800  Biso   1.000  O
  O15      1.0000 0.04650  0.90160  0.88400  Biso   1.000  O
  N9       1.0000 0.28200  0.32600  0.79400  Biso   1.000  N
  N10      1.0000 0.20500  0.26600  0.86400  Biso   1.000  N
  C61      1.0000 0.25080  0.33770  0.97200  Biso   1.000  C
  C62      1.0000 0.26280  0.37660  0.11960  Biso   1.000  C
  C63      1.0000 0.23650  0.38380  0.30110  Biso   1.000  C
  C64      1.0000 0.19810  0.35200  0.33520  Biso   1.000  C
  C65      1.0000 0.18610  0.31300  0.18760  Biso   1.000  C
  C66      1.0000 0.21250  0.30590  0.00600  Biso   1.000  C
  C67      1.0000 0.17300  0.23400  0.89500  Biso   1.000  C
  C68      1.0000 0.31500  0.35400  0.74400  Biso   1.000  C
  C69      1.0000 0.33700  0.34600  0.58200  Biso   1.000  C
  C70      1.0000 0.17500  0.19300  0.56000  Biso   1.000  C
  C71      1.0000 0.15100  0.19890  0.74200  Biso   1.000  C
  C72      1.0000 0.11590  0.16360  0.79100  Biso   1.000  C
  C73      1.0000 0.10320  0.12450  0.65500  Biso   1.000  C
  C74      1.0000 0.12520  0.12100  0.46300  Biso   1.000  C
  C75      1.0000 0.06520  0.09030  0.70300  Biso   1.000  C
  H41      1.0000 0.28890  0.39820  0.09640  Biso   1.000  H
  H42      1.0000 0.24470  0.41030  0.40160  Biso   1.000  H
  H43      1.0000 0.18020  0.35690  0.45880  Biso   1.000  H
  H44      1.0000 0.16000  0.29130  0.21070  Biso   1.000  H
  H45      1.0000 0.16210  0.23560  0.03780  Biso   1.000  H
  H46      1.0000 0.15910  0.22780  0.82640  Biso   1.000  H
  H47      1.0000 0.17950  0.14790  0.28890  Biso   1.000  H
  H48      1.0000 0.32230  0.38220  0.83840  Biso   1.000  H
  H49      1.0000 0.10150  0.16830  0.92290  Biso   1.000  H
  H50      1.0000 0.11370  0.09470  0.36090  Biso   1.000  H
  Cu6      1.0000 0.74700  0.76810  0.63880  Biso   1.000  Cu
  O16      1.0000 0.70990  0.72340  0.51900  Biso   1.000  O
  O17      1.0000 0.55130  0.55620  0.57800  Biso   1.000  O
  O18      1.0000 0.54650  0.40160  0.88400  Biso   1.000  O
  N11      1.0000 0.78200  0.82600  0.79400  Biso   1.000  N
  N12      1.0000 0.70500  0.76600  0.86400  Biso   1.000  N
  C76      1.0000 0.75080  0.83770  0.97200  Biso   1.000  C
  C77      1.0000 0.76280  0.87660  0.11960  Biso   1.000  C
  C78      1.0000 0.73650  0.88380  0.30110  Biso   1.000  C
  C79      1.0000 0.69810  0.85200  0.33520  Biso   1.000  C
  C80      1.0000 0.68610  0.81300  0.18760  Biso   1.000  C
  C81      1.0000 0.71250  0.80590  0.00600  Biso   1.000  C
  C82      1.0000 0.67300  0.73400  0.89500  Biso   1.000  C
  C83      1.0000 0.81500  0.85400  0.74400  Biso   1.000  C
  C84      1.0000 0.83700  0.84600  0.58200  Biso   1.000  C
  C85      1.0000 0.67500  0.69300  0.56000  Biso   1.000  C
  C86      1.0000 0.65100  0.69890  0.74200  Biso   1.000  C
  C87      1.0000 0.61590  0.66360  0.79100  Biso   1.000  C
  C88      1.0000 0.60320  0.62450  0.65500  Biso   1.000  C
  C89      1.0000 0.62520  0.62100  0.46300  Biso   1.000  C
  C90      1.0000 0.56520  0.59030  0.70300  Biso   1.000  C
  H51      1.0000 0.78890  0.89820  0.09640  Biso   1.000  H
  H52      1.0000 0.74470  0.91030  0.40160  Biso   1.000  H
  H53      1.0000 0.68020  0.85690  0.45880  Biso   1.000  H
  H54      1.0000 0.66000  0.79130  0.21070  Biso   1.000  H
  H55      1.0000 0.66210  0.73560  0.03780  Biso   1.000  H
  H56      1.0000 0.65910  0.72780  0.82640  Biso   1.000  H
  H57      1.0000 0.67950  0.64790  0.28890  Biso   1.000  H
  H58      1.0000 0.82230  0.88220  0.83840  Biso   1.000  H
  H59      1.0000 0.60150  0.66830  0.92290  Biso   1.000  H
  H60      1.0000 0.61370  0.59470  0.36090  Biso   1.000  H
  Cu7      1.0000 0.75300  0.26810  0.36120  Biso   1.000  Cu
  O19      1.0000 0.79010  0.22340  0.48100  Biso   1.000  O
  O20      1.0000 0.94870  0.05620  0.42200  Biso   1.000  O
  O21      1.0000 0.95350  0.90160  0.11600  Biso   1.000  O
  N13      1.0000 0.71800  0.32600  0.20600  Biso   1.000  N
  N14      1.0000 0.79500  0.26600  0.13600  Biso   1.000  N
  C91      1.0000 0.74920  0.33770  0.02800  Biso   1.000  C
  C92      1.0000 0.73720  0.37660  0.88040  Biso   1.000  C
  C93      1.0000 0.76350  0.38380  0.69890  Biso   1.000  C
  C94      1.0000 0.80190  0.35200  0.66480  Biso   1.000  C
  C95      1.0000 0.81390  0.31300  0.81240  Biso   1.000  C
  C96      1.0000 0.78750  0.30590  0.99400  Biso   1.000  C
  C97      1.0000 0.82700  0.23400  0.10500  Biso   1.000  C
  C98      1.0000 0.68500  0.35400  0.25600  Biso   1.000  C
  C99      1.0000 0.66300  0.34600  0.41800  Biso   1.000  C
  C100     1.0000 0.82500  0.19300  0.44000  Biso   1.000  C
  C101     1.0000 0.84900  0.19890  0.25800  Biso   1.000  C
  C102     1.0000 0.88410  0.16360  0.20900  Biso   1.000  C
  C103     1.0000 0.89680  0.12450  0.34500  Biso   1.000  C
  C104     1.0000 0.87480  0.12100  0.53700  Biso   1.000  C
  C105     1.0000 0.93480  0.09030  0.29700  Biso   1.000  C
  H61      1.0000 0.71110  0.39820  0.90360  Biso   1.000  H
  H62      1.0000 0.75530  0.41030  0.59840  Biso   1.000  H
  H63      1.0000 0.81980  0.35690  0.54120  Biso   1.000  H
  H64      1.0000 0.84000  0.29130  0.78930  Biso   1.000  H
  H65      1.0000 0.83790  0.23560  0.96220  Biso   1.000  H
  H66      1.0000 0.84090  0.22780  0.17360  Biso   1.000  H
  H67      1.0000 0.82050  0.14790  0.71110  Biso   1.000  H
  H68      1.0000 0.67770  0.38220  0.16160  Biso   1.000  H
  H69      1.0000 0.89850  0.16830  0.07710  Biso   1.000  H
  H70      1.0000 0.88630  0.09470  0.63910  Biso   1.000  H
  Cu8      1.0000 0.25300  0.76810  0.36120  Biso   1.000  Cu
  O22      1.0000 0.29010  0.72340  0.48100  Biso   1.000  O
  O23      1.0000 0.44870  0.55620  0.42200  Biso   1.000  O
  O24      1.0000 0.45350  0.40160  0.11600  Biso   1.000  O
  N15      1.0000 0.21800  0.82600  0.20600  Biso   1.000  N
  N16      1.0000 0.29500  0.76600  0.13600  Biso   1.000  N
  C106     1.0000 0.24920  0.83770  0.02800  Biso   1.000  C
  C107     1.0000 0.23720  0.87660  0.88040  Biso   1.000  C
  C108     1.0000 0.26350  0.88380  0.69890  Biso   1.000  C
  C109     1.0000 0.30190  0.85200  0.66480  Biso   1.000  C
  C110     1.0000 0.31390  0.81300  0.81240  Biso   1.000  C
  C111     1.0000 0.28750  0.80590  0.99400  Biso   1.000  C
  C112     1.0000 0.32700  0.73400  0.10500  Biso   1.000  C
  C113     1.0000 0.18500  0.85400  0.25600  Biso   1.000  C
  C114     1.0000 0.16300  0.84600  0.41800  Biso   1.000  C
  C115     1.0000 0.32500  0.69300  0.44000  Biso   1.000  C
  C116     1.0000 0.34900  0.69890  0.25800  Biso   1.000  C
  C117     1.0000 0.38410  0.66360  0.20900  Biso   1.000  C
  C118     1.0000 0.39680  0.62450  0.34500  Biso   1.000  C
  C119     1.0000 0.37480  0.62100  0.53700  Biso   1.000  C
  C120     1.0000 0.43480  0.59030  0.29700  Biso   1.000  C
  H71      1.0000 0.21110  0.89820  0.90360  Biso   1.000  H
  H72      1.0000 0.25530  0.91030  0.59840  Biso   1.000  H
  H73      1.0000 0.31980  0.85690  0.54120  Biso   1.000  H
  H74      1.0000 0.34000  0.79130  0.78930  Biso   1.000  H
  H75      1.0000 0.33790  0.73560  0.96220  Biso   1.000  H
  H76      1.0000 0.34090  0.72780  0.17360  Biso   1.000  H
  H77      1.0000 0.32050  0.64790  0.71110  Biso   1.000  H
  H78      1.0000 0.17770  0.88220  0.16160  Biso   1.000  H
  H79      1.0000 0.39850  0.66830  0.07710  Biso   1.000  H
  H80      1.0000 0.38630  0.59470  0.63910  Biso   1.000  H
  Zn1      1.0000 0.00000  0.00000  0.50000  Biso   1.000  Zn
  Zn2      1.0000 0.50000  0.50000  0.50000  Biso   1.000  Zn
  Zn3      1.0000 0.00000  0.05460  0.00000  Biso   1.000  Zn
  Zn4      1.0000 0.50000  0.55460  0.00000  Biso   1.000  Zn
  Zn5      1.0000 0.00000  0.94540  0.00000  Biso   1.000  Zn
  Zn6      1.0000 0.50000  0.44540  0.00000  Biso   1.000  Zn
  O25      1.0000 0.02710  0.00000  0.19800  Biso   1.000  O
  O26      1.0000 0.52710  0.50000  0.19800  Biso   1.000  O
  O27      1.0000 0.97290  0.00000  0.80200  Biso   1.000  O
  O28      1.0000 0.47290  0.50000  0.80200  Biso   1.000  O
