data_image0
_cell_length_a       15.2933
_cell_length_b       15.5985
_cell_length_c       18.1942
_cell_angle_alpha    64.685
_cell_angle_beta     77.986
_cell_angle_gamma    61.077

_symmetry_space_group_name_H-M    "P 1"
_symmetry_int_tables_number       1

loop_
  _symmetry_equiv_pos_as_xyz
  'x, y, z'

loop_
  _atom_site_label
  _atom_site_occupancy
  _atom_site_fract_x
  _atom_site_fract_y
  _atom_site_fract_z
  _atom_site_thermal_displace_type
  _atom_site_B_iso_or_equiv
  _atom_site_type_symbol
  C1       1.0000 0.18040  0.76560  0.94880  Biso   1.000  C
  C2       1.0000 0.27300  0.69040  0.00460  Biso   1.000  C
  C3       1.0000 0.44970  0.83750  0.83930  Biso   1.000  C
  C4       1.0000 0.53340  0.72620  0.84430  Biso   1.000  C
  C5       1.0000 0.69250  0.71160  0.01010  Biso   1.000  C
  C6       1.0000 0.79000  0.69100  0.95360  Biso   1.000  C
  C7       1.0000 0.94630  0.69670  0.11970  Biso   1.000  C
  C8       1.0000 0.03320  0.59640  0.10980  Biso   1.000  C
  C9       1.0000 0.63870  0.98560  0.71190  Biso   1.000  C
  C10      1.0000 0.62730  0.02360  0.77970  Biso   1.000  C
  C11      1.0000 0.44750  0.38260  0.62080  Biso   1.000  C
  C12      1.0000 0.53390  0.40360  0.62910  Biso   1.000  C
  C13      1.0000 0.20130  0.71280  0.50940  Biso   1.000  C
  C14      1.0000 0.29570  0.69770  0.45400  Biso   1.000  C
  C15      1.0000 0.35400  0.70260  0.68970  Biso   1.000  C
  C16      1.0000 0.34640  0.60500  0.75480  Biso   1.000  C
  C17      1.0000 0.70090  0.24210  0.46180  Biso   1.000  C
  C18      1.0000 0.79310  0.17250  0.51810  Biso   1.000  C
  C19      1.0000 0.85340  0.36720  0.21440  Biso   1.000  C
  C20      1.0000 0.86350  0.40300  0.27600  Biso   1.000  C
  C21      1.0000 0.94950  0.01470  0.35530  Biso   1.000  C
  C22      1.0000 0.03440  0.04050  0.34940  Biso   1.000  C
  C23      1.0000 0.12740  0.71990  0.25240  Biso   1.000  C
  C24      1.0000 0.11790  0.82740  0.18980  Biso   1.000  C
  O1       1.0000 0.09820  0.79400  0.98470  Biso   1.000  O
  O2       1.0000 0.25640  0.67010  0.07980  Biso   1.000  O
  O3       1.0000 0.19210  0.79190  0.87380  Biso   1.000  O
  O4       1.0000 0.35590  0.65500  0.97230  Biso   1.000  O
  O5       1.0000 0.36340  0.85910  0.83140  Biso   1.000  O
  O6       1.0000 0.50900  0.66240  0.84180  Biso   1.000  O
  O7       1.0000 0.48160  0.89830  0.84140  Biso   1.000  O
  O8       1.0000 0.62100  0.71100  0.85000  Biso   1.000  O
  O9       1.0000 0.61260  0.77640  0.97410  Biso   1.000  O
  O10      1.0000 0.77170  0.74760  0.88010  Biso   1.000  O
  O11      1.0000 0.70510  0.66330  0.08500  Biso   1.000  O
  O12      1.0000 0.87060  0.62430  0.98670  Biso   1.000  O
  O13      1.0000 0.85930  0.70290  0.12730  Biso   1.000  O
  O14      1.0000 0.01890  0.52480  0.11240  Biso   1.000  O
  O15      1.0000 0.96740  0.76490  0.11760  Biso   1.000  O
  O16      1.0000 0.11830  0.59580  0.10130  Biso   1.000  O
  O17      1.0000 0.64760  0.89160  0.73700  Biso   1.000  O
  O18      1.0000 0.62410  0.96160  0.85130  Biso   1.000  O
  O19      1.0000 0.63620  0.04490  0.63990  Biso   1.000  O
  O20      1.0000 0.62940  0.10920  0.75930  Biso   1.000  O
  O21      1.0000 0.46800  0.29430  0.62250  Biso   1.000  O
  O22      1.0000 0.61970  0.32760  0.64260  Biso   1.000  O
  O23      1.0000 0.36360  0.45750  0.61240  Biso   1.000  O
  O24      1.0000 0.50910  0.49410  0.62640  Biso   1.000  O
  O25      1.0000 0.21910  0.66850  0.58540  Biso   1.000  O
  O26      1.0000 0.37820  0.64030  0.49140  Biso   1.000  O
  O27      1.0000 0.11970  0.76220  0.47750  Biso   1.000  O
  O28      1.0000 0.28480  0.74170  0.37940  Biso   1.000  O
  O29      1.0000 0.36440  0.70610  0.61770  Biso   1.000  O
  O30      1.0000 0.34280  0.54270  0.72870  Biso   1.000  O
  O31      1.0000 0.34610  0.77240  0.70950  Biso   1.000  O
  O32      1.0000 0.34140  0.59310  0.82720  Biso   1.000  O
  O33      1.0000 0.61840  0.26250  0.49500  Biso   1.000  O
  O34      1.0000 0.78090  0.14450  0.59280  Biso   1.000  O
  O35      1.0000 0.72020  0.27020  0.38700  Biso   1.000  O
  O36      1.0000 0.87680  0.15070  0.48250  Biso   1.000  O
  O37      1.0000 0.84570  0.27970  0.24420  Biso   1.000  O
  O38      1.0000 0.87230  0.33790  0.35030  Biso   1.000  O
  O39      1.0000 0.85340  0.42200  0.14120  Biso   1.000  O
  O40      1.0000 0.86380  0.48920  0.25160  Biso   1.000  O
  O41      1.0000 0.86430  0.08230  0.36470  Biso   1.000  O
  O42      1.0000 0.00920  0.12970  0.35110  Biso   1.000  O
  O43      1.0000 0.96770  0.93090  0.35150  Biso   1.000  O
  O44      1.0000 0.12010  0.97500  0.34370  Biso   1.000  O
  O45      1.0000 0.12910  0.70030  0.32520  Biso   1.000  O
  O46      1.0000 0.12240  0.88870  0.21490  Biso   1.000  O
  O47      1.0000 0.12850  0.65790  0.22380  Biso   1.000  O
  O48      1.0000 0.10670  0.84460  0.11630  Biso   1.000  O
  Cr1      1.0000 0.11159  0.72415  0.10410  Biso   1.000  Cr
  Cr2      1.0000 0.62704  0.83130  0.85502  Biso   1.000  Cr
  Cr3      1.0000 0.36262  0.58633  0.61037  Biso   1.000  Cr
  Cr4      1.0000 0.86340  0.21017  0.36259  Biso   1.000  Cr
  Mn1      1.0000 0.34800  0.72271  0.84059  Biso   1.000  Mn
  Mn2      1.0000 0.86162  0.56416  0.11939  Biso   1.000  Mn
  Mn3      1.0000 0.62620  0.19190  0.62764  Biso   1.000  Mn
  Mn4      1.0000 0.12832  0.83143  0.34396  Biso   1.000  Mn
