data_image0
_cell_length_a       13.9104
_cell_length_b       17.0365
_cell_length_c       20.815
_cell_angle_alpha    90
_cell_angle_beta     90
_cell_angle_gamma    90

_symmetry_space_group_name_H-M    "P 1"
_symmetry_int_tables_number       1

loop_
  _symmetry_equiv_pos_as_xyz
  'x, y, z'

loop_
  _atom_site_label
  _atom_site_occupancy
  _atom_site_fract_x
  _atom_site_fract_y
  _atom_site_fract_z
  _atom_site_thermal_displace_type
  _atom_site_B_iso_or_equiv
  _atom_site_type_symbol
  Fe1      1.0000 0.87648  0.19974  0.07563  Biso   1.000  Fe
  Fe2      1.0000 0.03537  0.19941  0.41692  Biso   1.000  Fe
  N1       1.0000 0.82689  0.20676  0.17315  Biso   1.000  N
  C1       1.0000 0.80728  0.21020  0.22631  Biso   1.000  C
  N2       1.0000 0.89442  0.21424  0.37401  Biso   1.000  N
  C2       1.0000 0.84271  0.21308  0.33118  Biso   1.000  C
  N3       1.0000 0.77647  0.21207  0.28611  Biso   1.000  N
  N4       1.0000 0.01973  0.18791  0.11774  Biso   1.000  N
  C3       1.0000 0.07102  0.18347  0.16069  Biso   1.000  C
  N5       1.0000 0.09199  0.19166  0.32048  Biso   1.000  N
  C4       1.0000 0.10862  0.18641  0.26648  Biso   1.000  C
  N6       1.0000 0.13617  0.17915  0.20635  Biso   1.000  N
  N7       1.0000 0.93302  0.20053  0.97754  Biso   1.000  N
  C5       1.0000 0.99338  0.23392  0.95178  Biso   1.000  C
  N8       1.0000 0.22537  0.28599  0.94743  Biso   1.000  N
  C6       1.0000 0.14490  0.27872  0.93574  Biso   1.000  C
  N9       1.0000 0.05494  0.27385  0.91817  Biso   1.000  N
  N10      1.0000 0.90093  0.32390  0.07184  Biso   1.000  N
  C7       1.0000 0.94315  0.38031  0.06110  Biso   1.000  C
  N11      1.0000 0.98359  0.57625  0.07670  Biso   1.000  N
  C8       1.0000 0.98522  0.51070  0.06415  Biso   1.000  C
  N12      1.0000 0.99878  0.43880  0.04500  Biso   1.000  N
  N13      1.0000 0.17723  0.18470  0.45800  Biso   1.000  N
  C9       1.0000 0.26030  0.18577  0.45857  Biso   1.000  C
  N14      1.0000 0.46581  0.28496  0.48826  Biso   1.000  N
  C10      1.0000 0.40882  0.23831  0.47478  Biso   1.000  C
  N15      1.0000 0.35395  0.17986  0.45737  Biso   1.000  N
  N16      1.0000 0.93903  0.82270  0.08589  Biso   1.000  N
  C11      1.0000 0.89511  0.87924  0.08995  Biso   1.000  C
  N17      1.0000 0.86448  0.07615  0.07064  Biso   1.000  N
  C12      1.0000 0.85726  0.01017  0.08163  Biso   1.000  C
  N18      1.0000 0.83578  0.93805  0.09684  Biso   1.000  N
  Fe3      1.0000 0.62352  0.80025  0.57563  Biso   1.000  Fe
  Fe4      1.0000 0.46463  0.80059  0.91692  Biso   1.000  Fe
  N19      1.0000 0.67311  0.79324  0.67315  Biso   1.000  N
  C13      1.0000 0.69272  0.78980  0.72631  Biso   1.000  C
  N20      1.0000 0.60558  0.78576  0.87401  Biso   1.000  N
  C14      1.0000 0.65729  0.78692  0.83118  Biso   1.000  C
  N21      1.0000 0.72353  0.78793  0.78611  Biso   1.000  N
  N22      1.0000 0.48027  0.81209  0.61774  Biso   1.000  N
  C15      1.0000 0.42898  0.81653  0.66069  Biso   1.000  C
  N23      1.0000 0.40801  0.80834  0.82048  Biso   1.000  N
  C16      1.0000 0.39138  0.81359  0.76648  Biso   1.000  C
  N24      1.0000 0.36383  0.82085  0.70635  Biso   1.000  N
  N25      1.0000 0.56698  0.79947  0.47754  Biso   1.000  N
  C17      1.0000 0.50662  0.76608  0.45178  Biso   1.000  C
  N26      1.0000 0.27463  0.71401  0.44743  Biso   1.000  N
  C18      1.0000 0.35510  0.72128  0.43574  Biso   1.000  C
  N27      1.0000 0.44506  0.72615  0.41817  Biso   1.000  N
  N28      1.0000 0.59907  0.67610  0.57184  Biso   1.000  N
  C19      1.0000 0.55685  0.61969  0.56110  Biso   1.000  C
  N29      1.0000 0.51641  0.42375  0.57670  Biso   1.000  N
  C20      1.0000 0.51478  0.48930  0.56415  Biso   1.000  C
  N30      1.0000 0.50122  0.56120  0.54500  Biso   1.000  N
  N31      1.0000 0.32277  0.81530  0.95800  Biso   1.000  N
  C21      1.0000 0.23970  0.81423  0.95857  Biso   1.000  C
  N32      1.0000 0.03419  0.71504  0.98826  Biso   1.000  N
  C22      1.0000 0.09118  0.76169  0.97478  Biso   1.000  C
  N33      1.0000 0.14605  0.82014  0.95737  Biso   1.000  N
  N34      1.0000 0.56097  0.17730  0.58589  Biso   1.000  N
  C23      1.0000 0.60489  0.12076  0.58995  Biso   1.000  C
  N35      1.0000 0.63552  0.92385  0.57064  Biso   1.000  N
  C24      1.0000 0.64274  0.98983  0.58163  Biso   1.000  C
  N36      1.0000 0.66422  0.06195  0.59684  Biso   1.000  N
  Fe5      1.0000 0.12352  0.69974  0.42437  Biso   1.000  Fe
  Fe6      1.0000 0.96463  0.69941  0.08308  Biso   1.000  Fe
  N37      1.0000 0.17311  0.70676  0.32685  Biso   1.000  N
  C25      1.0000 0.19272  0.71020  0.27369  Biso   1.000  C
  N38      1.0000 0.10558  0.71424  0.12599  Biso   1.000  N
  C26      1.0000 0.15729  0.71308  0.16882  Biso   1.000  C
  N39      1.0000 0.22353  0.71207  0.21389  Biso   1.000  N
  N40      1.0000 0.98027  0.68791  0.38226  Biso   1.000  N
  C27      1.0000 0.92898  0.68347  0.33931  Biso   1.000  C
  N41      1.0000 0.90801  0.69166  0.17952  Biso   1.000  N
  C28      1.0000 0.89138  0.68641  0.23352  Biso   1.000  C
  N42      1.0000 0.86383  0.67915  0.29365  Biso   1.000  N
  N43      1.0000 0.06698  0.70053  0.52246  Biso   1.000  N
  C29      1.0000 0.00662  0.73392  0.54822  Biso   1.000  C
  N44      1.0000 0.77463  0.78599  0.55257  Biso   1.000  N
  C30      1.0000 0.85510  0.77872  0.56426  Biso   1.000  C
  N45      1.0000 0.94506  0.77385  0.58183  Biso   1.000  N
  N46      1.0000 0.09907  0.82390  0.42816  Biso   1.000  N
  C31      1.0000 0.05685  0.88031  0.43890  Biso   1.000  C
  N47      1.0000 0.01641  0.07625  0.42330  Biso   1.000  N
  C32      1.0000 0.01478  0.01070  0.43585  Biso   1.000  C
  N48      1.0000 0.00122  0.93880  0.45500  Biso   1.000  N
  N49      1.0000 0.82277  0.68470  0.04200  Biso   1.000  N
  C33      1.0000 0.73970  0.68577  0.04143  Biso   1.000  C
  N50      1.0000 0.53419  0.78496  0.01174  Biso   1.000  N
  C34      1.0000 0.59118  0.73831  0.02522  Biso   1.000  C
  N51      1.0000 0.64605  0.67986  0.04263  Biso   1.000  N
  N52      1.0000 0.06097  0.32270  0.41411  Biso   1.000  N
  C35      1.0000 0.10489  0.37924  0.41005  Biso   1.000  C
  N53      1.0000 0.13552  0.57615  0.42936  Biso   1.000  N
  C36      1.0000 0.14274  0.51017  0.41837  Biso   1.000  C
  N54      1.0000 0.16422  0.43805  0.40316  Biso   1.000  N
  Fe7      1.0000 0.37648  0.30025  0.92437  Biso   1.000  Fe
  Fe8      1.0000 0.53537  0.30059  0.58308  Biso   1.000  Fe
  N55      1.0000 0.32689  0.29324  0.82685  Biso   1.000  N
  C37      1.0000 0.30728  0.28980  0.77369  Biso   1.000  C
  N56      1.0000 0.39442  0.28576  0.62599  Biso   1.000  N
  C38      1.0000 0.34271  0.28692  0.66882  Biso   1.000  C
  N57      1.0000 0.27647  0.28793  0.71389  Biso   1.000  N
  N58      1.0000 0.51973  0.31209  0.88226  Biso   1.000  N
  C39      1.0000 0.57102  0.31653  0.83931  Biso   1.000  C
  N59      1.0000 0.59199  0.30834  0.67952  Biso   1.000  N
  C40      1.0000 0.60862  0.31359  0.73352  Biso   1.000  C
  N60      1.0000 0.63617  0.32085  0.79365  Biso   1.000  N
  N61      1.0000 0.43302  0.29947  0.02246  Biso   1.000  N
  C41      1.0000 0.49338  0.26608  0.04822  Biso   1.000  C
  N62      1.0000 0.72537  0.21401  0.05257  Biso   1.000  N
  C42      1.0000 0.64490  0.22128  0.06426  Biso   1.000  C
  N63      1.0000 0.55494  0.22615  0.08183  Biso   1.000  N
  N64      1.0000 0.40093  0.17610  0.92816  Biso   1.000  N
  C43      1.0000 0.44315  0.11969  0.93890  Biso   1.000  C
  N65      1.0000 0.48359  0.92375  0.92330  Biso   1.000  N
  C44      1.0000 0.48522  0.98930  0.93585  Biso   1.000  C
  N66      1.0000 0.49878  0.06120  0.95500  Biso   1.000  N
  N67      1.0000 0.67723  0.31530  0.54200  Biso   1.000  N
  C45      1.0000 0.76030  0.31423  0.54143  Biso   1.000  C
  N68      1.0000 0.96581  0.21504  0.51174  Biso   1.000  N
  C46      1.0000 0.90882  0.26169  0.52522  Biso   1.000  C
  N69      1.0000 0.85395  0.32014  0.54263  Biso   1.000  N
  N70      1.0000 0.43903  0.67730  0.91411  Biso   1.000  N
  C47      1.0000 0.39511  0.62076  0.91005  Biso   1.000  C
  N71      1.0000 0.36448  0.42385  0.92936  Biso   1.000  N
  C48      1.0000 0.35726  0.48983  0.91837  Biso   1.000  C
  N72      1.0000 0.33578  0.56195  0.90316  Biso   1.000  N
