data_BEXRUT_clean
_audit_creation_date              2014-07-02
_audit_creation_method            'Materials Studio'
_symmetry_space_group_name_H-M    'P1'
_symmetry_Int_Tables_number       1
_symmetry_cell_setting            triclinic
loop_
_symmetry_equiv_pos_as_xyz
  x,y,z
_cell_length_a                    12.2315
_cell_length_b                    12.4428
_cell_length_c                    17.7483
_cell_angle_alpha                 90.0000
_cell_angle_beta                  90.0000
_cell_angle_gamma                 112.5100
loop_
_atom_site_label
_atom_site_type_symbol
_atom_site_fract_x
_atom_site_fract_y
_atom_site_fract_z
_atom_site_U_iso_or_equiv
_atom_site_adp_type
_atom_site_occupancy
Ni1    Ni    0.15437   0.06103   0.29552   0.01267  Uiso   1.00
Ni2    Ni    0.34563   0.93897   0.79552   0.01267  Uiso   1.00
Ni3    Ni    0.84563   0.93897   0.70448   0.01267  Uiso   1.00
Ni4    Ni    0.65437   0.06103   0.20448   0.01267  Uiso   1.00
Ni5    Ni    0.00000   0.50000   0.50000   0.01267  Uiso   1.00
Ni6    Ni    0.50000   0.50000   0.00000   0.01267  Uiso   1.00
H1     H     0.74720   0.37610   0.32130   0.01267  Uiso   1.00
H2     H     0.46910   0.41060   0.21570   0.01267  Uiso   1.00
H3     H     0.65020   0.64210   0.37600   0.01267  Uiso   1.00
H4     H     0.43360   0.58880   0.23310   0.01267  Uiso   1.00
H5     H     0.51030   0.68470   0.29330   0.01267  Uiso   1.00
H6     H     0.35120   0.73140   0.27060   0.01267  Uiso   1.00
H7     H     0.06890   0.71410   0.39630   0.01267  Uiso   1.00
H8     H     0.21150   0.48380   0.42760   0.01267  Uiso   1.00
H9     H     0.75280   0.62390   0.82130   0.01267  Uiso   1.00
H10    H     0.03090   0.58940   0.71570   0.01267  Uiso   1.00
H11    H     0.84980   0.35790   0.87600   0.01267  Uiso   1.00
H12    H     0.06640   0.41120   0.73310   0.01267  Uiso   1.00
H13    H     0.98970   0.31530   0.79330   0.01267  Uiso   1.00
H14    H     0.14880   0.26860   0.77060   0.01267  Uiso   1.00
H15    H     0.43110   0.28590   0.89630   0.01267  Uiso   1.00
H16    H     0.28850   0.51620   0.92760   0.01267  Uiso   1.00
H17    H     0.25280   0.62390   0.67870   0.01267  Uiso   1.00
H18    H     0.53090   0.58940   0.78430   0.01267  Uiso   1.00
H19    H     0.34980   0.35790   0.62400   0.01267  Uiso   1.00
H20    H     0.56640   0.41120   0.76690   0.01267  Uiso   1.00
H21    H     0.48970   0.31530   0.70670   0.01267  Uiso   1.00
H22    H     0.64880   0.26860   0.72940   0.01267  Uiso   1.00
H23    H     0.93110   0.28590   0.60370   0.01267  Uiso   1.00
H24    H     0.78850   0.51620   0.57240   0.01267  Uiso   1.00
H25    H     0.24720   0.37610   0.17870   0.01267  Uiso   1.00
H26    H     0.96910   0.41060   0.28430   0.01267  Uiso   1.00
H27    H     0.15020   0.64210   0.12400   0.01267  Uiso   1.00
H28    H     0.93360   0.58880   0.26690   0.01267  Uiso   1.00
H29    H     0.01030   0.68470   0.20670   0.01267  Uiso   1.00
H30    H     0.85120   0.73140   0.22940   0.01267  Uiso   1.00
H31    H     0.56890   0.71410   0.10370   0.01267  Uiso   1.00
H32    H     0.71150   0.48380   0.07240   0.01267  Uiso   1.00
C1     C     0.80810   0.55350   0.41710   0.01267  Uiso   1.00
C2     C     0.71360   0.51560   0.35820   0.01267  Uiso   1.00
C3     C     0.69620   0.41680   0.31460   0.01267  Uiso   1.00
C4     C     0.60590   0.37700   0.26180   0.01267  Uiso   1.00
C5     C     0.53170   0.43740   0.25140   0.01267  Uiso   1.00
C6     C     0.54980   0.53720   0.29340   0.01267  Uiso   1.00
C7     C     0.63950   0.57480   0.34690   0.01267  Uiso   1.00
C8     C     0.58730   0.26880   0.21830   0.01267  Uiso   1.00
C9     C     0.46770   0.60030   0.28450   0.01267  Uiso   1.00
C10    C     0.29580   0.60170   0.34810   0.01267  Uiso   1.00
C11    C     0.29480   0.69630   0.30910   0.01267  Uiso   1.00
C12    C     0.20810   0.73950   0.32780   0.01267  Uiso   1.00
C13    C     0.12670   0.68370   0.38310   0.01267  Uiso   1.00
C14    C     0.21020   0.55020   0.40180   0.01267  Uiso   1.00
C15    C     0.20710   0.84630   0.28930   0.01267  Uiso   1.00
C16    C     0.69190   0.44650   0.91710   0.01267  Uiso   1.00
C17    C     0.78640   0.48440   0.85820   0.01267  Uiso   1.00
C18    C     0.80380   0.58320   0.81460   0.01267  Uiso   1.00
C19    C     0.89410   0.62300   0.76180   0.01267  Uiso   1.00
C20    C     0.96830   0.56260   0.75140   0.01267  Uiso   1.00
C21    C     0.95020   0.46280   0.79340   0.01267  Uiso   1.00
C22    C     0.86050   0.42520   0.84690   0.01267  Uiso   1.00
C23    C     0.91270   0.73120   0.71830   0.01267  Uiso   1.00
C24    C     0.03230   0.39970   0.78450   0.01267  Uiso   1.00
C25    C     0.20420   0.39830   0.84810   0.01267  Uiso   1.00
C26    C     0.20520   0.30370   0.80910   0.01267  Uiso   1.00
C27    C     0.29190   0.26050   0.82780   0.01267  Uiso   1.00
C28    C     0.37330   0.31630   0.88310   0.01267  Uiso   1.00
C29    C     0.28980   0.44980   0.90180   0.01267  Uiso   1.00
C30    C     0.29290   0.15370   0.78930   0.01267  Uiso   1.00
C31    C     0.19190   0.44650   0.58290   0.01267  Uiso   1.00
C32    C     0.28640   0.48440   0.64180   0.01267  Uiso   1.00
C33    C     0.30380   0.58320   0.68540   0.01267  Uiso   1.00
C34    C     0.39410   0.62300   0.73820   0.01267  Uiso   1.00
C35    C     0.46830   0.56260   0.74860   0.01267  Uiso   1.00
C36    C     0.45020   0.46280   0.70660   0.01267  Uiso   1.00
C37    C     0.36050   0.42520   0.65310   0.01267  Uiso   1.00
C38    C     0.41270   0.73120   0.78170   0.01267  Uiso   1.00
C39    C     0.53230   0.39970   0.71550   0.01267  Uiso   1.00
C40    C     0.70420   0.39830   0.65190   0.01267  Uiso   1.00
C41    C     0.70520   0.30370   0.69090   0.01267  Uiso   1.00
C42    C     0.79190   0.26050   0.67220   0.01267  Uiso   1.00
C43    C     0.87330   0.31630   0.61690   0.01267  Uiso   1.00
C44    C     0.78980   0.44980   0.59820   0.01267  Uiso   1.00
C45    C     0.79290   0.15370   0.71070   0.01267  Uiso   1.00
C46    C     0.30810   0.55350   0.08290   0.01267  Uiso   1.00
C47    C     0.21360   0.51560   0.14180   0.01267  Uiso   1.00
C48    C     0.19620   0.41680   0.18540   0.01267  Uiso   1.00
C49    C     0.10590   0.37700   0.23820   0.01267  Uiso   1.00
C50    C     0.03170   0.43740   0.24860   0.01267  Uiso   1.00
C51    C     0.04980   0.53720   0.20660   0.01267  Uiso   1.00
C52    C     0.13950   0.57480   0.15310   0.01267  Uiso   1.00
C53    C     0.08730   0.26880   0.28170   0.01267  Uiso   1.00
C54    C     0.96770   0.60030   0.21550   0.01267  Uiso   1.00
C55    C     0.79580   0.60170   0.15190   0.01267  Uiso   1.00
C56    C     0.79480   0.69630   0.19090   0.01267  Uiso   1.00
C57    C     0.70810   0.73950   0.17220   0.01267  Uiso   1.00
C58    C     0.62670   0.68370   0.11690   0.01267  Uiso   1.00
C59    C     0.71020   0.55020   0.09820   0.01267  Uiso   1.00
C60    C     0.70710   0.84630   0.21070   0.01267  Uiso   1.00
N1     N     0.12570   0.58870   0.41917   0.01267  Uiso   1.00
N2     N     0.37430   0.41130   0.91917   0.01267  Uiso   1.00
N3     N     0.87430   0.41130   0.58083   0.01267  Uiso   1.00
N4     N     0.62570   0.58870   0.08083   0.01267  Uiso   1.00
O1     O     0.87100   0.49440   0.42386   0.01267  Uiso   1.00
O2     O     0.81770   0.64070   0.45718   0.01267  Uiso   1.00
O3     O     0.50160   0.23160   0.17201   0.01267  Uiso   1.00
O4     O     0.66090   0.22220   0.22983   0.01267  Uiso   1.00
O5     O     0.37660   0.55120   0.33958   0.01267  Uiso   1.00
O6     O     0.14940   0.89840   0.32061   0.01267  Uiso   1.00
O7     O     0.26560   0.87570   0.22859   0.01267  Uiso   1.00
O8     O     0.62900   0.50560   0.92386   0.01267  Uiso   1.00
O9     O     0.68230   0.35930   0.95718   0.01267  Uiso   1.00
O10    O     0.99840   0.76840   0.67201   0.01267  Uiso   1.00
O11    O     0.83910   0.77780   0.72983   0.01267  Uiso   1.00
O12    O     0.12340   0.44880   0.83958   0.01267  Uiso   1.00
O13    O     0.35060   0.10160   0.82061   0.01267  Uiso   1.00
O14    O     0.23440   0.12430   0.72859   0.01267  Uiso   1.00
O15    O     0.12900   0.50560   0.57614   0.01267  Uiso   1.00
O16    O     0.18230   0.35930   0.54282   0.01267  Uiso   1.00
O17    O     0.49840   0.76840   0.82799   0.01267  Uiso   1.00
O18    O     0.33910   0.77780   0.77017   0.01267  Uiso   1.00
O19    O     0.62340   0.44880   0.66042   0.01267  Uiso   1.00
O20    O     0.85060   0.10160   0.67939   0.01267  Uiso   1.00
O21    O     0.73440   0.12430   0.77141   0.01267  Uiso   1.00
O22    O     0.37100   0.49440   0.07614   0.01267  Uiso   1.00
O23    O     0.31770   0.64070   0.04282   0.01267  Uiso   1.00
O24    O     0.00160   0.23160   0.32799   0.01267  Uiso   1.00
O25    O     0.16090   0.22220   0.27017   0.01267  Uiso   1.00
O26    O     0.87660   0.55120   0.16042   0.01267  Uiso   1.00
O27    O     0.64940   0.89840   0.17939   0.01267  Uiso   1.00
O28    O     0.76560   0.87570   0.27141   0.01267  Uiso   1.00
