data_image0
_cell_length_a       14.2228
_cell_length_b       16.705
_cell_length_c       21.602
_cell_angle_alpha    90
_cell_angle_beta     90
_cell_angle_gamma    90

_symmetry_space_group_name_H-M    "P 1"
_symmetry_int_tables_number       1

loop_
  _symmetry_equiv_pos_as_xyz
  'x, y, z'

loop_
  _atom_site_label
  _atom_site_occupancy
  _atom_site_fract_x
  _atom_site_fract_y
  _atom_site_fract_z
  _atom_site_thermal_displace_type
  _atom_site_B_iso_or_equiv
  _atom_site_type_symbol
  Co1      1.0000 0.87076  0.26820  0.92522  Biso   1.000  Co
  Co2      1.0000 0.03565  0.26935  0.59847  Biso   1.000  Co
  N1       1.0000 0.82653  0.24429  0.83416  Biso   1.000  N
  C1       1.0000 0.81128  0.24251  0.78211  Biso   1.000  C
  N2       1.0000 0.90505  0.25904  0.64324  Biso   1.000  N
  C2       1.0000 0.85179  0.25117  0.68230  Biso   1.000  C
  N3       1.0000 0.78571  0.24062  0.72374  Biso   1.000  N
  N4       1.0000 0.00883  0.28340  0.88437  Biso   1.000  N
  C3       1.0000 0.05906  0.29146  0.84271  Biso   1.000  C
  N5       1.0000 0.09219  0.28553  0.68925  Biso   1.000  N
  C4       1.0000 0.10233  0.29083  0.74187  Biso   1.000  C
  N6       1.0000 0.12444  0.30035  0.80063  Biso   1.000  N
  N7       1.0000 0.92443  0.28746  0.01630  Biso   1.000  N
  C5       1.0000 0.99200  0.27891  0.04450  Biso   1.000  C
  N8       1.0000 0.22527  0.24495  0.05076  Biso   1.000  N
  C6       1.0000 0.14770  0.25642  0.06257  Biso   1.000  C
  N9       1.0000 0.06192  0.26980  0.08267  Biso   1.000  N
  N10      1.0000 0.84943  0.39110  0.91565  Biso   1.000  N
  C7       1.0000 0.84167  0.45925  0.90907  Biso   1.000  C
  N11      1.0000 0.93187  0.64602  0.89535  Biso   1.000  N
  C8       1.0000 0.88360  0.59080  0.89800  Biso   1.000  C
  N12      1.0000 0.82024  0.53411  0.89998  Biso   1.000  N
  N13      1.0000 0.17091  0.28285  0.55724  Biso   1.000  N
  C9       1.0000 0.25060  0.29144  0.55193  Biso   1.000  C
  N14      1.0000 0.46090  0.25128  0.48445  Biso   1.000  N
  C10      1.0000 0.39991  0.27500  0.51427  Biso   1.000  C
  N15      1.0000 0.34108  0.30786  0.55262  Biso   1.000  N
  N16      1.0000 0.98034  0.89427  0.91673  Biso   1.000  N
  C11      1.0000 0.95385  0.95067  0.94268  Biso   1.000  C
  N17      1.0000 0.89371  0.14592  0.94157  Biso   1.000  N
  C12      1.0000 0.90947  0.08088  0.95613  Biso   1.000  C
  N18      1.0000 0.92617  0.00918  0.97836  Biso   1.000  N
  Co3      1.0000 0.62924  0.73180  0.42522  Biso   1.000  Co
  Co4      1.0000 0.46435  0.73065  0.09847  Biso   1.000  Co
  N19      1.0000 0.67347  0.75571  0.33416  Biso   1.000  N
  C13      1.0000 0.68872  0.75749  0.28211  Biso   1.000  C
  N20      1.0000 0.59495  0.74096  0.14324  Biso   1.000  N
  C14      1.0000 0.64821  0.74883  0.18230  Biso   1.000  C
  N21      1.0000 0.71429  0.75938  0.22374  Biso   1.000  N
  N22      1.0000 0.49117  0.71660  0.38437  Biso   1.000  N
  C15      1.0000 0.44094  0.70854  0.34271  Biso   1.000  C
  N23      1.0000 0.40781  0.71447  0.18925  Biso   1.000  N
  C16      1.0000 0.39767  0.70917  0.24187  Biso   1.000  C
  N24      1.0000 0.37556  0.69965  0.30063  Biso   1.000  N
  N25      1.0000 0.57557  0.71254  0.51630  Biso   1.000  N
  C17      1.0000 0.50800  0.72109  0.54450  Biso   1.000  C
  N26      1.0000 0.27473  0.75505  0.55076  Biso   1.000  N
  C18      1.0000 0.35230  0.74358  0.56257  Biso   1.000  C
  N27      1.0000 0.43808  0.73020  0.58267  Biso   1.000  N
  N28      1.0000 0.65057  0.60890  0.41565  Biso   1.000  N
  C19      1.0000 0.65833  0.54075  0.40907  Biso   1.000  C
  N29      1.0000 0.56813  0.35398  0.39535  Biso   1.000  N
  C20      1.0000 0.61640  0.40920  0.39800  Biso   1.000  C
  N30      1.0000 0.67976  0.46589  0.39998  Biso   1.000  N
  N31      1.0000 0.32909  0.71715  0.05724  Biso   1.000  N
  C21      1.0000 0.24940  0.70856  0.05193  Biso   1.000  C
  N32      1.0000 0.03910  0.74872  0.98445  Biso   1.000  N
  C22      1.0000 0.10009  0.72500  0.01427  Biso   1.000  C
  N33      1.0000 0.15892  0.69214  0.05262  Biso   1.000  N
  N34      1.0000 0.51966  0.10573  0.41673  Biso   1.000  N
  C23      1.0000 0.54615  0.04933  0.44268  Biso   1.000  C
  N35      1.0000 0.60629  0.85408  0.44157  Biso   1.000  N
  C24      1.0000 0.59053  0.91912  0.45613  Biso   1.000  C
  N36      1.0000 0.57383  0.99082  0.47836  Biso   1.000  N
  Co5      1.0000 0.12924  0.76820  0.57478  Biso   1.000  Co
  Co6      1.0000 0.96435  0.76935  0.90153  Biso   1.000  Co
  N37      1.0000 0.17347  0.74429  0.66584  Biso   1.000  N
  C25      1.0000 0.18872  0.74251  0.71789  Biso   1.000  C
  N38      1.0000 0.09495  0.75904  0.85676  Biso   1.000  N
  C26      1.0000 0.14821  0.75117  0.81770  Biso   1.000  C
  N39      1.0000 0.21429  0.74062  0.77626  Biso   1.000  N
  N40      1.0000 0.99117  0.78340  0.61563  Biso   1.000  N
  C27      1.0000 0.94094  0.79146  0.65729  Biso   1.000  C
  N41      1.0000 0.90781  0.78553  0.81075  Biso   1.000  N
  C28      1.0000 0.89767  0.79083  0.75813  Biso   1.000  C
  N42      1.0000 0.87556  0.80035  0.69937  Biso   1.000  N
  N43      1.0000 0.07557  0.78746  0.48370  Biso   1.000  N
  C29      1.0000 0.00800  0.77891  0.45550  Biso   1.000  C
  N44      1.0000 0.77473  0.74495  0.44924  Biso   1.000  N
  C30      1.0000 0.85230  0.75642  0.43743  Biso   1.000  C
  N45      1.0000 0.93808  0.76980  0.41733  Biso   1.000  N
  N46      1.0000 0.15057  0.89110  0.58435  Biso   1.000  N
  C31      1.0000 0.15833  0.95925  0.59093  Biso   1.000  C
  N47      1.0000 0.06813  0.14602  0.60465  Biso   1.000  N
  C32      1.0000 0.11640  0.09080  0.60200  Biso   1.000  C
  N48      1.0000 0.17976  0.03411  0.60002  Biso   1.000  N
  N49      1.0000 0.82909  0.78285  0.94276  Biso   1.000  N
  C33      1.0000 0.74940  0.79144  0.94807  Biso   1.000  C
  N50      1.0000 0.53910  0.75128  0.01555  Biso   1.000  N
  C34      1.0000 0.60009  0.77500  0.98573  Biso   1.000  C
  N51      1.0000 0.65892  0.80786  0.94738  Biso   1.000  N
  N52      1.0000 0.01966  0.39427  0.58327  Biso   1.000  N
  C35      1.0000 0.04615  0.45067  0.55732  Biso   1.000  C
  N53      1.0000 0.10629  0.64592  0.55843  Biso   1.000  N
  C36      1.0000 0.09053  0.58088  0.54387  Biso   1.000  C
  N54      1.0000 0.07383  0.50918  0.52164  Biso   1.000  N
  Co7      1.0000 0.37076  0.23180  0.07478  Biso   1.000  Co
  Co8      1.0000 0.53565  0.23065  0.40153  Biso   1.000  Co
  N55      1.0000 0.32653  0.25571  0.16584  Biso   1.000  N
  C37      1.0000 0.31128  0.25749  0.21789  Biso   1.000  C
  N56      1.0000 0.40505  0.24096  0.35676  Biso   1.000  N
  C38      1.0000 0.35179  0.24883  0.31770  Biso   1.000  C
  N57      1.0000 0.28571  0.25938  0.27626  Biso   1.000  N
  N58      1.0000 0.50883  0.21660  0.11563  Biso   1.000  N
  C39      1.0000 0.55906  0.20854  0.15729  Biso   1.000  C
  N59      1.0000 0.59219  0.21447  0.31075  Biso   1.000  N
  C40      1.0000 0.60233  0.20917  0.25813  Biso   1.000  C
  N60      1.0000 0.62444  0.19965  0.19937  Biso   1.000  N
  N61      1.0000 0.42443  0.21254  0.98370  Biso   1.000  N
  C41      1.0000 0.49200  0.22109  0.95550  Biso   1.000  C
  N62      1.0000 0.72527  0.25505  0.94924  Biso   1.000  N
  C42      1.0000 0.64770  0.24358  0.93743  Biso   1.000  C
  N63      1.0000 0.56192  0.23020  0.91733  Biso   1.000  N
  N64      1.0000 0.34943  0.10890  0.08435  Biso   1.000  N
  C43      1.0000 0.34167  0.04075  0.09093  Biso   1.000  C
  N65      1.0000 0.43187  0.85398  0.10465  Biso   1.000  N
  C44      1.0000 0.38360  0.90920  0.10200  Biso   1.000  C
  N66      1.0000 0.32024  0.96589  0.10002  Biso   1.000  N
  N67      1.0000 0.67091  0.21715  0.44276  Biso   1.000  N
  C45      1.0000 0.75060  0.20856  0.44807  Biso   1.000  C
  N68      1.0000 0.96090  0.24872  0.51555  Biso   1.000  N
  C46      1.0000 0.89991  0.22500  0.48573  Biso   1.000  C
  N69      1.0000 0.84108  0.19214  0.44738  Biso   1.000  N
  N70      1.0000 0.48034  0.60573  0.08327  Biso   1.000  N
  C47      1.0000 0.45385  0.54933  0.05732  Biso   1.000  C
  N71      1.0000 0.39371  0.35408  0.05843  Biso   1.000  N
  C48      1.0000 0.40947  0.41912  0.04387  Biso   1.000  C
  N72      1.0000 0.42617  0.49082  0.02164  Biso   1.000  N
