data_image0
_cell_length_a       12.5175
_cell_length_b       17.86
_cell_length_c       12.3435
_cell_angle_alpha    90
_cell_angle_beta     112.601
_cell_angle_gamma    90

_symmetry_space_group_name_H-M    "P 1"
_symmetry_int_tables_number       1

loop_
  _symmetry_equiv_pos_as_xyz
  'x, y, z'

loop_
  _atom_site_label
  _atom_site_occupancy
  _atom_site_fract_x
  _atom_site_fract_y
  _atom_site_fract_z
  _atom_site_thermal_displace_type
  _atom_site_B_iso_or_equiv
  _atom_site_type_symbol
  O1       1.0000 0.99822  0.07750  0.37195  Biso   1.000  O
  O2       1.0000 0.14158  0.04259  0.31590  Biso   1.000  O
  C1       1.0000 0.05550  0.08329  0.30790  Biso   1.000  C
  C2       1.0000 0.01610  0.14214  0.21280  Biso   1.000  C
  C3       1.0000 0.91840  0.18521  0.19730  Biso   1.000  C
  H1       1.0000 0.87880  0.17870  0.24870  Biso   1.000  H
  C4       1.0000 0.87820  0.23790  0.10680  Biso   1.000  C
  C5       1.0000 0.93860  0.24859  0.03320  Biso   1.000  C
  H2       1.0000 0.91220  0.28450  0.97190  Biso   1.000  H
  C6       1.0000 0.03770  0.20640  0.05020  Biso   1.000  C
  C7       1.0000 0.07600  0.15366  0.13970  Biso   1.000  C
  H3       1.0000 0.14360  0.12520  0.15120  Biso   1.000  H
  C8       1.0000 0.77160  0.28265  0.09070  Biso   1.000  C
  O3       1.0000 0.73383  0.32823  0.00439  Biso   1.000  O
  O4       1.0000 0.72582  0.27172  0.16384  Biso   1.000  O
  C9       1.0000 0.10060  0.21637  0.96920  Biso   1.000  C
  H4       1.0000 0.08880  0.26750  0.93580  Biso   1.000  H
  H5       1.0000 0.18460  0.20770  0.01140  Biso   1.000  H
  O5       1.0000 0.05110  0.16110  0.87773  Biso   1.000  O
  C10      1.0000 0.10180  0.15274  0.79820  Biso   1.000  C
  C11      1.0000 0.05060  0.09924  0.71210  Biso   1.000  C
  H6       1.0000 0.98430  0.07350  0.71250  Biso   1.000  H
  N1       1.0000 0.09035  0.08235  0.62886  Biso   1.000  N
  C12      1.0000 0.18440  0.11884  0.62930  Biso   1.000  C
  H7       1.0000 0.21410  0.10660  0.57130  Biso   1.000  H
  C13      1.0000 0.23970  0.17380  0.71150  Biso   1.000  C
  C14      1.0000 0.19660  0.19260  0.79730  Biso   1.000  C
  H8       1.0000 0.23090  0.23120  0.85270  Biso   1.000  H
  C15      1.0000 0.34670  0.21287  0.71080  Biso   1.000  C
  O6       1.0000 0.39737  0.18194  0.65209  Biso   1.000  O
  O7       1.0000 0.37613  0.27250  0.76881  Biso   1.000  O
  Co1      1.0000 0.56249  0.29553  0.15740  Biso   1.000  Co
  O8       1.0000 0.00178  0.57750  0.12805  Biso   1.000  O
  O9       1.0000 0.85842  0.54259  0.18410  Biso   1.000  O
  C16      1.0000 0.94450  0.58329  0.19210  Biso   1.000  C
  C17      1.0000 0.98390  0.64214  0.28720  Biso   1.000  C
  C18      1.0000 0.08160  0.68521  0.30270  Biso   1.000  C
  H9       1.0000 0.12120  0.67870  0.25130  Biso   1.000  H
  C19      1.0000 0.12180  0.73790  0.39320  Biso   1.000  C
  C20      1.0000 0.06140  0.74859  0.46680  Biso   1.000  C
  H10      1.0000 0.08780  0.78450  0.52810  Biso   1.000  H
  C21      1.0000 0.96230  0.70640  0.44980  Biso   1.000  C
  C22      1.0000 0.92400  0.65366  0.36030  Biso   1.000  C
  H11      1.0000 0.85640  0.62520  0.34880  Biso   1.000  H
  C23      1.0000 0.22840  0.78265  0.40930  Biso   1.000  C
  O10      1.0000 0.26617  0.82823  0.49561  Biso   1.000  O
  O11      1.0000 0.27418  0.77172  0.33616  Biso   1.000  O
  C24      1.0000 0.89940  0.71637  0.53080  Biso   1.000  C
  H12      1.0000 0.91120  0.76750  0.56420  Biso   1.000  H
  H13      1.0000 0.81540  0.70770  0.48860  Biso   1.000  H
  O12      1.0000 0.94890  0.66110  0.62227  Biso   1.000  O
  C25      1.0000 0.89820  0.65274  0.70180  Biso   1.000  C
  C26      1.0000 0.94940  0.59924  0.78790  Biso   1.000  C
  H14      1.0000 0.01570  0.57350  0.78750  Biso   1.000  H
  N2       1.0000 0.90965  0.58235  0.87114  Biso   1.000  N
  C27      1.0000 0.81560  0.61884  0.87070  Biso   1.000  C
  H15      1.0000 0.78590  0.60660  0.92870  Biso   1.000  H
  C28      1.0000 0.76030  0.67380  0.78850  Biso   1.000  C
  C29      1.0000 0.80340  0.69260  0.70270  Biso   1.000  C
  H16      1.0000 0.76910  0.73120  0.64730  Biso   1.000  H
  C30      1.0000 0.65330  0.71287  0.78920  Biso   1.000  C
  O13      1.0000 0.60263  0.68194  0.84791  Biso   1.000  O
  O14      1.0000 0.62387  0.77250  0.73119  Biso   1.000  O
  Co2      1.0000 0.43751  0.79553  0.34260  Biso   1.000  Co
  O15      1.0000 0.00178  0.92250  0.62805  Biso   1.000  O
  O16      1.0000 0.85842  0.95741  0.68410  Biso   1.000  O
  C31      1.0000 0.94450  0.91671  0.69210  Biso   1.000  C
  C32      1.0000 0.98390  0.85786  0.78720  Biso   1.000  C
  C33      1.0000 0.08160  0.81479  0.80270  Biso   1.000  C
  H17      1.0000 0.12120  0.82130  0.75130  Biso   1.000  H
  C34      1.0000 0.12180  0.76210  0.89320  Biso   1.000  C
  C35      1.0000 0.06140  0.75141  0.96680  Biso   1.000  C
  H18      1.0000 0.08780  0.71550  0.02810  Biso   1.000  H
  C36      1.0000 0.96230  0.79360  0.94980  Biso   1.000  C
  C37      1.0000 0.92400  0.84634  0.86030  Biso   1.000  C
  H19      1.0000 0.85640  0.87480  0.84880  Biso   1.000  H
  C38      1.0000 0.22840  0.71735  0.90930  Biso   1.000  C
  O17      1.0000 0.26617  0.67177  0.99561  Biso   1.000  O
  O18      1.0000 0.27418  0.72828  0.83616  Biso   1.000  O
  C39      1.0000 0.89940  0.78363  0.03080  Biso   1.000  C
  H20      1.0000 0.91120  0.73250  0.06420  Biso   1.000  H
  H21      1.0000 0.81540  0.79230  0.98860  Biso   1.000  H
  O19      1.0000 0.94890  0.83890  0.12227  Biso   1.000  O
  C40      1.0000 0.89820  0.84726  0.20180  Biso   1.000  C
  C41      1.0000 0.94940  0.90076  0.28790  Biso   1.000  C
  H22      1.0000 0.01570  0.92650  0.28750  Biso   1.000  H
  N3       1.0000 0.90965  0.91765  0.37114  Biso   1.000  N
  C42      1.0000 0.81560  0.88116  0.37070  Biso   1.000  C
  H23      1.0000 0.78590  0.89340  0.42870  Biso   1.000  H
  C43      1.0000 0.76030  0.82620  0.28850  Biso   1.000  C
  C44      1.0000 0.80340  0.80740  0.20270  Biso   1.000  C
  H24      1.0000 0.76910  0.76880  0.14730  Biso   1.000  H
  C45      1.0000 0.65330  0.78713  0.28920  Biso   1.000  C
  O20      1.0000 0.60263  0.81806  0.34791  Biso   1.000  O
  O21      1.0000 0.62387  0.72750  0.23119  Biso   1.000  O
  Co3      1.0000 0.43751  0.70447  0.84260  Biso   1.000  Co
  O22      1.0000 0.99822  0.42250  0.87195  Biso   1.000  O
  O23      1.0000 0.14158  0.45741  0.81590  Biso   1.000  O
  C46      1.0000 0.05550  0.41671  0.80790  Biso   1.000  C
  C47      1.0000 0.01610  0.35786  0.71280  Biso   1.000  C
  C48      1.0000 0.91840  0.31479  0.69730  Biso   1.000  C
  H25      1.0000 0.87880  0.32130  0.74870  Biso   1.000  H
  C49      1.0000 0.87820  0.26210  0.60680  Biso   1.000  C
  C50      1.0000 0.93860  0.25141  0.53320  Biso   1.000  C
  H26      1.0000 0.91220  0.21550  0.47190  Biso   1.000  H
  C51      1.0000 0.03770  0.29360  0.55020  Biso   1.000  C
  C52      1.0000 0.07600  0.34634  0.63970  Biso   1.000  C
  H27      1.0000 0.14360  0.37480  0.65120  Biso   1.000  H
  C53      1.0000 0.77160  0.21735  0.59070  Biso   1.000  C
  O24      1.0000 0.73383  0.17177  0.50439  Biso   1.000  O
  O25      1.0000 0.72582  0.22828  0.66384  Biso   1.000  O
  C54      1.0000 0.10060  0.28363  0.46920  Biso   1.000  C
  H28      1.0000 0.08880  0.23250  0.43580  Biso   1.000  H
  H29      1.0000 0.18460  0.29230  0.51140  Biso   1.000  H
  O26      1.0000 0.05110  0.33890  0.37773  Biso   1.000  O
  C55      1.0000 0.10180  0.34726  0.29820  Biso   1.000  C
  C56      1.0000 0.05060  0.40076  0.21210  Biso   1.000  C
  H30      1.0000 0.98430  0.42650  0.21250  Biso   1.000  H
  N4       1.0000 0.09035  0.41765  0.12886  Biso   1.000  N
  C57      1.0000 0.18440  0.38116  0.12930  Biso   1.000  C
  H31      1.0000 0.21410  0.39340  0.07130  Biso   1.000  H
  C58      1.0000 0.23970  0.32620  0.21150  Biso   1.000  C
  C59      1.0000 0.19660  0.30740  0.29730  Biso   1.000  C
  H32      1.0000 0.23090  0.26880  0.35270  Biso   1.000  H
  C60      1.0000 0.34670  0.28713  0.21080  Biso   1.000  C
  O27      1.0000 0.39737  0.31806  0.15209  Biso   1.000  O
  O28      1.0000 0.37613  0.22750  0.26881  Biso   1.000  O
  Co4      1.0000 0.56249  0.20447  0.65740  Biso   1.000  Co
  Co5      1.0000 0.00000  0.00000  0.50000  Biso   1.000  Co
  Co6      1.0000 0.00000  0.50000  0.00000  Biso   1.000  Co
