data_BEXSAA_clean
_audit_creation_date              2014-07-02
_audit_creation_method            'Materials Studio'
_symmetry_space_group_name_H-M    'P1'
_symmetry_Int_Tables_number       1
_symmetry_cell_setting            triclinic
loop_
_symmetry_equiv_pos_as_xyz
  x,y,z
_cell_length_a                    12.5528
_cell_length_b                    12.6630
_cell_length_c                    18.1890
_cell_angle_alpha                 90.0000
_cell_angle_beta                  90.0000
_cell_angle_gamma                 113.3880
loop_
_atom_site_label
_atom_site_type_symbol
_atom_site_fract_x
_atom_site_fract_y
_atom_site_fract_z
_atom_site_U_iso_or_equiv
_atom_site_adp_type
_atom_site_occupancy
Mn1    Mn    0.67734   0.07290   0.20909   0.01267  Uiso   1.00
Mn2    Mn    0.82266   0.92710   0.70909   0.01267  Uiso   1.00
Mn3    Mn    0.32266   0.92710   0.79091   0.01267  Uiso   1.00
Mn4    Mn    0.17734   0.07290   0.29091   0.01267  Uiso   1.00
Mn5    Mn    0.50000   0.50000   0.00000   0.01267  Uiso   1.00
Mn6    Mn    0.00000   0.50000   0.50000   0.01267  Uiso   1.00
H1     H     0.25910   0.39140   0.18250   0.01267  Uiso   1.00
H2     H     0.16680   0.65360   0.12780   0.01267  Uiso   1.00
H3     H     0.98410   0.42110   0.28230   0.01267  Uiso   1.00
H4     H     0.02510   0.69160   0.20300   0.01267  Uiso   1.00
H5     H     0.94990   0.59900   0.26330   0.01267  Uiso   1.00
H6     H     0.87450   0.74120   0.22340   0.01267  Uiso   1.00
H7     H     0.59570   0.72300   0.10390   0.01267  Uiso   1.00
H8     H     0.72580   0.48980   0.07260   0.01267  Uiso   1.00
H9     H     0.24090   0.60860   0.68250   0.01267  Uiso   1.00
H10    H     0.33320   0.34640   0.62780   0.01267  Uiso   1.00
H11    H     0.51590   0.57890   0.78230   0.01267  Uiso   1.00
H12    H     0.47490   0.30840   0.70300   0.01267  Uiso   1.00
H13    H     0.55010   0.40100   0.76330   0.01267  Uiso   1.00
H14    H     0.62550   0.25880   0.72340   0.01267  Uiso   1.00
H15    H     0.90430   0.27700   0.60390   0.01267  Uiso   1.00
H16    H     0.77420   0.51020   0.57260   0.01267  Uiso   1.00
H17    H     0.74090   0.60860   0.81750   0.01267  Uiso   1.00
H18    H     0.83320   0.34640   0.87220   0.01267  Uiso   1.00
H19    H     0.01590   0.57890   0.71770   0.01267  Uiso   1.00
H20    H     0.97490   0.30840   0.79700   0.01267  Uiso   1.00
H21    H     0.05010   0.40100   0.73670   0.01267  Uiso   1.00
H22    H     0.12550   0.25880   0.77660   0.01267  Uiso   1.00
H23    H     0.40430   0.27700   0.89610   0.01267  Uiso   1.00
H24    H     0.27420   0.51020   0.92740   0.01267  Uiso   1.00
H25    H     0.75910   0.39140   0.31750   0.01267  Uiso   1.00
H26    H     0.66680   0.65360   0.37220   0.01267  Uiso   1.00
H27    H     0.48410   0.42110   0.21770   0.01267  Uiso   1.00
H28    H     0.52510   0.69160   0.29700   0.01267  Uiso   1.00
H29    H     0.44990   0.59900   0.23670   0.01267  Uiso   1.00
H30    H     0.37450   0.74120   0.27660   0.01267  Uiso   1.00
H31    H     0.09570   0.72300   0.39610   0.01267  Uiso   1.00
H32    H     0.22580   0.48980   0.42740   0.01267  Uiso   1.00
C1     C     0.10250   0.28340   0.28273   0.01267  Uiso   1.00
C2     C     0.11880   0.39030   0.23879   0.01267  Uiso   1.00
C3     C     0.20900   0.43070   0.18832   0.01267  Uiso   1.00
C4     C     0.22690   0.52800   0.14610   0.01267  Uiso   1.00
C5     C     0.32170   0.56630   0.08884   0.01267  Uiso   1.00
C6     C     0.15390   0.58610   0.15565   0.01267  Uiso   1.00
C7     C     0.06240   0.54620   0.20556   0.01267  Uiso   1.00
C8     C     0.04570   0.44820   0.24758   0.01267  Uiso   1.00
C9     C     0.98270   0.60850   0.21303   0.01267  Uiso   1.00
C10    C     0.81530   0.60850   0.14971   0.01267  Uiso   1.00
C11    C     0.81780   0.70560   0.18663   0.01267  Uiso   1.00
C12    C     0.73550   0.74980   0.16869   0.01267  Uiso   1.00
C13    C     0.73860   0.85750   0.20567   0.01267  Uiso   1.00
C14    C     0.65190   0.69300   0.11590   0.01267  Uiso   1.00
C15    C     0.72800   0.55660   0.09749   0.01267  Uiso   1.00
C16    C     0.39750   0.71660   0.78273   0.01267  Uiso   1.00
C17    C     0.38120   0.60970   0.73879   0.01267  Uiso   1.00
C18    C     0.29100   0.56930   0.68832   0.01267  Uiso   1.00
C19    C     0.27310   0.47200   0.64610   0.01267  Uiso   1.00
C20    C     0.17830   0.43370   0.58884   0.01267  Uiso   1.00
C21    C     0.34610   0.41390   0.65565   0.01267  Uiso   1.00
C22    C     0.43760   0.45380   0.70556   0.01267  Uiso   1.00
C23    C     0.45430   0.55180   0.74758   0.01267  Uiso   1.00
C24    C     0.51730   0.39150   0.71303   0.01267  Uiso   1.00
C25    C     0.68470   0.39150   0.64971   0.01267  Uiso   1.00
C26    C     0.68220   0.29440   0.68663   0.01267  Uiso   1.00
C27    C     0.76450   0.25020   0.66869   0.01267  Uiso   1.00
C28    C     0.76140   0.14250   0.70567   0.01267  Uiso   1.00
C29    C     0.84810   0.30700   0.61590   0.01267  Uiso   1.00
C30    C     0.77200   0.44340   0.59749   0.01267  Uiso   1.00
C31    C     0.89750   0.71660   0.71727   0.01267  Uiso   1.00
C32    C     0.88120   0.60970   0.76121   0.01267  Uiso   1.00
C33    C     0.79100   0.56930   0.81168   0.01267  Uiso   1.00
C34    C     0.77310   0.47200   0.85390   0.01267  Uiso   1.00
C35    C     0.67830   0.43370   0.91116   0.01267  Uiso   1.00
C36    C     0.84610   0.41390   0.84435   0.01267  Uiso   1.00
C37    C     0.93760   0.45380   0.79444   0.01267  Uiso   1.00
C38    C     0.95430   0.55180   0.75242   0.01267  Uiso   1.00
C39    C     0.01730   0.39150   0.78697   0.01267  Uiso   1.00
C40    C     0.18470   0.39150   0.85029   0.01267  Uiso   1.00
C41    C     0.18220   0.29440   0.81337   0.01267  Uiso   1.00
C42    C     0.26450   0.25020   0.83131   0.01267  Uiso   1.00
C43    C     0.26140   0.14250   0.79433   0.01267  Uiso   1.00
C44    C     0.34810   0.30700   0.88410   0.01267  Uiso   1.00
C45    C     0.27200   0.44340   0.90251   0.01267  Uiso   1.00
C46    C     0.60250   0.28340   0.21727   0.01267  Uiso   1.00
C47    C     0.61880   0.39030   0.26121   0.01267  Uiso   1.00
C48    C     0.70900   0.43070   0.31168   0.01267  Uiso   1.00
C49    C     0.72690   0.52800   0.35390   0.01267  Uiso   1.00
C50    C     0.82170   0.56630   0.41116   0.01267  Uiso   1.00
C51    C     0.65390   0.58610   0.34435   0.01267  Uiso   1.00
C52    C     0.56240   0.54620   0.29444   0.01267  Uiso   1.00
C53    C     0.54570   0.44820   0.25242   0.01267  Uiso   1.00
C54    C     0.48270   0.60850   0.28697   0.01267  Uiso   1.00
C55    C     0.31530   0.60850   0.35029   0.01267  Uiso   1.00
C56    C     0.31780   0.70560   0.31337   0.01267  Uiso   1.00
C57    C     0.23550   0.74980   0.33131   0.01267  Uiso   1.00
C58    C     0.23860   0.85750   0.29433   0.01267  Uiso   1.00
C59    C     0.15190   0.69300   0.38410   0.01267  Uiso   1.00
C60    C     0.22800   0.55660   0.40251   0.01267  Uiso   1.00
N1     N     0.64752   0.59770   0.08127   0.01267  Uiso   1.00
N2     N     0.85248   0.40230   0.58127   0.01267  Uiso   1.00
N3     N     0.35248   0.40230   0.91873   0.01267  Uiso   1.00
N4     N     0.14752   0.59770   0.41873   0.01267  Uiso   1.00
O1     O     0.17340   0.23863   0.27077   0.01267  Uiso   1.00
O2     O     0.01997   0.24592   0.32849   0.01267  Uiso   1.00
O3     O     0.33460   0.65458   0.05075   0.01267  Uiso   1.00
O4     O     0.37900   0.50565   0.08164   0.01267  Uiso   1.00
O5     O     0.89106   0.55670   0.15915   0.01267  Uiso   1.00
O6     O     0.67150   0.90150   0.18359   0.01267  Uiso   1.00
O7     O     0.80900   0.89610   0.25836   0.01267  Uiso   1.00
O8     O     0.32660   0.76137   0.77077   0.01267  Uiso   1.00
O9     O     0.48003   0.75408   0.82849   0.01267  Uiso   1.00
O10    O     0.16540   0.34542   0.55075   0.01267  Uiso   1.00
O11    O     0.12100   0.49435   0.58164   0.01267  Uiso   1.00
O12    O     0.60894   0.44330   0.65915   0.01267  Uiso   1.00
O13    O     0.82850   0.09850   0.68359   0.01267  Uiso   1.00
O14    O     0.69100   0.10390   0.75836   0.01267  Uiso   1.00
O15    O     0.82660   0.76137   0.72923   0.01267  Uiso   1.00
O16    O     0.98003   0.75408   0.67151   0.01267  Uiso   1.00
O17    O     0.66540   0.34542   0.94925   0.01267  Uiso   1.00
O18    O     0.62100   0.49435   0.91836   0.01267  Uiso   1.00
O19    O     0.10894   0.44330   0.84085   0.01267  Uiso   1.00
O20    O     0.32850   0.09850   0.81641   0.01267  Uiso   1.00
O21    O     0.19100   0.10390   0.74164   0.01267  Uiso   1.00
O22    O     0.67340   0.23863   0.22923   0.01267  Uiso   1.00
O23    O     0.51997   0.24592   0.17151   0.01267  Uiso   1.00
O24    O     0.83460   0.65458   0.44925   0.01267  Uiso   1.00
O25    O     0.87900   0.50565   0.41836   0.01267  Uiso   1.00
O26    O     0.39106   0.55670   0.34085   0.01267  Uiso   1.00
O27    O     0.17150   0.90150   0.31641   0.01267  Uiso   1.00
O28    O     0.30900   0.89610   0.24164   0.01267  Uiso   1.00
