data_BEXSII_clean
_audit_creation_date              2014-07-02
_audit_creation_method            'Materials Studio'
_symmetry_space_group_name_H-M    'P1'
_symmetry_Int_Tables_number       1
_symmetry_cell_setting            triclinic
loop_
_symmetry_equiv_pos_as_xyz
  x,y,z
_cell_length_a                    11.6416
_cell_length_b                    14.9517
_cell_length_c                    16.6108
_cell_angle_alpha                 90.0000
_cell_angle_beta                  93.8930
_cell_angle_gamma                 90.0000
loop_
_atom_site_label
_atom_site_type_symbol
_atom_site_fract_x
_atom_site_fract_y
_atom_site_fract_z
_atom_site_U_iso_or_equiv
_atom_site_adp_type
_atom_site_occupancy
Cu1    Cu    0.39677   0.03630   0.00865   0.01267  Uiso   1.00
Cu2    Cu    0.10323   0.53630   0.49135   0.01267  Uiso   1.00
Cu3    Cu    0.60323   0.96370   0.99135   0.01267  Uiso   1.00
Cu4    Cu    0.89677   0.46370   0.50865   0.01267  Uiso   1.00
Cu5    Cu    0.50000   0.50000  -0.00000   0.01267  Uiso   1.00
Cu6    Cu    0.00000   0.00000   0.50000   0.01267  Uiso   1.00
H1     H     0.25460   0.49470   0.73600   0.01267  Uiso   1.00
H2     H     0.95220   0.36230   0.74430   0.01267  Uiso   1.00
H3     H     0.18330   0.35680   0.93730   0.01267  Uiso   1.00
H4     H     0.00800   0.26790   0.93870   0.01267  Uiso   1.00
H5     H     0.92950   0.25410   0.85590   0.01267  Uiso   1.00
H6     H     0.79270   0.20400   0.92990   0.01267  Uiso   1.00
H7     H     0.48290   0.30410   0.98240   0.01267  Uiso   1.00
H8     H     0.73730   0.47120   0.94970   0.01267  Uiso   1.00
H9     H     0.24540   0.99470   0.76400   0.01267  Uiso   1.00
H10    H     0.54780   0.86230   0.75570   0.01267  Uiso   1.00
H11    H     0.31670   0.85680   0.56270   0.01267  Uiso   1.00
H12    H     0.49200   0.76790   0.56130   0.01267  Uiso   1.00
H13    H     0.57050   0.75410   0.64410   0.01267  Uiso   1.00
H14    H     0.70730   0.70400   0.57010   0.01267  Uiso   1.00
H15    H     0.01710   0.80410   0.51760   0.01267  Uiso   1.00
H16    H     0.76270   0.97120   0.55030   0.01267  Uiso   1.00
H17    H     0.74540   0.50530   0.26400   0.01267  Uiso   1.00
H18    H     0.04780   0.63770   0.25570   0.01267  Uiso   1.00
H19    H     0.81670   0.64320   0.06270   0.01267  Uiso   1.00
H20    H     0.99200   0.73210   0.06130   0.01267  Uiso   1.00
H21    H     0.07050   0.74590   0.14410   0.01267  Uiso   1.00
H22    H     0.20730   0.79600   0.07010   0.01267  Uiso   1.00
H23    H     0.51710   0.69590   0.01760   0.01267  Uiso   1.00
H24    H     0.26270   0.52880   0.05030   0.01267  Uiso   1.00
H25    H     0.75460   0.00530   0.23600   0.01267  Uiso   1.00
H26    H     0.45220   0.13770   0.24430   0.01267  Uiso   1.00
H27    H     0.68330   0.14320   0.43730   0.01267  Uiso   1.00
H28    H     0.50800   0.23210   0.43870   0.01267  Uiso   1.00
H29    H     0.42950   0.24590   0.35590   0.01267  Uiso   1.00
H30    H     0.29270   0.29600   0.42990   0.01267  Uiso   1.00
H31    H     0.98290   0.19590   0.48240   0.01267  Uiso   1.00
H32    H     0.23730   0.02880   0.44970   0.01267  Uiso   1.00
C1     C     0.34520   0.46327   0.88460   0.01267  Uiso   1.00
C2     C     0.23450   0.43068   0.84303   0.01267  Uiso   1.00
C3     C     0.20360   0.45870   0.76439   0.01267  Uiso   1.00
C4     C     0.09740   0.43333   0.72785   0.01267  Uiso   1.00
C5     C     0.02460   0.37948   0.76961   0.01267  Uiso   1.00
C6     C     0.05490   0.35027   0.84704   0.01267  Uiso   1.00
C7     C     0.16120   0.37629   0.88406   0.01267  Uiso   1.00
C8     C     0.06140   0.46167   0.64356   0.01267  Uiso   1.00
C9     C     0.96980   0.29892   0.89150   0.01267  Uiso   1.00
C10    C     0.78360   0.34097   0.93520   0.01267  Uiso   1.00
C11    C     0.74400   0.25337   0.93913   0.01267  Uiso   1.00
C12    C     0.62930   0.24109   0.95725   0.01267  Uiso   1.00
C13    C     0.56090   0.31377   0.97120   0.01267  Uiso   1.00
C14    C     0.70930   0.41159   0.95152   0.01267  Uiso   1.00
C15    C     0.58210   0.14888   0.96552   0.01267  Uiso   1.00
C16    C     0.15480   0.96327   0.61540   0.01267  Uiso   1.00
C17    C     0.26550   0.93068   0.65697   0.01267  Uiso   1.00
C18    C     0.29640   0.95870   0.73561   0.01267  Uiso   1.00
C19    C     0.40260   0.93333   0.77215   0.01267  Uiso   1.00
C20    C     0.47540   0.87948   0.73039   0.01267  Uiso   1.00
C21    C     0.44510   0.85027   0.65296   0.01267  Uiso   1.00
C22    C     0.33880   0.87629   0.61594   0.01267  Uiso   1.00
C23    C     0.43860   0.96167   0.85644   0.01267  Uiso   1.00
C24    C     0.53020   0.79892   0.60850   0.01267  Uiso   1.00
C25    C     0.71640   0.84097   0.56480   0.01267  Uiso   1.00
C26    C     0.75600   0.75337   0.56087   0.01267  Uiso   1.00
C27    C     0.87070   0.74109   0.54275   0.01267  Uiso   1.00
C28    C     0.93910   0.81377   0.52880   0.01267  Uiso   1.00
C29    C     0.79070   0.91159   0.54848   0.01267  Uiso   1.00
C30    C     0.91790   0.64888   0.53448   0.01267  Uiso   1.00
C31    C     0.65480   0.53673   0.11540   0.01267  Uiso   1.00
C32    C     0.76550   0.56932   0.15697   0.01267  Uiso   1.00
C33    C     0.79640   0.54130   0.23561   0.01267  Uiso   1.00
C34    C     0.90260   0.56667   0.27215   0.01267  Uiso   1.00
C35    C     0.97540   0.62052   0.23039   0.01267  Uiso   1.00
C36    C     0.94510   0.64973   0.15296   0.01267  Uiso   1.00
C37    C     0.83880   0.62371   0.11594   0.01267  Uiso   1.00
C38    C     0.93860   0.53833   0.35644   0.01267  Uiso   1.00
C39    C     0.03020   0.70108   0.10850   0.01267  Uiso   1.00
C40    C     0.21640   0.65903   0.06480   0.01267  Uiso   1.00
C41    C     0.25600   0.74663   0.06087   0.01267  Uiso   1.00
C42    C     0.37070   0.75891   0.04275   0.01267  Uiso   1.00
C43    C     0.43910   0.68623   0.02880   0.01267  Uiso   1.00
C44    C     0.29070   0.58841   0.04848   0.01267  Uiso   1.00
C45    C     0.41790   0.85112   0.03448   0.01267  Uiso   1.00
C46    C     0.84520   0.03673   0.38460   0.01267  Uiso   1.00
C47    C     0.73450   0.06932   0.34303   0.01267  Uiso   1.00
C48    C     0.70360   0.04130   0.26439   0.01267  Uiso   1.00
C49    C     0.59740   0.06667   0.22785   0.01267  Uiso   1.00
C50    C     0.52460   0.12052   0.26961   0.01267  Uiso   1.00
C51    C     0.55490   0.14973   0.34704   0.01267  Uiso   1.00
C52    C     0.66120   0.12371   0.38406   0.01267  Uiso   1.00
C53    C     0.56140   0.03833   0.14356   0.01267  Uiso   1.00
C54    C     0.46980   0.20108   0.39150   0.01267  Uiso   1.00
C55    C     0.28360   0.15903   0.43520   0.01267  Uiso   1.00
C56    C     0.24400   0.24663   0.43913   0.01267  Uiso   1.00
C57    C     0.12930   0.25891   0.45725   0.01267  Uiso   1.00
C58    C     0.06090   0.18623   0.47120   0.01267  Uiso   1.00
C59    C     0.20930   0.08841   0.45152   0.01267  Uiso   1.00
C60    C     0.08210   0.35112   0.46552   0.01267  Uiso   1.00
N1     N     0.60092   0.39788   0.96949   0.01267  Uiso   1.00
N2     N     0.89908   0.89788   0.53051   0.01267  Uiso   1.00
N3     N     0.39908   0.60212   0.03051   0.01267  Uiso   1.00
N4     N     0.10092   0.10212   0.46949   0.01267  Uiso   1.00
O1     O     0.36413   0.43605   0.95785   0.01267  Uiso   1.00
O2     O     0.41010   0.51411   0.85084   0.01267  Uiso   1.00
O3     O     0.95938   0.44263   0.61906   0.01267  Uiso   1.00
O4     O     0.13442   0.50216   0.60473   0.01267  Uiso   1.00
O5     O     0.89008   0.36650   0.91687   0.01267  Uiso   1.00
O6     O     0.47630   0.14515   0.97754   0.01267  Uiso   1.00
O7     O     0.65020   0.08518   0.96175   0.01267  Uiso   1.00
O8     O     0.13587   0.93605   0.54215   0.01267  Uiso   1.00
O9     O     0.08990   0.01411   0.64916   0.01267  Uiso   1.00
O10    O     0.54062   0.94263   0.88094   0.01267  Uiso   1.00
O11    O     0.36558   0.00216   0.89527   0.01267  Uiso   1.00
O12    O     0.60992   0.86650   0.58313   0.01267  Uiso   1.00
O13    O     0.02370   0.64515   0.52246   0.01267  Uiso   1.00
O14    O     0.84980   0.58518   0.53825   0.01267  Uiso   1.00
O15    O     0.63587   0.56395   0.04215   0.01267  Uiso   1.00
O16    O     0.58990   0.48589   0.14916   0.01267  Uiso   1.00
O17    O     0.04062   0.55737   0.38094   0.01267  Uiso   1.00
O18    O     0.86558   0.49784   0.39527   0.01267  Uiso   1.00
O19    O     0.10992   0.63350   0.08313   0.01267  Uiso   1.00
O20    O     0.52370   0.85485   0.02246   0.01267  Uiso   1.00
O21    O     0.34980   0.91482   0.03825   0.01267  Uiso   1.00
O22    O     0.86413   0.06395   0.45785   0.01267  Uiso   1.00
O23    O     0.91010   0.98589   0.35084   0.01267  Uiso   1.00
O24    O     0.45938   0.05737   0.11906   0.01267  Uiso   1.00
O25    O     0.63442   0.99784   0.10473   0.01267  Uiso   1.00
O26    O     0.39008   0.13350   0.41687   0.01267  Uiso   1.00
O27    O     0.97630   0.35485   0.47754   0.01267  Uiso   1.00
O28    O     0.15020   0.41482   0.46175   0.01267  Uiso   1.00
