data_BEYSEF_clean
_audit_creation_date              2014-07-02
_audit_creation_method            'Materials Studio'
_symmetry_space_group_name_H-M    'P1'
_symmetry_Int_Tables_number       1
_symmetry_cell_setting            triclinic
loop_
_symmetry_equiv_pos_as_xyz
  x,y,z
_cell_length_a                    15.8189
_cell_length_b                    15.8189
_cell_length_c                    15.8189
_cell_angle_alpha                 100.8450
_cell_angle_beta                  113.9490
_cell_angle_gamma                 113.9490
loop_
_atom_site_label
_atom_site_type_symbol
_atom_site_fract_x
_atom_site_fract_y
_atom_site_fract_z
_atom_site_U_iso_or_equiv
_atom_site_adp_type
_atom_site_occupancy
Co1    Co    0.49315   0.59117   0.02280   0.01267  Uiso   1.00
Co2    Co    0.00685   0.02965   0.09802   0.01267  Uiso   1.00
Co3    Co    0.43163   0.02280   0.02965   0.01267  Uiso   1.00
Co4    Co    0.06837   0.09802   0.59117   0.01267  Uiso   1.00
Co5    Co    0.50685   0.40883   0.97720   0.01267  Uiso   1.00
Co6    Co    0.99315   0.97035   0.90198   0.01267  Uiso   1.00
Co7    Co    0.56837   0.97720   0.97035   0.01267  Uiso   1.00
Co8    Co    0.93163   0.90198   0.40883   0.01267  Uiso   1.00
H1     H     0.58520   0.78580   0.99720   0.01267  Uiso   1.00
H2     H     0.52450   0.52130   0.73180   0.01267  Uiso   1.00
H3     H     0.64490   0.55400   0.80750   0.01267  Uiso   1.00
H4     H     0.64520   0.68350   0.75970   0.01267  Uiso   1.00
H5     H     0.69330   0.72210   0.87720   0.01267  Uiso   1.00
H6     H     0.57250   0.68940   0.80170   0.01267  Uiso   1.00
H7     H     0.30190   0.88880   0.10790   0.01267  Uiso   1.00
H8     H     0.29220   0.62290   0.14850   0.01267  Uiso   1.00
H9     H     0.36480   0.60570   0.12030   0.01267  Uiso   1.00
H10    H     0.91480   0.91200   0.20060   0.01267  Uiso   1.00
H11    H     0.97550   0.70730   0.99680   0.01267  Uiso   1.00
H12    H     0.85510   0.66260   0.90910   0.01267  Uiso   1.00
H13    H     0.85480   0.61450   0.03830   0.01267  Uiso   1.00
H14    H     0.80670   0.68390   0.02880   0.01267  Uiso   1.00
H15    H     0.92750   0.72920   0.11690   0.01267  Uiso   1.00
H16    H     0.19810   0.30600   0.58690   0.01267  Uiso   1.00
H17    H     0.20780   0.35630   0.33070   0.01267  Uiso   1.00
H18    H     0.13520   0.25550   0.24090   0.01267  Uiso   1.00
H19    H     0.21140   0.99720   0.91200   0.01267  Uiso   1.00
H20    H     0.21050   0.73180   0.70730   0.01267  Uiso   1.00
H21    H     0.25350   0.80750   0.66260   0.01267  Uiso   1.00
H22    H     0.07620   0.75970   0.61450   0.01267  Uiso   1.00
H23    H     0.15510   0.87720   0.68390   0.01267  Uiso   1.00
H24    H     0.11230   0.80170   0.72920   0.01267  Uiso   1.00
H25    H     0.21910   0.10790   0.30600   0.01267  Uiso   1.00
H26    H     0.52560   0.14850   0.35630   0.01267  Uiso   1.00
H27    H     0.51460   0.12030   0.25550   0.01267  Uiso   1.00
H28    H     0.28860   0.20060   0.78580   0.01267  Uiso   1.00
H29    H     0.28950   0.99680   0.52130   0.01267  Uiso   1.00
H30    H     0.24650   0.90910   0.55400   0.01267  Uiso   1.00
H31    H     0.42380   0.03830   0.68350   0.01267  Uiso   1.00
H32    H     0.34490   0.02880   0.72210   0.01267  Uiso   1.00
H33    H     0.38770   0.11690   0.68940   0.01267  Uiso   1.00
H34    H     0.28090   0.58690   0.88880   0.01267  Uiso   1.00
H35    H     0.97440   0.33070   0.62290   0.01267  Uiso   1.00
H36    H     0.98540   0.24090   0.60570   0.01267  Uiso   1.00
H37    H     0.41480   0.21420   0.00280   0.01267  Uiso   1.00
H38    H     0.47550   0.47870   0.26820   0.01267  Uiso   1.00
H39    H     0.35510   0.44600   0.19250   0.01267  Uiso   1.00
H40    H     0.35480   0.31650   0.24030   0.01267  Uiso   1.00
H41    H     0.30670   0.27790   0.12280   0.01267  Uiso   1.00
H42    H     0.42750   0.31060   0.19830   0.01267  Uiso   1.00
H43    H     0.69810   0.11120   0.89210   0.01267  Uiso   1.00
H44    H     0.70780   0.37710   0.85150   0.01267  Uiso   1.00
H45    H     0.63520   0.39430   0.87970   0.01267  Uiso   1.00
H46    H     0.08520   0.08800   0.79940   0.01267  Uiso   1.00
H47    H     0.02450   0.29270   0.00320   0.01267  Uiso   1.00
H48    H     0.14490   0.33740   0.09090   0.01267  Uiso   1.00
H49    H     0.14520   0.38550   0.96170   0.01267  Uiso   1.00
H50    H     0.19330   0.31610   0.97120   0.01267  Uiso   1.00
H51    H     0.07250   0.27080   0.88310   0.01267  Uiso   1.00
H52    H     0.80190   0.69400   0.41310   0.01267  Uiso   1.00
H53    H     0.79220   0.64370   0.66930   0.01267  Uiso   1.00
H54    H     0.86480   0.74450   0.75910   0.01267  Uiso   1.00
H55    H     0.78860   0.00280   0.08800   0.01267  Uiso   1.00
H56    H     0.78950   0.26820   0.29270   0.01267  Uiso   1.00
H57    H     0.74650   0.19250   0.33740   0.01267  Uiso   1.00
H58    H     0.92380   0.24030   0.38550   0.01267  Uiso   1.00
H59    H     0.84490   0.12280   0.31610   0.01267  Uiso   1.00
H60    H     0.88770   0.19830   0.27080   0.01267  Uiso   1.00
H61    H     0.78090   0.89210   0.69400   0.01267  Uiso   1.00
H62    H     0.47440   0.85150   0.64370   0.01267  Uiso   1.00
H63    H     0.48540   0.87970   0.74450   0.01267  Uiso   1.00
H64    H     0.71140   0.79940   0.21420   0.01267  Uiso   1.00
H65    H     0.71050   0.00320   0.47870   0.01267  Uiso   1.00
H66    H     0.75350   0.09090   0.44600   0.01267  Uiso   1.00
H67    H     0.57620   0.96170   0.31650   0.01267  Uiso   1.00
H68    H     0.65510   0.97120   0.27790   0.01267  Uiso   1.00
H69    H     0.61230   0.88310   0.31060   0.01267  Uiso   1.00
H70    H     0.71910   0.41310   0.11120   0.01267  Uiso   1.00
H71    H     0.02560   0.66930   0.37710   0.01267  Uiso   1.00
H72    H     0.01460   0.75910   0.39430   0.01267  Uiso   1.00
C1     C     0.53945   0.79004   0.01827   0.01267  Uiso   1.00
C2     C     0.43175   0.75727   0.07202   0.01267  Uiso   1.00
C3     C     0.36086   0.72226   0.10660   0.01267  Uiso   1.00
C4     C     0.55848   0.54337   0.87497   0.01267  Uiso   1.00
C5     C     0.58829   0.56751   0.80022   0.01267  Uiso   1.00
C6     C     0.62840   0.67540   0.81060   0.01267  Uiso   1.00
C7     C     0.44964   0.84354   0.05440   0.01267  Uiso   1.00
C8     C     0.33712   0.85621   0.09907   0.01267  Uiso   1.00
C9     C     0.96055   0.97882   0.25059   0.01267  Uiso   1.00
C10    C     0.06825   0.14027   0.32552   0.01267  Uiso   1.00
C11    C     0.13914   0.24574   0.36140   0.01267  Uiso   1.00
C12    C     0.94152   0.81649   0.98489   0.01267  Uiso   1.00
C13    C     0.91171   0.71193   0.97922   0.01267  Uiso   1.00
C14    C     0.87160   0.68220   0.04700   0.01267  Uiso   1.00
C15    C     0.05036   0.10476   0.39390   0.01267  Uiso   1.00
C16    C     0.16288   0.26195   0.51909   0.01267  Uiso   1.00
C17    C     0.22823   0.01827   0.97882   0.01267  Uiso   1.00
C18    C     0.31475   0.07202   0.14027   0.01267  Uiso   1.00
C19    C     0.38434   0.10660   0.24574   0.01267  Uiso   1.00
C20    C     0.33160   0.87497   0.81649   0.01267  Uiso   1.00
C21    C     0.23271   0.80022   0.71193   0.01267  Uiso   1.00
C22    C     0.13520   0.81060   0.68220   0.01267  Uiso   1.00
C23    C     0.21086   0.05440   0.10476   0.01267  Uiso   1.00
C24    C     0.24286   0.09907   0.26195   0.01267  Uiso   1.00
C25    C     0.27177   0.25059   0.79004   0.01267  Uiso   1.00
C26    C     0.18525   0.32552   0.75727   0.01267  Uiso   1.00
C27    C     0.11566   0.36140   0.72226   0.01267  Uiso   1.00
C28    C     0.16840   0.98489   0.54337   0.01267  Uiso   1.00
C29    C     0.26729   0.97922   0.56751   0.01267  Uiso   1.00
C30    C     0.36480   0.04700   0.67540   0.01267  Uiso   1.00
C31    C     0.28914   0.39390   0.84354   0.01267  Uiso   1.00
C32    C     0.25714   0.51909   0.85621   0.01267  Uiso   1.00
C33    C     0.46055   0.20996   0.98173   0.01267  Uiso   1.00
C34    C     0.56825   0.24273   0.92798   0.01267  Uiso   1.00
C35    C     0.63914   0.27774   0.89340   0.01267  Uiso   1.00
C36    C     0.44152   0.45663   0.12503   0.01267  Uiso   1.00
C37    C     0.41171   0.43249   0.19978   0.01267  Uiso   1.00
C38    C     0.37160   0.32460   0.18940   0.01267  Uiso   1.00
C39    C     0.55036   0.15646   0.94560   0.01267  Uiso   1.00
C40    C     0.66288   0.14379   0.90093   0.01267  Uiso   1.00
C41    C     0.03945   0.02118   0.74941   0.01267  Uiso   1.00
C42    C     0.93175   0.85973   0.67448   0.01267  Uiso   1.00
C43    C     0.86086   0.75426   0.63860   0.01267  Uiso   1.00
C44    C     0.05848   0.18351   0.01511   0.01267  Uiso   1.00
C45    C     0.08829   0.28807   0.02078   0.01267  Uiso   1.00
C46    C     0.12840   0.31780   0.95300   0.01267  Uiso   1.00
C47    C     0.94964   0.89524   0.60610   0.01267  Uiso   1.00
C48    C     0.83712   0.73805   0.48091   0.01267  Uiso   1.00
C49    C     0.77177   0.98173   0.02118   0.01267  Uiso   1.00
C50    C     0.68525   0.92798   0.85973   0.01267  Uiso   1.00
C51    C     0.61566   0.89340   0.75426   0.01267  Uiso   1.00
C52    C     0.66840   0.12503   0.18351   0.01267  Uiso   1.00
C53    C     0.76729   0.19978   0.28807   0.01267  Uiso   1.00
C54    C     0.86480   0.18940   0.31780   0.01267  Uiso   1.00
C55    C     0.78914   0.94560   0.89524   0.01267  Uiso   1.00
C56    C     0.75714   0.90093   0.73805   0.01267  Uiso   1.00
C57    C     0.72823   0.74941   0.20996   0.01267  Uiso   1.00
C58    C     0.81475   0.67448   0.24273   0.01267  Uiso   1.00
C59    C     0.88434   0.63860   0.27774   0.01267  Uiso   1.00
C60    C     0.83160   0.01511   0.45663   0.01267  Uiso   1.00
C61    C     0.73271   0.02078   0.43249   0.01267  Uiso   1.00
C62    C     0.63520   0.95300   0.32460   0.01267  Uiso   1.00
C63    C     0.71086   0.60610   0.15646   0.01267  Uiso   1.00
C64    C     0.74286   0.48091   0.14379   0.01267  Uiso   1.00
N1     N     0.49048   0.72230   0.04790   0.01267  Uiso   1.00
N2     N     0.33635   0.64055   0.12762   0.01267  Uiso   1.00
N3     N     0.31418   0.77498   0.11926   0.01267  Uiso   1.00
N4     N     0.51901   0.86503   0.02044   0.01267  Uiso   1.00
N5     N     0.40380   0.89723   0.06783   0.01267  Uiso   1.00
N6     N     0.00952   0.05742   0.23182   0.01267  Uiso   1.00
N7     N     0.16365   0.29127   0.30420   0.01267  Uiso   1.00
N8     N     0.18582   0.30508   0.46080   0.01267  Uiso   1.00
N9     N     0.98099   0.00143   0.34602   0.01267  Uiso   1.00
N10    N     0.09620   0.16403   0.49343   0.01267  Uiso   1.00
N11    N     0.32560   0.04790   0.05742   0.01267  Uiso   1.00
N12    N     0.48707   0.12762   0.29127   0.01267  Uiso   1.00
N13    N     0.34428   0.11926   0.30508   0.01267  Uiso   1.00
N14    N     0.15541   0.02044   0.00143   0.01267  Uiso   1.00
N15    N     0.17060   0.06783   0.16403   0.01267  Uiso   1.00
N16    N     0.17440   0.23182   0.72230   0.01267  Uiso   1.00
N17    N     0.01293   0.30420   0.64055   0.01267  Uiso   1.00
N18    N     0.15572   0.46080   0.77498   0.01267  Uiso   1.00
N19    N     0.34459   0.34602   0.86503   0.01267  Uiso   1.00
N20    N     0.32940   0.49343   0.89723   0.01267  Uiso   1.00
N21    N     0.50952   0.27770   0.95210   0.01267  Uiso   1.00
N22    N     0.66365   0.35945   0.87238   0.01267  Uiso   1.00
N23    N     0.68582   0.22502   0.88074   0.01267  Uiso   1.00
N24    N     0.48099   0.13497   0.97956   0.01267  Uiso   1.00
N25    N     0.59620   0.10277   0.93217   0.01267  Uiso   1.00
N26    N     0.99048   0.94258   0.76818   0.01267  Uiso   1.00
N27    N     0.83635   0.70873   0.69580   0.01267  Uiso   1.00
N28    N     0.81418   0.69492   0.53920   0.01267  Uiso   1.00
N29    N     0.01901   0.99857   0.65398   0.01267  Uiso   1.00
N30    N     0.90380   0.83597   0.50657   0.01267  Uiso   1.00
N31    N     0.67440   0.95210   0.94258   0.01267  Uiso   1.00
N32    N     0.51293   0.87238   0.70873   0.01267  Uiso   1.00
N33    N     0.65572   0.88074   0.69492   0.01267  Uiso   1.00
N34    N     0.84459   0.97956   0.99857   0.01267  Uiso   1.00
N35    N     0.82940   0.93217   0.83597   0.01267  Uiso   1.00
N36    N     0.82560   0.76818   0.27770   0.01267  Uiso   1.00
N37    N     0.98707   0.69580   0.35945   0.01267  Uiso   1.00
N38    N     0.84428   0.53920   0.22502   0.01267  Uiso   1.00
N39    N     0.65541   0.65398   0.13497   0.01267  Uiso   1.00
N40    N     0.67060   0.50657   0.10277   0.01267  Uiso   1.00
O1     O     0.53633   0.59896   0.91719   0.01267  Uiso   1.00
O2     O     0.55528   0.46655   0.88933   0.01267  Uiso   1.00
O3     O     0.96367   0.88086   0.06263   0.01267  Uiso   1.00
O4     O     0.94472   0.83405   0.91127   0.01267  Uiso   1.00
O5     O     0.31823   0.91719   0.88086   0.01267  Uiso   1.00
O6     O     0.42278   0.88933   0.83405   0.01267  Uiso   1.00
O7     O     0.18177   0.06263   0.59896   0.01267  Uiso   1.00
O8     O     0.07722   0.91127   0.46655   0.01267  Uiso   1.00
O9     O     0.46367   0.40104   0.08281   0.01267  Uiso   1.00
O10    O     0.44472   0.53345   0.11067   0.01267  Uiso   1.00
O11    O     0.03633   0.11914   0.93737   0.01267  Uiso   1.00
O12    O     0.05528   0.16595   0.08873   0.01267  Uiso   1.00
O13    O     0.68177   0.08281   0.11914   0.01267  Uiso   1.00
O14    O     0.57722   0.11067   0.16595   0.01267  Uiso   1.00
O15    O     0.81823   0.93737   0.40104   0.01267  Uiso   1.00
O16    O     0.92278   0.08873   0.53345   0.01267  Uiso   1.00
