data_image0
_cell_length_a       7.5739
_cell_length_b       8.5028
_cell_length_c       15.4945
_cell_angle_alpha    99.568
_cell_angle_beta     103.009
_cell_angle_gamma    90.671

_symmetry_space_group_name_H-M    "P 1"
_symmetry_int_tables_number       1

loop_
  _symmetry_equiv_pos_as_xyz
  'x, y, z'

loop_
  _atom_site_label
  _atom_site_occupancy
  _atom_site_fract_x
  _atom_site_fract_y
  _atom_site_fract_z
  _atom_site_thermal_displace_type
  _atom_site_B_iso_or_equiv
  _atom_site_type_symbol
  Ag1      1.0000 0.34830  0.51598  0.21425  Biso   1.000  Ag
  Ag2      1.0000 0.56246  0.63745  0.09316  Biso   1.000  Ag
  Ag3      1.0000 0.07020  0.35245  0.28977  Biso   1.000  Ag
  N1       1.0000 0.19620  0.20280  0.07170  Biso   1.000  N
  N2       1.0000 0.22060  0.83580  0.02778  Biso   1.000  N
  N3       1.0000 0.08050  0.02650  0.86675  Biso   1.000  N
  N4       1.0000 0.17940  0.04090  0.70561  Biso   1.000  N
  N5       1.0000 0.45140  0.93230  0.75990  Biso   1.000  N
  N6       1.0000 0.44280  0.80270  0.38128  Biso   1.000  N
  N7       1.0000 0.35930  0.16760  0.41271  Biso   1.000  N
  C1       1.0000 0.23850  0.97820  0.85305  Biso   1.000  C
  H1       1.0000 0.31830  0.93890  0.89850  Biso   1.000  H
  C2       1.0000 0.28980  0.98430  0.77208  Biso   1.000  C
  C3       1.0000 0.02170  0.09100  0.72083  Biso   1.000  C
  H2       1.0000 0.94220  0.13180  0.67590  Biso   1.000  H
  C4       1.0000 0.97100  0.08510  0.79987  Biso   1.000  C
  H3       1.0000 0.85940  0.12220  0.80730  Biso   1.000  H
  C5       1.0000 0.34280  0.76130  0.04567  Biso   1.000  C
  C6       1.0000 0.76920  0.52410  0.16380  Biso   1.000  C
  C7       1.0000 0.41250  0.70280  0.32088  Biso   1.000  C
  C8       1.0000 0.25960  0.31610  0.11787  Biso   1.000  C
  C9       1.0000 0.25830  0.23680  0.37017  Biso   1.000  C
  N8       1.0000 0.87260  0.46270  0.20880  Biso   1.000  N
  H4       1.0000 0.48000  0.93300  0.71000  Biso   1.000  H
  H5       1.0000 0.52700  0.90400  0.80100  Biso   1.000  H
  Ag4      1.0000 0.65170  0.48402  0.78575  Biso   1.000  Ag
  Ag5      1.0000 0.43754  0.36255  0.90684  Biso   1.000  Ag
  Ag6      1.0000 0.92980  0.64755  0.71023  Biso   1.000  Ag
  N9       1.0000 0.80380  0.79720  0.92830  Biso   1.000  N
  N10      1.0000 0.77940  0.16420  0.97222  Biso   1.000  N
  N11      1.0000 0.91950  0.97350  0.13325  Biso   1.000  N
  N12      1.0000 0.82060  0.95910  0.29439  Biso   1.000  N
  N13      1.0000 0.54860  0.06770  0.24010  Biso   1.000  N
  N14      1.0000 0.55720  0.19730  0.61872  Biso   1.000  N
  N15      1.0000 0.64070  0.83240  0.58729  Biso   1.000  N
  C10      1.0000 0.76150  0.02180  0.14695  Biso   1.000  C
  H6       1.0000 0.68170  0.06110  0.10150  Biso   1.000  H
  C11      1.0000 0.71020  0.01570  0.22792  Biso   1.000  C
  C12      1.0000 0.97830  0.90900  0.27917  Biso   1.000  C
  H7       1.0000 0.05780  0.86820  0.32410  Biso   1.000  H
  C13      1.0000 0.02900  0.91490  0.20013  Biso   1.000  C
  H8       1.0000 0.14060  0.87780  0.19270  Biso   1.000  H
  C14      1.0000 0.65720  0.23870  0.95433  Biso   1.000  C
  C15      1.0000 0.23080  0.47590  0.83620  Biso   1.000  C
  C16      1.0000 0.58750  0.29720  0.67912  Biso   1.000  C
  C17      1.0000 0.74040  0.68390  0.88213  Biso   1.000  C
  C18      1.0000 0.74170  0.76320  0.62983  Biso   1.000  C
  N16      1.0000 0.12740  0.53730  0.79120  Biso   1.000  N
  H9       1.0000 0.52000  0.06700  0.29000  Biso   1.000  H
  H10      1.0000 0.47300  0.09600  0.19900  Biso   1.000  H
  Mn1      1.0000 0.00000  0.00000  0.00000  Biso   1.000  Mn
  Mn2      1.0000 0.50000  0.00000  0.50000  Biso   1.000  Mn
