data_image0
_cell_length_a       44.391
_cell_length_b       44.391
_cell_length_c       23.258
_cell_angle_alpha    90
_cell_angle_beta     90
_cell_angle_gamma    120

_symmetry_space_group_name_H-M    "P 1"
_symmetry_int_tables_number       1

loop_
  _symmetry_equiv_pos_as_xyz
  'x, y, z'

loop_
  _atom_site_label
  _atom_site_occupancy
  _atom_site_fract_x
  _atom_site_fract_y
  _atom_site_fract_z
  _atom_site_thermal_displace_type
  _atom_site_B_iso_or_equiv
  _atom_site_type_symbol
  O1       1.0000 0.80870  0.25370  0.20100  Biso   1.000  O
  C1       1.0000 0.82930  0.32100  0.30120  Biso   1.000  C
  H1       1.0000 0.82620  0.30900  0.33640  Biso   1.000  H
  C2       1.0000 0.83800  0.35550  0.30090  Biso   1.000  C
  H2       1.0000 0.84040  0.36750  0.33590  Biso   1.000  H
  O2       1.0000 0.80130  0.13470  0.19080  Biso   1.000  O
  O3       1.0000 0.77640  0.15910  0.14280  Biso   1.000  O
  C3       1.0000 0.78200  0.13490  0.15140  Biso   1.000  C
  C4       1.0000 0.76150  0.10200  0.11780  Biso   1.000  C
  C5       1.0000 0.73910  0.10220  0.07940  Biso   1.000  C
  H3       1.0000 0.73570  0.12160  0.07550  Biso   1.000  H
  C6       1.0000 0.72140  0.07320  0.04600  Biso   1.000  C
  H4       1.0000 0.70540  0.07210  0.01780  Biso   1.000  H
  N1       1.0000 0.72680  0.04540  0.05340  Biso   1.000  N
  C7       1.0000 0.75070  0.04790  0.09280  Biso   1.000  C
  H5       1.0000 0.75470  0.02890  0.09690  Biso   1.000  H
  C8       1.0000 0.76950  0.07700  0.12710  Biso   1.000  C
  H6       1.0000 0.78630  0.07900  0.15440  Biso   1.000  H
  O4       1.0000 0.74630  0.55500  0.20100  Biso   1.000  O
  C9       1.0000 0.67900  0.50830  0.30120  Biso   1.000  C
  H7       1.0000 0.69100  0.51720  0.33640  Biso   1.000  H
  C10      1.0000 0.64450  0.48250  0.30090  Biso   1.000  C
  H8       1.0000 0.63250  0.47290  0.33590  Biso   1.000  H
  O5       1.0000 0.86530  0.66660  0.19080  Biso   1.000  O
  O6       1.0000 0.84090  0.61730  0.14280  Biso   1.000  O
  C11      1.0000 0.86510  0.64710  0.15140  Biso   1.000  C
  C12      1.0000 0.89800  0.65950  0.11780  Biso   1.000  C
  C13      1.0000 0.89780  0.63690  0.07940  Biso   1.000  C
  H9       1.0000 0.87840  0.61410  0.07550  Biso   1.000  H
  C14      1.0000 0.92680  0.64820  0.04600  Biso   1.000  C
  H10      1.0000 0.92790  0.63330  0.01780  Biso   1.000  H
  N2       1.0000 0.95460  0.68140  0.05340  Biso   1.000  N
  C15      1.0000 0.95210  0.70280  0.09280  Biso   1.000  C
  H11      1.0000 0.97110  0.72580  0.09690  Biso   1.000  H
  C16      1.0000 0.92300  0.69250  0.12710  Biso   1.000  C
  H12      1.0000 0.92100  0.70730  0.15440  Biso   1.000  H
  O7       1.0000 0.44500  0.19130  0.20100  Biso   1.000  O
  C17      1.0000 0.49170  0.17070  0.30120  Biso   1.000  C
  H13      1.0000 0.48280  0.17380  0.33640  Biso   1.000  H
  C18      1.0000 0.51750  0.16200  0.30090  Biso   1.000  C
  H14      1.0000 0.52710  0.15960  0.33590  Biso   1.000  H
  O8       1.0000 0.33340  0.19870  0.19080  Biso   1.000  O
  O9       1.0000 0.38270  0.22360  0.14280  Biso   1.000  O
  C19      1.0000 0.35290  0.21800  0.15140  Biso   1.000  C
  C20      1.0000 0.34050  0.23850  0.11780  Biso   1.000  C
  C21      1.0000 0.36310  0.26090  0.07940  Biso   1.000  C
  H15      1.0000 0.38590  0.26430  0.07550  Biso   1.000  H
  C22      1.0000 0.35180  0.27860  0.04600  Biso   1.000  C
  H16      1.0000 0.36670  0.29460  0.01780  Biso   1.000  H
  N3       1.0000 0.31860  0.27320  0.05340  Biso   1.000  N
  C23      1.0000 0.29720  0.24930  0.09280  Biso   1.000  C
  H17      1.0000 0.27420  0.24530  0.09690  Biso   1.000  H
  C24      1.0000 0.30750  0.23050  0.12710  Biso   1.000  C
  H18      1.0000 0.29270  0.21370  0.15440  Biso   1.000  H
  O10      1.0000 0.19130  0.74630  0.70100  Biso   1.000  O
  C25      1.0000 0.17070  0.67900  0.80120  Biso   1.000  C
  H19      1.0000 0.17380  0.69100  0.83640  Biso   1.000  H
  C26      1.0000 0.16200  0.64450  0.80090  Biso   1.000  C
  H20      1.0000 0.15960  0.63250  0.83590  Biso   1.000  H
  O11      1.0000 0.19870  0.86530  0.69080  Biso   1.000  O
  O12      1.0000 0.22360  0.84090  0.64280  Biso   1.000  O
  C27      1.0000 0.21800  0.86510  0.65140  Biso   1.000  C
  C28      1.0000 0.23850  0.89800  0.61780  Biso   1.000  C
  C29      1.0000 0.26090  0.89780  0.57940  Biso   1.000  C
  H21      1.0000 0.26430  0.87840  0.57550  Biso   1.000  H
  C30      1.0000 0.27860  0.92680  0.54600  Biso   1.000  C
  H22      1.0000 0.29460  0.92790  0.51780  Biso   1.000  H
  N4       1.0000 0.27320  0.95460  0.55340  Biso   1.000  N
  C31      1.0000 0.24930  0.95210  0.59280  Biso   1.000  C
  H23      1.0000 0.24530  0.97110  0.59690  Biso   1.000  H
  C32      1.0000 0.23050  0.92300  0.62710  Biso   1.000  C
  H24      1.0000 0.21370  0.92100  0.65440  Biso   1.000  H
  O13      1.0000 0.25370  0.44500  0.70100  Biso   1.000  O
  C33      1.0000 0.32100  0.49170  0.80120  Biso   1.000  C
  H25      1.0000 0.30900  0.48280  0.83640  Biso   1.000  H
  C34      1.0000 0.35550  0.51750  0.80090  Biso   1.000  C
  H26      1.0000 0.36750  0.52710  0.83590  Biso   1.000  H
  O14      1.0000 0.13470  0.33340  0.69080  Biso   1.000  O
  O15      1.0000 0.15910  0.38270  0.64280  Biso   1.000  O
  C35      1.0000 0.13490  0.35290  0.65140  Biso   1.000  C
  C36      1.0000 0.10200  0.34050  0.61780  Biso   1.000  C
  C37      1.0000 0.10220  0.36310  0.57940  Biso   1.000  C
  H27      1.0000 0.12160  0.38590  0.57550  Biso   1.000  H
  C38      1.0000 0.07320  0.35180  0.54600  Biso   1.000  C
  H28      1.0000 0.07210  0.36670  0.51780  Biso   1.000  H
  N5       1.0000 0.04540  0.31860  0.55340  Biso   1.000  N
  C39      1.0000 0.04790  0.29720  0.59280  Biso   1.000  C
  H29      1.0000 0.02890  0.27420  0.59690  Biso   1.000  H
  C40      1.0000 0.07700  0.30750  0.62710  Biso   1.000  C
  H30      1.0000 0.07900  0.29270  0.65440  Biso   1.000  H
  O16      1.0000 0.55500  0.80870  0.70100  Biso   1.000  O
  C41      1.0000 0.50830  0.82930  0.80120  Biso   1.000  C
  H31      1.0000 0.51720  0.82620  0.83640  Biso   1.000  H
  C42      1.0000 0.48250  0.83800  0.80090  Biso   1.000  C
  H32      1.0000 0.47290  0.84040  0.83590  Biso   1.000  H
  O17      1.0000 0.66660  0.80130  0.69080  Biso   1.000  O
  O18      1.0000 0.61730  0.77640  0.64280  Biso   1.000  O
  C43      1.0000 0.64710  0.78200  0.65140  Biso   1.000  C
  C44      1.0000 0.65950  0.76150  0.61780  Biso   1.000  C
  C45      1.0000 0.63690  0.73910  0.57940  Biso   1.000  C
  H33      1.0000 0.61410  0.73570  0.57550  Biso   1.000  H
  C46      1.0000 0.64820  0.72140  0.54600  Biso   1.000  C
  H34      1.0000 0.63330  0.70540  0.51780  Biso   1.000  H
  N6       1.0000 0.68140  0.72680  0.55340  Biso   1.000  N
  C47      1.0000 0.70280  0.75070  0.59280  Biso   1.000  C
  H35      1.0000 0.72580  0.75470  0.59690  Biso   1.000  H
  C48      1.0000 0.69250  0.76950  0.62710  Biso   1.000  C
  H36      1.0000 0.70730  0.78630  0.65440  Biso   1.000  H
  O19      1.0000 0.25370  0.80870  0.79900  Biso   1.000  O
  C49      1.0000 0.32100  0.82930  0.69880  Biso   1.000  C
  H37      1.0000 0.30900  0.82620  0.66360  Biso   1.000  H
  C50      1.0000 0.35550  0.83800  0.69910  Biso   1.000  C
  H38      1.0000 0.36750  0.84040  0.66410  Biso   1.000  H
  O20      1.0000 0.13470  0.80130  0.80920  Biso   1.000  O
  O21      1.0000 0.15910  0.77640  0.85720  Biso   1.000  O
  C51      1.0000 0.13490  0.78200  0.84860  Biso   1.000  C
  C52      1.0000 0.10200  0.76150  0.88220  Biso   1.000  C
  C53      1.0000 0.10220  0.73910  0.92060  Biso   1.000  C
  H39      1.0000 0.12160  0.73570  0.92450  Biso   1.000  H
  C54      1.0000 0.07320  0.72140  0.95400  Biso   1.000  C
  H40      1.0000 0.07210  0.70540  0.98220  Biso   1.000  H
  N7       1.0000 0.04540  0.72680  0.94660  Biso   1.000  N
  C55      1.0000 0.04790  0.75070  0.90720  Biso   1.000  C
  H41      1.0000 0.02890  0.75470  0.90310  Biso   1.000  H
  C56      1.0000 0.07700  0.76950  0.87290  Biso   1.000  C
  H42      1.0000 0.07900  0.78630  0.84560  Biso   1.000  H
  O22      1.0000 0.55500  0.74630  0.79900  Biso   1.000  O
  C57      1.0000 0.50830  0.67900  0.69880  Biso   1.000  C
  H43      1.0000 0.51720  0.69100  0.66360  Biso   1.000  H
  C58      1.0000 0.48250  0.64450  0.69910  Biso   1.000  C
  H44      1.0000 0.47290  0.63250  0.66410  Biso   1.000  H
  O23      1.0000 0.66660  0.86530  0.80920  Biso   1.000  O
  O24      1.0000 0.61730  0.84090  0.85720  Biso   1.000  O
  C59      1.0000 0.64710  0.86510  0.84860  Biso   1.000  C
  C60      1.0000 0.65950  0.89800  0.88220  Biso   1.000  C
  C61      1.0000 0.63690  0.89780  0.92060  Biso   1.000  C
  H45      1.0000 0.61410  0.87840  0.92450  Biso   1.000  H
  C62      1.0000 0.64820  0.92680  0.95400  Biso   1.000  C
  H46      1.0000 0.63330  0.92790  0.98220  Biso   1.000  H
  N8       1.0000 0.68140  0.95460  0.94660  Biso   1.000  N
  C63      1.0000 0.70280  0.95210  0.90720  Biso   1.000  C
  H47      1.0000 0.72580  0.97110  0.90310  Biso   1.000  H
  C64      1.0000 0.69250  0.92300  0.87290  Biso   1.000  C
  H48      1.0000 0.70730  0.92100  0.84560  Biso   1.000  H
  O25      1.0000 0.19130  0.44500  0.79900  Biso   1.000  O
  C65      1.0000 0.17070  0.49170  0.69880  Biso   1.000  C
  H49      1.0000 0.17380  0.48280  0.66360  Biso   1.000  H
  C66      1.0000 0.16200  0.51750  0.69910  Biso   1.000  C
  H50      1.0000 0.15960  0.52710  0.66410  Biso   1.000  H
  O26      1.0000 0.19870  0.33340  0.80920  Biso   1.000  O
  O27      1.0000 0.22360  0.38270  0.85720  Biso   1.000  O
  C67      1.0000 0.21800  0.35290  0.84860  Biso   1.000  C
  C68      1.0000 0.23850  0.34050  0.88220  Biso   1.000  C
  C69      1.0000 0.26090  0.36310  0.92060  Biso   1.000  C
  H51      1.0000 0.26430  0.38590  0.92450  Biso   1.000  H
  C70      1.0000 0.27860  0.35180  0.95400  Biso   1.000  C
  H52      1.0000 0.29460  0.36670  0.98220  Biso   1.000  H
  N9       1.0000 0.27320  0.31860  0.94660  Biso   1.000  N
  C71      1.0000 0.24930  0.29720  0.90720  Biso   1.000  C
  H53      1.0000 0.24530  0.27420  0.90310  Biso   1.000  H
  C72      1.0000 0.23050  0.30750  0.87290  Biso   1.000  C
  H54      1.0000 0.21370  0.29270  0.84560  Biso   1.000  H
  O28      1.0000 0.74630  0.19130  0.29900  Biso   1.000  O
  C73      1.0000 0.67900  0.17070  0.19880  Biso   1.000  C
  H55      1.0000 0.69100  0.17380  0.16360  Biso   1.000  H
  C74      1.0000 0.64450  0.16200  0.19910  Biso   1.000  C
  H56      1.0000 0.63250  0.15960  0.16410  Biso   1.000  H
  O29      1.0000 0.86530  0.19870  0.30920  Biso   1.000  O
  O30      1.0000 0.84090  0.22360  0.35720  Biso   1.000  O
  C75      1.0000 0.86510  0.21800  0.34860  Biso   1.000  C
  C76      1.0000 0.89800  0.23850  0.38220  Biso   1.000  C
  C77      1.0000 0.89780  0.26090  0.42060  Biso   1.000  C
  H57      1.0000 0.87840  0.26430  0.42450  Biso   1.000  H
  C78      1.0000 0.92680  0.27860  0.45400  Biso   1.000  C
  H58      1.0000 0.92790  0.29460  0.48220  Biso   1.000  H
  N10      1.0000 0.95460  0.27320  0.44660  Biso   1.000  N
  C79      1.0000 0.95210  0.24930  0.40720  Biso   1.000  C
  H59      1.0000 0.97110  0.24530  0.40310  Biso   1.000  H
  C80      1.0000 0.92300  0.23050  0.37290  Biso   1.000  C
  H60      1.0000 0.92100  0.21370  0.34560  Biso   1.000  H
  O31      1.0000 0.44500  0.25370  0.29900  Biso   1.000  O
  C81      1.0000 0.49170  0.32100  0.19880  Biso   1.000  C
  H61      1.0000 0.48280  0.30900  0.16360  Biso   1.000  H
  C82      1.0000 0.51750  0.35550  0.19910  Biso   1.000  C
  H62      1.0000 0.52710  0.36750  0.16410  Biso   1.000  H
  O32      1.0000 0.33340  0.13470  0.30920  Biso   1.000  O
  O33      1.0000 0.38270  0.15910  0.35720  Biso   1.000  O
  C83      1.0000 0.35290  0.13490  0.34860  Biso   1.000  C
  C84      1.0000 0.34050  0.10200  0.38220  Biso   1.000  C
  C85      1.0000 0.36310  0.10220  0.42060  Biso   1.000  C
  H63      1.0000 0.38590  0.12160  0.42450  Biso   1.000  H
  C86      1.0000 0.35180  0.07320  0.45400  Biso   1.000  C
  H64      1.0000 0.36670  0.07210  0.48220  Biso   1.000  H
  N11      1.0000 0.31860  0.04540  0.44660  Biso   1.000  N
  C87      1.0000 0.29720  0.04790  0.40720  Biso   1.000  C
  H65      1.0000 0.27420  0.02890  0.40310  Biso   1.000  H
  C88      1.0000 0.30750  0.07700  0.37290  Biso   1.000  C
  H66      1.0000 0.29270  0.07900  0.34560  Biso   1.000  H
  O34      1.0000 0.80870  0.55500  0.29900  Biso   1.000  O
  C89      1.0000 0.82930  0.50830  0.19880  Biso   1.000  C
  H67      1.0000 0.82620  0.51720  0.16360  Biso   1.000  H
  C90      1.0000 0.83800  0.48250  0.19910  Biso   1.000  C
  H68      1.0000 0.84040  0.47290  0.16410  Biso   1.000  H
  O35      1.0000 0.80130  0.66660  0.30920  Biso   1.000  O
  O36      1.0000 0.77640  0.61730  0.35720  Biso   1.000  O
  C91      1.0000 0.78200  0.64710  0.34860  Biso   1.000  C
  C92      1.0000 0.76150  0.65950  0.38220  Biso   1.000  C
  C93      1.0000 0.73910  0.63690  0.42060  Biso   1.000  C
  H69      1.0000 0.73570  0.61410  0.42450  Biso   1.000  H
  C94      1.0000 0.72140  0.64820  0.45400  Biso   1.000  C
  H70      1.0000 0.70540  0.63330  0.48220  Biso   1.000  H
  N12      1.0000 0.72680  0.68140  0.44660  Biso   1.000  N
  C95      1.0000 0.75070  0.70280  0.40720  Biso   1.000  C
  H71      1.0000 0.75470  0.72580  0.40310  Biso   1.000  H
  C96      1.0000 0.76950  0.69250  0.37290  Biso   1.000  C
  H72      1.0000 0.78630  0.70730  0.34560  Biso   1.000  H
  O37      1.0000 0.19130  0.74630  0.79900  Biso   1.000  O
  C97      1.0000 0.17070  0.67900  0.69880  Biso   1.000  C
  H73      1.0000 0.17380  0.69100  0.66360  Biso   1.000  H
  C98      1.0000 0.16200  0.64450  0.69910  Biso   1.000  C
  H74      1.0000 0.15960  0.63250  0.66410  Biso   1.000  H
  O38      1.0000 0.19870  0.86530  0.80920  Biso   1.000  O
  O39      1.0000 0.22360  0.84090  0.85720  Biso   1.000  O
  C99      1.0000 0.21800  0.86510  0.84860  Biso   1.000  C
  C100     1.0000 0.23850  0.89800  0.88220  Biso   1.000  C
  C101     1.0000 0.26090  0.89780  0.92060  Biso   1.000  C
  H75      1.0000 0.26430  0.87840  0.92450  Biso   1.000  H
  C102     1.0000 0.27860  0.92680  0.95400  Biso   1.000  C
  H76      1.0000 0.29460  0.92790  0.98220  Biso   1.000  H
  N13      1.0000 0.27320  0.95460  0.94660  Biso   1.000  N
  C103     1.0000 0.24930  0.95210  0.90720  Biso   1.000  C
  H77      1.0000 0.24530  0.97110  0.90310  Biso   1.000  H
  C104     1.0000 0.23050  0.92300  0.87290  Biso   1.000  C
  H78      1.0000 0.21370  0.92100  0.84560  Biso   1.000  H
  O40      1.0000 0.25370  0.44500  0.79900  Biso   1.000  O
  C105     1.0000 0.32100  0.49170  0.69880  Biso   1.000  C
  H79      1.0000 0.30900  0.48280  0.66360  Biso   1.000  H
  C106     1.0000 0.35550  0.51750  0.69910  Biso   1.000  C
  H80      1.0000 0.36750  0.52710  0.66410  Biso   1.000  H
  O41      1.0000 0.13470  0.33340  0.80920  Biso   1.000  O
  O42      1.0000 0.15910  0.38270  0.85720  Biso   1.000  O
  C107     1.0000 0.13490  0.35290  0.84860  Biso   1.000  C
  C108     1.0000 0.10200  0.34050  0.88220  Biso   1.000  C
  C109     1.0000 0.10220  0.36310  0.92060  Biso   1.000  C
  H81      1.0000 0.12160  0.38590  0.92450  Biso   1.000  H
  C110     1.0000 0.07320  0.35180  0.95400  Biso   1.000  C
  H82      1.0000 0.07210  0.36670  0.98220  Biso   1.000  H
  N14      1.0000 0.04540  0.31860  0.94660  Biso   1.000  N
  C111     1.0000 0.04790  0.29720  0.90720  Biso   1.000  C
  H83      1.0000 0.02890  0.27420  0.90310  Biso   1.000  H
  C112     1.0000 0.07700  0.30750  0.87290  Biso   1.000  C
  H84      1.0000 0.07900  0.29270  0.84560  Biso   1.000  H
  O43      1.0000 0.55500  0.80870  0.79900  Biso   1.000  O
  C113     1.0000 0.50830  0.82930  0.69880  Biso   1.000  C
  H85      1.0000 0.51720  0.82620  0.66360  Biso   1.000  H
  C114     1.0000 0.48250  0.83800  0.69910  Biso   1.000  C
  H86      1.0000 0.47290  0.84040  0.66410  Biso   1.000  H
  O44      1.0000 0.66660  0.80130  0.80920  Biso   1.000  O
  O45      1.0000 0.61730  0.77640  0.85720  Biso   1.000  O
  C115     1.0000 0.64710  0.78200  0.84860  Biso   1.000  C
  C116     1.0000 0.65950  0.76150  0.88220  Biso   1.000  C
  C117     1.0000 0.63690  0.73910  0.92060  Biso   1.000  C
  H87      1.0000 0.61410  0.73570  0.92450  Biso   1.000  H
  C118     1.0000 0.64820  0.72140  0.95400  Biso   1.000  C
  H88      1.0000 0.63330  0.70540  0.98220  Biso   1.000  H
  N15      1.0000 0.68140  0.72680  0.94660  Biso   1.000  N
  C119     1.0000 0.70280  0.75070  0.90720  Biso   1.000  C
  H89      1.0000 0.72580  0.75470  0.90310  Biso   1.000  H
  C120     1.0000 0.69250  0.76950  0.87290  Biso   1.000  C
  H90      1.0000 0.70730  0.78630  0.84560  Biso   1.000  H
  O46      1.0000 0.80870  0.25370  0.29900  Biso   1.000  O
  C121     1.0000 0.82930  0.32100  0.19880  Biso   1.000  C
  H91      1.0000 0.82620  0.30900  0.16360  Biso   1.000  H
  C122     1.0000 0.83800  0.35550  0.19910  Biso   1.000  C
  H92      1.0000 0.84040  0.36750  0.16410  Biso   1.000  H
  O47      1.0000 0.80130  0.13470  0.30920  Biso   1.000  O
  O48      1.0000 0.77640  0.15910  0.35720  Biso   1.000  O
  C123     1.0000 0.78200  0.13490  0.34860  Biso   1.000  C
  C124     1.0000 0.76150  0.10200  0.38220  Biso   1.000  C
  C125     1.0000 0.73910  0.10220  0.42060  Biso   1.000  C
  H93      1.0000 0.73570  0.12160  0.42450  Biso   1.000  H
  C126     1.0000 0.72140  0.07320  0.45400  Biso   1.000  C
  H94      1.0000 0.70540  0.07210  0.48220  Biso   1.000  H
  N16      1.0000 0.72680  0.04540  0.44660  Biso   1.000  N
  C127     1.0000 0.75070  0.04790  0.40720  Biso   1.000  C
  H95      1.0000 0.75470  0.02890  0.40310  Biso   1.000  H
  C128     1.0000 0.76950  0.07700  0.37290  Biso   1.000  C
  H96      1.0000 0.78630  0.07900  0.34560  Biso   1.000  H
  O49      1.0000 0.74630  0.55500  0.29900  Biso   1.000  O
  C129     1.0000 0.67900  0.50830  0.19880  Biso   1.000  C
  H97      1.0000 0.69100  0.51720  0.16360  Biso   1.000  H
  C130     1.0000 0.64450  0.48250  0.19910  Biso   1.000  C
  H98      1.0000 0.63250  0.47290  0.16410  Biso   1.000  H
  O50      1.0000 0.86530  0.66660  0.30920  Biso   1.000  O
  O51      1.0000 0.84090  0.61730  0.35720  Biso   1.000  O
  C131     1.0000 0.86510  0.64710  0.34860  Biso   1.000  C
  C132     1.0000 0.89800  0.65950  0.38220  Biso   1.000  C
  C133     1.0000 0.89780  0.63690  0.42060  Biso   1.000  C
  H99      1.0000 0.87840  0.61410  0.42450  Biso   1.000  H
  C134     1.0000 0.92680  0.64820  0.45400  Biso   1.000  C
  H100     1.0000 0.92790  0.63330  0.48220  Biso   1.000  H
  N17      1.0000 0.95460  0.68140  0.44660  Biso   1.000  N
  C135     1.0000 0.95210  0.70280  0.40720  Biso   1.000  C
  H101     1.0000 0.97110  0.72580  0.40310  Biso   1.000  H
  C136     1.0000 0.92300  0.69250  0.37290  Biso   1.000  C
  H102     1.0000 0.92100  0.70730  0.34560  Biso   1.000  H
  O52      1.0000 0.44500  0.19130  0.29900  Biso   1.000  O
  C137     1.0000 0.49170  0.17070  0.19880  Biso   1.000  C
  H103     1.0000 0.48280  0.17380  0.16360  Biso   1.000  H
  C138     1.0000 0.51750  0.16200  0.19910  Biso   1.000  C
  H104     1.0000 0.52710  0.15960  0.16410  Biso   1.000  H
  O53      1.0000 0.33340  0.19870  0.30920  Biso   1.000  O
  O54      1.0000 0.38270  0.22360  0.35720  Biso   1.000  O
  C139     1.0000 0.35290  0.21800  0.34860  Biso   1.000  C
  C140     1.0000 0.34050  0.23850  0.38220  Biso   1.000  C
  C141     1.0000 0.36310  0.26090  0.42060  Biso   1.000  C
  H105     1.0000 0.38590  0.26430  0.42450  Biso   1.000  H
  C142     1.0000 0.35180  0.27860  0.45400  Biso   1.000  C
  H106     1.0000 0.36670  0.29460  0.48220  Biso   1.000  H
  N18      1.0000 0.31860  0.27320  0.44660  Biso   1.000  N
  C143     1.0000 0.29720  0.24930  0.40720  Biso   1.000  C
  H107     1.0000 0.27420  0.24530  0.40310  Biso   1.000  H
  C144     1.0000 0.30750  0.23050  0.37290  Biso   1.000  C
  H108     1.0000 0.29270  0.21370  0.34560  Biso   1.000  H
  O55      1.0000 0.74630  0.19130  0.20100  Biso   1.000  O
  C145     1.0000 0.67900  0.17070  0.30120  Biso   1.000  C
  H109     1.0000 0.69100  0.17380  0.33640  Biso   1.000  H
  C146     1.0000 0.64450  0.16200  0.30090  Biso   1.000  C
  H110     1.0000 0.63250  0.15960  0.33590  Biso   1.000  H
  O56      1.0000 0.86530  0.19870  0.19080  Biso   1.000  O
  O57      1.0000 0.84090  0.22360  0.14280  Biso   1.000  O
  C147     1.0000 0.86510  0.21800  0.15140  Biso   1.000  C
  C148     1.0000 0.89800  0.23850  0.11780  Biso   1.000  C
  C149     1.0000 0.89780  0.26090  0.07940  Biso   1.000  C
  H111     1.0000 0.87840  0.26430  0.07550  Biso   1.000  H
  C150     1.0000 0.92680  0.27860  0.04600  Biso   1.000  C
  H112     1.0000 0.92790  0.29460  0.01780  Biso   1.000  H
  N19      1.0000 0.95460  0.27320  0.05340  Biso   1.000  N
  C151     1.0000 0.95210  0.24930  0.09280  Biso   1.000  C
  H113     1.0000 0.97110  0.24530  0.09690  Biso   1.000  H
  C152     1.0000 0.92300  0.23050  0.12710  Biso   1.000  C
  H114     1.0000 0.92100  0.21370  0.15440  Biso   1.000  H
  O58      1.0000 0.44500  0.25370  0.20100  Biso   1.000  O
  C153     1.0000 0.49170  0.32100  0.30120  Biso   1.000  C
  H115     1.0000 0.48280  0.30900  0.33640  Biso   1.000  H
  C154     1.0000 0.51750  0.35550  0.30090  Biso   1.000  C
  H116     1.0000 0.52710  0.36750  0.33590  Biso   1.000  H
  O59      1.0000 0.33340  0.13470  0.19080  Biso   1.000  O
  O60      1.0000 0.38270  0.15910  0.14280  Biso   1.000  O
  C155     1.0000 0.35290  0.13490  0.15140  Biso   1.000  C
  C156     1.0000 0.34050  0.10200  0.11780  Biso   1.000  C
  C157     1.0000 0.36310  0.10220  0.07940  Biso   1.000  C
  H117     1.0000 0.38590  0.12160  0.07550  Biso   1.000  H
  C158     1.0000 0.35180  0.07320  0.04600  Biso   1.000  C
  H118     1.0000 0.36670  0.07210  0.01780  Biso   1.000  H
  N20      1.0000 0.31860  0.04540  0.05340  Biso   1.000  N
  C159     1.0000 0.29720  0.04790  0.09280  Biso   1.000  C
  H119     1.0000 0.27420  0.02890  0.09690  Biso   1.000  H
  C160     1.0000 0.30750  0.07700  0.12710  Biso   1.000  C
  H120     1.0000 0.29270  0.07900  0.15440  Biso   1.000  H
  O61      1.0000 0.80870  0.55500  0.20100  Biso   1.000  O
  C161     1.0000 0.82930  0.50830  0.30120  Biso   1.000  C
  H121     1.0000 0.82620  0.51720  0.33640  Biso   1.000  H
  C162     1.0000 0.83800  0.48250  0.30090  Biso   1.000  C
  H122     1.0000 0.84040  0.47290  0.33590  Biso   1.000  H
  O62      1.0000 0.80130  0.66660  0.19080  Biso   1.000  O
  O63      1.0000 0.77640  0.61730  0.14280  Biso   1.000  O
  C163     1.0000 0.78200  0.64710  0.15140  Biso   1.000  C
  C164     1.0000 0.76150  0.65950  0.11780  Biso   1.000  C
  C165     1.0000 0.73910  0.63690  0.07940  Biso   1.000  C
  H123     1.0000 0.73570  0.61410  0.07550  Biso   1.000  H
  C166     1.0000 0.72140  0.64820  0.04600  Biso   1.000  C
  H124     1.0000 0.70540  0.63330  0.01780  Biso   1.000  H
  N21      1.0000 0.72680  0.68140  0.05340  Biso   1.000  N
  C167     1.0000 0.75070  0.70280  0.09280  Biso   1.000  C
  H125     1.0000 0.75470  0.72580  0.09690  Biso   1.000  H
  C168     1.0000 0.76950  0.69250  0.12710  Biso   1.000  C
  H126     1.0000 0.78630  0.70730  0.15440  Biso   1.000  H
  O64      1.0000 0.25370  0.80870  0.70100  Biso   1.000  O
  C169     1.0000 0.32100  0.82930  0.80120  Biso   1.000  C
  H127     1.0000 0.30900  0.82620  0.83640  Biso   1.000  H
  C170     1.0000 0.35550  0.83800  0.80090  Biso   1.000  C
  H128     1.0000 0.36750  0.84040  0.83590  Biso   1.000  H
  O65      1.0000 0.13470  0.80130  0.69080  Biso   1.000  O
  O66      1.0000 0.15910  0.77640  0.64280  Biso   1.000  O
  C171     1.0000 0.13490  0.78200  0.65140  Biso   1.000  C
  C172     1.0000 0.10200  0.76150  0.61780  Biso   1.000  C
  C173     1.0000 0.10220  0.73910  0.57940  Biso   1.000  C
  H129     1.0000 0.12160  0.73570  0.57550  Biso   1.000  H
  C174     1.0000 0.07320  0.72140  0.54600  Biso   1.000  C
  H130     1.0000 0.07210  0.70540  0.51780  Biso   1.000  H
  N22      1.0000 0.04540  0.72680  0.55340  Biso   1.000  N
  C175     1.0000 0.04790  0.75070  0.59280  Biso   1.000  C
  H131     1.0000 0.02890  0.75470  0.59690  Biso   1.000  H
  C176     1.0000 0.07700  0.76950  0.62710  Biso   1.000  C
  H132     1.0000 0.07900  0.78630  0.65440  Biso   1.000  H
  O67      1.0000 0.55500  0.74630  0.70100  Biso   1.000  O
  C177     1.0000 0.50830  0.67900  0.80120  Biso   1.000  C
  H133     1.0000 0.51720  0.69100  0.83640  Biso   1.000  H
  C178     1.0000 0.48250  0.64450  0.80090  Biso   1.000  C
  H134     1.0000 0.47290  0.63250  0.83590  Biso   1.000  H
  O68      1.0000 0.66660  0.86530  0.69080  Biso   1.000  O
  O69      1.0000 0.61730  0.84090  0.64280  Biso   1.000  O
  C179     1.0000 0.64710  0.86510  0.65140  Biso   1.000  C
  C180     1.0000 0.65950  0.89800  0.61780  Biso   1.000  C
  C181     1.0000 0.63690  0.89780  0.57940  Biso   1.000  C
  H135     1.0000 0.61410  0.87840  0.57550  Biso   1.000  H
  C182     1.0000 0.64820  0.92680  0.54600  Biso   1.000  C
  H136     1.0000 0.63330  0.92790  0.51780  Biso   1.000  H
  N23      1.0000 0.68140  0.95460  0.55340  Biso   1.000  N
  C183     1.0000 0.70280  0.95210  0.59280  Biso   1.000  C
  H137     1.0000 0.72580  0.97110  0.59690  Biso   1.000  H
  C184     1.0000 0.69250  0.92300  0.62710  Biso   1.000  C
  H138     1.0000 0.70730  0.92100  0.65440  Biso   1.000  H
  O70      1.0000 0.19130  0.44500  0.70100  Biso   1.000  O
  C185     1.0000 0.17070  0.49170  0.80120  Biso   1.000  C
  H139     1.0000 0.17380  0.48280  0.83640  Biso   1.000  H
  C186     1.0000 0.16200  0.51750  0.80090  Biso   1.000  C
  H140     1.0000 0.15960  0.52710  0.83590  Biso   1.000  H
  O71      1.0000 0.19870  0.33340  0.69080  Biso   1.000  O
  O72      1.0000 0.22360  0.38270  0.64280  Biso   1.000  O
  C187     1.0000 0.21800  0.35290  0.65140  Biso   1.000  C
  C188     1.0000 0.23850  0.34050  0.61780  Biso   1.000  C
  C189     1.0000 0.26090  0.36310  0.57940  Biso   1.000  C
  H141     1.0000 0.26430  0.38590  0.57550  Biso   1.000  H
  C190     1.0000 0.27860  0.35180  0.54600  Biso   1.000  C
  H142     1.0000 0.29460  0.36670  0.51780  Biso   1.000  H
  N24      1.0000 0.27320  0.31860  0.55340  Biso   1.000  N
  C191     1.0000 0.24930  0.29720  0.59280  Biso   1.000  C
  H143     1.0000 0.24530  0.27420  0.59690  Biso   1.000  H
  C192     1.0000 0.23050  0.30750  0.62710  Biso   1.000  C
  H144     1.0000 0.21370  0.29270  0.65440  Biso   1.000  H
  Ag1      1.0000 0.85253  0.42626  0.25000  Biso   1.000  Ag
  Ag2      1.0000 0.57374  0.42626  0.25000  Biso   1.000  Ag
  Ag3      1.0000 0.57374  0.14747  0.25000  Biso   1.000  Ag
  Ag4      1.0000 0.14747  0.57374  0.75000  Biso   1.000  Ag
  Ag5      1.0000 0.42626  0.57373  0.75000  Biso   1.000  Ag
  Ag6      1.0000 0.42626  0.85253  0.75000  Biso   1.000  Ag
  Ag7      1.0000 0.70264  0.00000  0.00000  Biso   1.000  Ag
  Ag8      1.0000 0.00000  0.70264  0.00000  Biso   1.000  Ag
  Ag9      1.0000 0.29736  0.29736  0.00000  Biso   1.000  Ag
  Ag10     1.0000 0.29736  0.00000  0.50000  Biso   1.000  Ag
  Ag11     1.0000 0.00000  0.29736  0.50000  Biso   1.000  Ag
  Ag12     1.0000 0.70264  0.70264  0.50000  Biso   1.000  Ag
  Ag13     1.0000 0.29736  0.00000  0.00000  Biso   1.000  Ag
  Ag14     1.0000 0.00000  0.29736  0.00000  Biso   1.000  Ag
  Ag15     1.0000 0.70264  0.70264  0.00000  Biso   1.000  Ag
  Ag16     1.0000 0.70264  0.00000  0.50000  Biso   1.000  Ag
  Ag17     1.0000 0.00000  0.70264  0.50000  Biso   1.000  Ag
  Ag18     1.0000 0.29736  0.29736  0.50000  Biso   1.000  Ag
  Cr1      1.0000 0.83156  0.16844  0.25000  Biso   1.000  Cr
  O73      1.0000 0.80790  0.19210  0.25000  Biso   1.000  O
  Cr2      1.0000 0.83156  0.66312  0.25000  Biso   1.000  Cr
  O74      1.0000 0.80790  0.61580  0.25000  Biso   1.000  O
  Cr3      1.0000 0.33688  0.16844  0.25000  Biso   1.000  Cr
  O75      1.0000 0.38420  0.19210  0.25000  Biso   1.000  O
  Cr4      1.0000 0.16844  0.83156  0.75000  Biso   1.000  Cr
  O76      1.0000 0.19210  0.80790  0.75000  Biso   1.000  O
  Cr5      1.0000 0.16844  0.33688  0.75000  Biso   1.000  Cr
  O77      1.0000 0.19210  0.38420  0.75000  Biso   1.000  O
  Cr6      1.0000 0.66312  0.83156  0.75000  Biso   1.000  Cr
  O78      1.0000 0.61580  0.80790  0.75000  Biso   1.000  O
  Cr7      1.0000 0.79487  0.20513  0.17980  Biso   1.000  Cr
  Cr8      1.0000 0.79487  0.58974  0.17980  Biso   1.000  Cr
  Cr9      1.0000 0.41026  0.20513  0.17980  Biso   1.000  Cr
  Cr10     1.0000 0.20513  0.79487  0.67980  Biso   1.000  Cr
  Cr11     1.0000 0.20513  0.41026  0.67980  Biso   1.000  Cr
  Cr12     1.0000 0.58974  0.79487  0.67980  Biso   1.000  Cr
  Cr13     1.0000 0.20513  0.79487  0.82020  Biso   1.000  Cr
  Cr14     1.0000 0.58974  0.79487  0.82020  Biso   1.000  Cr
  Cr15     1.0000 0.20513  0.41026  0.82020  Biso   1.000  Cr
  Cr16     1.0000 0.79487  0.20513  0.32020  Biso   1.000  Cr
  Cr17     1.0000 0.41026  0.20513  0.32020  Biso   1.000  Cr
  Cr18     1.0000 0.79487  0.58974  0.32020  Biso   1.000  Cr
  C193     1.0000 0.81340  0.26600  0.25000  Biso   1.000  C
  C194     1.0000 0.82540  0.30450  0.25000  Biso   1.000  C
  N25      1.0000 0.84300  0.37180  0.25000  Biso   1.000  N
  C195     1.0000 0.73400  0.54740  0.25000  Biso   1.000  C
  C196     1.0000 0.69550  0.52090  0.25000  Biso   1.000  C
  N26      1.0000 0.62820  0.47120  0.25000  Biso   1.000  N
  C197     1.0000 0.45260  0.18660  0.25000  Biso   1.000  C
  C198     1.0000 0.47910  0.17460  0.25000  Biso   1.000  C
  N27      1.0000 0.52880  0.15700  0.25000  Biso   1.000  N
  C199     1.0000 0.18660  0.73400  0.75000  Biso   1.000  C
  C200     1.0000 0.17460  0.69550  0.75000  Biso   1.000  C
  N28      1.0000 0.15700  0.62820  0.75000  Biso   1.000  N
  C201     1.0000 0.26600  0.45260  0.75000  Biso   1.000  C
  C202     1.0000 0.30450  0.47910  0.75000  Biso   1.000  C
  N29      1.0000 0.37180  0.52880  0.75000  Biso   1.000  N
  C203     1.0000 0.54740  0.81340  0.75000  Biso   1.000  C
  C204     1.0000 0.52090  0.82540  0.75000  Biso   1.000  C
  N30      1.0000 0.47120  0.84300  0.75000  Biso   1.000  N
  C205     1.0000 0.26600  0.81340  0.75000  Biso   1.000  C
  C206     1.0000 0.30450  0.82540  0.75000  Biso   1.000  C
  N31      1.0000 0.37180  0.84300  0.75000  Biso   1.000  N
  C207     1.0000 0.54740  0.73400  0.75000  Biso   1.000  C
  C208     1.0000 0.52090  0.69550  0.75000  Biso   1.000  C
  N32      1.0000 0.47120  0.62820  0.75000  Biso   1.000  N
  C209     1.0000 0.18660  0.45260  0.75000  Biso   1.000  C
  C210     1.0000 0.17460  0.47910  0.75000  Biso   1.000  C
  N33      1.0000 0.15700  0.52880  0.75000  Biso   1.000  N
  C211     1.0000 0.73400  0.18660  0.25000  Biso   1.000  C
  C212     1.0000 0.69550  0.17460  0.25000  Biso   1.000  C
  N34      1.0000 0.62820  0.15700  0.25000  Biso   1.000  N
  C213     1.0000 0.45260  0.26600  0.25000  Biso   1.000  C
  C214     1.0000 0.47910  0.30450  0.25000  Biso   1.000  C
  N35      1.0000 0.52880  0.37180  0.25000  Biso   1.000  N
  C215     1.0000 0.81340  0.54740  0.25000  Biso   1.000  C
  C216     1.0000 0.82540  0.52090  0.25000  Biso   1.000  C
  N36      1.0000 0.84300  0.47120  0.25000  Biso   1.000  N
