data_BIHMUC_clean
_audit_creation_date              2014-07-02
_audit_creation_method            'Materials Studio'
_symmetry_space_group_name_H-M    'P1'
_symmetry_Int_Tables_number       1
_symmetry_cell_setting            triclinic
loop_
_symmetry_equiv_pos_as_xyz
  x,y,z
_cell_length_a                    10.0406
_cell_length_b                    11.2142
_cell_length_c                    14.3100
_cell_angle_alpha                 87.4540
_cell_angle_beta                  84.2960
_cell_angle_gamma                 68.8670
loop_
_atom_site_label
_atom_site_type_symbol
_atom_site_fract_x
_atom_site_fract_y
_atom_site_fract_z
_atom_site_U_iso_or_equiv
_atom_site_adp_type
_atom_site_occupancy
Co1    Co    0.82873   0.06391   0.42017   0.01267  Uiso   1.00
Co2    Co    0.17127   0.93609   0.57983   0.01267  Uiso   1.00
Co3    Co    1.00000   0.50000   1.00000   0.01267  Uiso   1.00
H1     H     0.62130   0.95300   0.58950   0.01267  Uiso   1.00
H2     H     0.52720   0.73060   0.79250   0.01267  Uiso   1.00
H3     H     0.91800   0.75810   0.76390   0.01267  Uiso   1.00
H4     H     0.09550   0.21290   0.97790   0.01267  Uiso   1.00
H5     H     0.25890   0.04130   0.89630   0.01267  Uiso   1.00
H6     H     0.43210   0.07440   0.78890   0.01267  Uiso   1.00
H7     H     0.24340   0.44880   0.83710   0.01267  Uiso   1.00
H8     H     0.61430   0.19470   0.58140   0.01267  Uiso   1.00
H9     H     0.85340   0.33760   0.41620   0.01267  Uiso   1.00
H10    H     0.59180   0.54910   0.62570   0.01267  Uiso   1.00
H11    H     0.04860   0.54370   0.27530   0.01267  Uiso   1.00
H12    H     0.13800   0.69400   0.20820   0.01267  Uiso   1.00
H13    H     0.05210   0.89840   0.26510   0.01267  Uiso   1.00
H14    H     0.78970   0.81040   0.45120   0.01267  Uiso   1.00
H15    H     0.52850   0.21510   0.71590   0.01267  Uiso   1.00
H16    H     0.87100   0.50530   0.37780   0.01267  Uiso   1.00
H17    H     0.37870   0.04700   0.41050   0.01267  Uiso   1.00
H18    H     0.47280   0.26940   0.20750   0.01267  Uiso   1.00
H19    H     0.08200   0.24190   0.23610   0.01267  Uiso   1.00
H20    H     0.90450   0.78710   0.02210   0.01267  Uiso   1.00
H21    H     0.74110   0.95870   0.10370   0.01267  Uiso   1.00
H22    H     0.56790   0.92560   0.21110   0.01267  Uiso   1.00
H23    H     0.75660   0.55120   0.16290   0.01267  Uiso   1.00
H24    H     0.38570   0.80530   0.41860   0.01267  Uiso   1.00
H25    H     0.14660   0.66240   0.58380   0.01267  Uiso   1.00
H26    H     0.40820   0.45090   0.37430   0.01267  Uiso   1.00
H27    H     0.95140   0.45630   0.72470   0.01267  Uiso   1.00
H28    H     0.86200   0.30600   0.79180   0.01267  Uiso   1.00
H29    H     0.94790   0.10160   0.73490   0.01267  Uiso   1.00
H30    H     0.21030   0.18960   0.54880   0.01267  Uiso   1.00
H31    H     0.47150   0.78490   0.28410   0.01267  Uiso   1.00
H32    H     0.12900   0.49470   0.62220   0.01267  Uiso   1.00
C1     C     0.89070   0.91680   0.61860   0.01267  Uiso   1.00
C2     C     0.78650   0.86510   0.66900   0.01267  Uiso   1.00
C3     C     0.64850   0.89730   0.64010   0.01267  Uiso   1.00
C4     C     0.55230   0.84730   0.68580   0.01267  Uiso   1.00
C5     C     0.40650   0.88070   0.65110   0.01267  Uiso   1.00
C6     C     0.59260   0.76320   0.76120   0.01267  Uiso   1.00
C7     C     0.72930   0.72760   0.78980   0.01267  Uiso   1.00
C8     C     0.77700   0.63300   0.86910   0.01267  Uiso   1.00
C9     C     0.82670   0.78020   0.74400   0.01267  Uiso   1.00
C10    C     0.16080   0.22710   0.93210   0.01267  Uiso   1.00
C11    C     0.26020   0.12310   0.88460   0.01267  Uiso   1.00
C12    C     0.36110   0.14290   0.81960   0.01267  Uiso   1.00
C13    C     0.35460   0.26590   0.80120   0.01267  Uiso   1.00
C14    C     0.24850   0.36540   0.85040   0.01267  Uiso   1.00
C15    C     0.46880   0.38750   0.69380   0.01267  Uiso   1.00
C16    C     0.58600   0.37300   0.61620   0.01267  Uiso   1.00
C17    C     0.64430   0.26270   0.56430   0.01267  Uiso   1.00
C18    C     0.78510   0.34650   0.46690   0.01267  Uiso   1.00
C19    C     0.73200   0.46180   0.51500   0.01267  Uiso   1.00
C20    C     0.62960   0.47360   0.59170   0.01267  Uiso   1.00
C21    C     0.78290   0.56900   0.48870   0.01267  Uiso   1.00
C22    C     0.90900   0.66240   0.37170   0.01267  Uiso   1.00
C23    C     0.01420   0.62690   0.29790   0.01267  Uiso   1.00
C24    C     0.06720   0.71610   0.25810   0.01267  Uiso   1.00
C25    C     0.01530   0.83860   0.29250   0.01267  Uiso   1.00
C26    C     0.86160   0.78590   0.40200   0.01267  Uiso   1.00
C27    C     0.10930   0.08320   0.38140   0.01267  Uiso   1.00
C28    C     0.21350   0.13490   0.33100   0.01267  Uiso   1.00
C29    C     0.35150   0.10270   0.35990   0.01267  Uiso   1.00
C30    C     0.44770   0.15270   0.31420   0.01267  Uiso   1.00
C31    C     0.59350   0.11930   0.34890   0.01267  Uiso   1.00
C32    C     0.40740   0.23680   0.23880   0.01267  Uiso   1.00
C33    C     0.27070   0.27240   0.21020   0.01267  Uiso   1.00
C34    C     0.22300   0.36700   0.13090   0.01267  Uiso   1.00
C35    C     0.17330   0.21980   0.25600   0.01267  Uiso   1.00
C36    C     0.83920   0.77290   0.06790   0.01267  Uiso   1.00
C37    C     0.73980   0.87690   0.11540   0.01267  Uiso   1.00
C38    C     0.63890   0.85710   0.18040   0.01267  Uiso   1.00
C39    C     0.64540   0.73410   0.19880   0.01267  Uiso   1.00
C40    C     0.75150   0.63460   0.14960   0.01267  Uiso   1.00
C41    C     0.53120   0.61250   0.30620   0.01267  Uiso   1.00
C42    C     0.41400   0.62700   0.38380   0.01267  Uiso   1.00
C43    C     0.35570   0.73730   0.43570   0.01267  Uiso   1.00
C44    C     0.21490   0.65350   0.53310   0.01267  Uiso   1.00
C45    C     0.26800   0.53820   0.48500   0.01267  Uiso   1.00
C46    C     0.37040   0.52640   0.40830   0.01267  Uiso   1.00
C47    C     0.21710   0.43100   0.51130   0.01267  Uiso   1.00
C48    C     0.09100   0.33760   0.62830   0.01267  Uiso   1.00
C49    C     0.98580   0.37310   0.70210   0.01267  Uiso   1.00
C50    C     0.93280   0.28390   0.74190   0.01267  Uiso   1.00
C51    C     0.98470   0.16140   0.70750   0.01267  Uiso   1.00
C52    C     0.13840   0.21410   0.59800   0.01267  Uiso   1.00
N1     N     0.15450   0.34610   0.91540   0.01267  Uiso   1.00
N2     N     0.45950   0.28430   0.73350   0.01267  Uiso   1.00
N3     N     0.74290   0.24780   0.48980   0.01267  Uiso   1.00
N4     N     0.85330   0.57120   0.41210   0.01267  Uiso   1.00
N5     N     0.91430   0.87420   0.36370   0.01267  Uiso   1.00
N6     N     0.84550   0.65390   0.08460   0.01267  Uiso   1.00
N7     N     0.54050   0.71570   0.26650   0.01267  Uiso   1.00
N8     N     0.25710   0.75220   0.51020   0.01267  Uiso   1.00
N9     N     0.14670   0.42880   0.58790   0.01267  Uiso   1.00
N10    N     0.08570   0.12580   0.63630   0.01267  Uiso   1.00
O1     O     0.85270   0.99280   0.55190   0.01267  Uiso   1.00
O2     O     0.01450   0.88170   0.64710   0.01267  Uiso   1.00
O3     O     0.90710   0.59570   0.88300   0.01267  Uiso   1.00
O4     O     0.68450   0.59940   0.91650   0.01267  Uiso   1.00
O5     O     0.38110   0.94010   0.57460   0.01267  Uiso   1.00
O6     O     0.31000   0.84960   0.69770   0.01267  Uiso   1.00
O7     O     0.65660   0.69030   0.49260   0.01267  Uiso   1.00
O8     O     0.36540   0.49220   0.70450   0.01267  Uiso   1.00
O9     O     0.14730   0.00720   0.44810   0.01267  Uiso   1.00
O10    O     0.98550   0.11830   0.35290   0.01267  Uiso   1.00
O11    O     0.09290   0.40430   0.11700   0.01267  Uiso   1.00
O12    O     0.31550   0.40060   0.08350   0.01267  Uiso   1.00
O13    O     0.61890   0.05990   0.42540   0.01267  Uiso   1.00
O14    O     0.69000   0.15040   0.30230   0.01267  Uiso   1.00
O15    O     0.34340   0.30970   0.50740   0.01267  Uiso   1.00
O16    O     0.63460   0.50780   0.29550   0.01267  Uiso   1.00
