data_BIMDEF_clean
_audit_creation_date              2014-07-02
_audit_creation_method            'Materials Studio'
_symmetry_space_group_name_H-M    'P1'
_symmetry_Int_Tables_number       1
_symmetry_cell_setting            triclinic
loop_
_symmetry_equiv_pos_as_xyz
  x,y,z
_cell_length_a                    8.5732
_cell_length_b                    8.5732
_cell_length_c                    14.3359
_cell_angle_alpha                 87.0844
_cell_angle_beta                  87.0844
_cell_angle_gamma                 81.7428
loop_
_atom_site_label
_atom_site_type_symbol
_atom_site_fract_x
_atom_site_fract_y
_atom_site_fract_z
_atom_site_U_iso_or_equiv
_atom_site_adp_type
_atom_site_occupancy
Cu1    Cu    0.97710   0.65430   0.49000   0.01267  Uiso   1.00
Cu2    Cu    0.34570   0.02290   0.01000   0.01267  Uiso   1.00
Cu3    Cu    0.02290   0.34570   0.51000   0.01267  Uiso   1.00
Cu4    Cu    0.65430   0.97710   0.99000   0.01267  Uiso   1.00
H1     H     0.53770   0.37510   0.41740   0.01267  Uiso   1.00
H2     H     0.52430   0.56390   0.41250   0.01267  Uiso   1.00
H3     H     0.40060   0.23660   0.30250   0.01267  Uiso   1.00
H4     H     0.29790   0.33550   0.22330   0.01267  Uiso   1.00
H5     H     0.36410   0.72390   0.28670   0.01267  Uiso   1.00
H6     H     0.78550   0.30130   0.20730   0.01267  Uiso   1.00
H7     H     0.62490   0.46230   0.08260   0.01267  Uiso   1.00
H8     H     0.43610   0.47570   0.08750   0.01267  Uiso   1.00
H9     H     0.76340   0.59940   0.19750   0.01267  Uiso   1.00
H10    H     0.66450   0.70210   0.27670   0.01267  Uiso   1.00
H11    H     0.27610   0.63590   0.21330   0.01267  Uiso   1.00
H12    H     0.69870   0.21450   0.29270   0.01267  Uiso   1.00
H13    H     0.46230   0.62490   0.58260   0.01267  Uiso   1.00
H14    H     0.47570   0.43610   0.58750   0.01267  Uiso   1.00
H15    H     0.59940   0.76340   0.69750   0.01267  Uiso   1.00
H16    H     0.70210   0.66450   0.77670   0.01267  Uiso   1.00
H17    H     0.63590   0.27610   0.71330   0.01267  Uiso   1.00
H18    H     0.21450   0.69870   0.79270   0.01267  Uiso   1.00
H19    H     0.37510   0.53770   0.91740   0.01267  Uiso   1.00
H20    H     0.56390   0.52430   0.91250   0.01267  Uiso   1.00
H21    H     0.23660   0.40060   0.80250   0.01267  Uiso   1.00
H22    H     0.33550   0.29790   0.72330   0.01267  Uiso   1.00
H23    H     0.72390   0.36410   0.78670   0.01267  Uiso   1.00
H24    H     0.30130   0.78550   0.70730   0.01267  Uiso   1.00
C1     C     0.23770   0.48910   0.38550   0.01267  Uiso   1.00
C2     C     0.38190   0.48070   0.31680   0.01267  Uiso   1.00
C3     C     0.53060   0.46980   0.37450   0.01267  Uiso   1.00
C4     C     0.67950   0.45950   0.30710   0.01267  Uiso   1.00
C5     C     0.81770   0.45770   0.37190   0.01267  Uiso   1.00
C6     C     0.39370   0.33130   0.25970   0.01267  Uiso   1.00
C7     C     0.51090   0.76230   0.11450   0.01267  Uiso   1.00
C8     C     0.51930   0.61810   0.18320   0.01267  Uiso   1.00
C9     C     0.53020   0.46940   0.12550   0.01267  Uiso   1.00
C10    C     0.54050   0.32050   0.19290   0.01267  Uiso   1.00
C11    C     0.54230   0.18230   0.12810   0.01267  Uiso   1.00
C12    C     0.66870   0.60630   0.24030   0.01267  Uiso   1.00
C13    C     0.76230   0.51090   0.61450   0.01267  Uiso   1.00
C14    C     0.61810   0.51930   0.68320   0.01267  Uiso   1.00
C15    C     0.46940   0.53020   0.62550   0.01267  Uiso   1.00
C16    C     0.32050   0.54050   0.69290   0.01267  Uiso   1.00
C17    C     0.18230   0.54230   0.62810   0.01267  Uiso   1.00
C18    C     0.60630   0.66870   0.74030   0.01267  Uiso   1.00
C19    C     0.48910   0.23770   0.88550   0.01267  Uiso   1.00
C20    C     0.48070   0.38190   0.81680   0.01267  Uiso   1.00
C21    C     0.46980   0.53060   0.87450   0.01267  Uiso   1.00
C22    C     0.45950   0.67950   0.80710   0.01267  Uiso   1.00
C23    C     0.45770   0.81770   0.87190   0.01267  Uiso   1.00
C24    C     0.33130   0.39370   0.75970   0.01267  Uiso   1.00
C25    C     0.37190   0.62810   0.25000   0.01267  Uiso   1.00
C26    C     0.69050   0.30950   0.25000   0.01267  Uiso   1.00
C27    C     0.62810   0.37190   0.75000   0.01267  Uiso   1.00
C28    C     0.30950   0.69050   0.75000   0.01267  Uiso   1.00
O1     O     0.16880   0.62360   0.40670   0.01267  Uiso   1.00
O2     O     0.19890   0.36030   0.41810   0.01267  Uiso   1.00
O3     O     0.88470   0.32790   0.40490   0.01267  Uiso   1.00
O4     O     0.84830   0.59090   0.39230   0.01267  Uiso   1.00
O5     O     0.37640   0.83120   0.09330   0.01267  Uiso   1.00
O6     O     0.63970   0.80110   0.08190   0.01267  Uiso   1.00
O7     O     0.67210   0.11530   0.09510   0.01267  Uiso   1.00
O8     O     0.40910   0.15170   0.10770   0.01267  Uiso   1.00
O9     O     0.83120   0.37640   0.59330   0.01267  Uiso   1.00
O10    O     0.80110   0.63970   0.58190   0.01267  Uiso   1.00
O11    O     0.11530   0.67210   0.59510   0.01267  Uiso   1.00
O12    O     0.15170   0.40910   0.60770   0.01267  Uiso   1.00
O13    O     0.62360   0.16880   0.90670   0.01267  Uiso   1.00
O14    O     0.36030   0.19890   0.91810   0.01267  Uiso   1.00
O15    O     0.32790   0.88470   0.90490   0.01267  Uiso   1.00
O16    O     0.59090   0.84830   0.89230   0.01267  Uiso   1.00
