data_BIPKIW_clean
_audit_creation_date              2015-10-16
_audit_creation_method            'Materials Studio'
_symmetry_space_group_name_H-M    'P1'
_symmetry_Int_Tables_number       1
_symmetry_cell_setting            triclinic
loop_
_symmetry_equiv_pos_as_xyz
  x,y,z
_cell_length_a                    23.6847
_cell_length_b                    23.6847
_cell_length_c                    23.6847
_cell_angle_alpha                 60.0000
_cell_angle_beta                  60.0000
_cell_angle_gamma                 60.0000
loop_
_atom_site_label
_atom_site_type_symbol
_atom_site_fract_x
_atom_site_fract_y
_atom_site_fract_z
_atom_site_U_iso_or_equiv
_atom_site_adp_type
_atom_site_occupancy
Cu1    Cu    0.71706   0.28294   0.71706   0.01267  Uiso   1.00
Cu2    Cu    0.36096   0.36096   0.63904   0.01267  Uiso   1.00
Cu3    Cu    0.36096   0.63904   0.63904   0.01267  Uiso   1.00
Cu4    Cu    0.28294   0.71706   0.28294   0.01267  Uiso   1.00
Cu5    Cu    0.63904   0.36096   0.36096   0.01267  Uiso   1.00
Cu6    Cu    0.63904   0.36096   0.63904   0.01267  Uiso   1.00
Cu7    Cu    0.28294   0.28294   0.71706   0.01267  Uiso   1.00
Cu8    Cu    0.28294   0.71706   0.71706   0.01267  Uiso   1.00
Cu9    Cu    0.71706   0.28294   0.28294   0.01267  Uiso   1.00
Cu10   Cu    0.36096   0.63904   0.36096   0.01267  Uiso   1.00
Cu11   Cu    0.63904   0.63904   0.36096   0.01267  Uiso   1.00
Cu12   Cu    0.71706   0.71706   0.28294   0.01267  Uiso   1.00
Si1    Si    0.85754   0.85754   0.42738   0.01267  Uiso   1.00
Si2    Si    0.42738   0.85754   0.85754   0.01267  Uiso   1.00
Si3    Si    0.14246   0.14246   0.57262   0.01267  Uiso   1.00
Si4    Si    0.14246   0.14246   0.14246   0.01267  Uiso   1.00
Si5    Si    0.85754   0.85754   0.85754   0.01267  Uiso   1.00
Si6    Si    0.57262   0.14246   0.14246   0.01267  Uiso   1.00
Si7    Si    0.85754   0.42738   0.85754   0.01267  Uiso   1.00
Si8    Si    0.14246   0.57262   0.14246   0.01267  Uiso   1.00
H1     H     0.87450   0.72830   0.85390   0.01267  Uiso   1.00
H2     H     0.84410   0.93470   0.59150   0.01267  Uiso   1.00
H3     H     0.09060   0.69280   0.42580   0.01267  Uiso   1.00
H4     H     0.57420   0.20920   0.30720   0.01267  Uiso   1.00
H5     H     0.86080   0.28400   0.49540   0.01267  Uiso   1.00
H6     H     0.68140   0.22420   0.54940   0.01267  Uiso   1.00
H7     H     0.13900   0.40120   0.98280   0.01267  Uiso   1.00
H8     H     0.27170   0.12550   0.14610   0.01267  Uiso   1.00
H9     H     0.28400   0.35980   0.49540   0.01267  Uiso   1.00
H10    H     0.45500   0.31860   0.77580   0.01267  Uiso   1.00
H11    H     0.10220   0.42780   0.64360   0.01267  Uiso   1.00
H12    H     0.72830   0.85390   0.87450   0.01267  Uiso   1.00
H13    H     0.54330   0.85390   0.72830   0.01267  Uiso   1.00
H14    H     0.37760   0.00960   0.79140   0.01267  Uiso   1.00
H15    H     0.17360   0.35640   0.89780   0.01267  Uiso   1.00
H16    H     0.68140   0.54500   0.22420   0.01267  Uiso   1.00
H17    H     0.45670   0.27170   0.14610   0.01267  Uiso   1.00
H18    H     0.64020   0.13920   0.71600   0.01267  Uiso   1.00
H19    H     0.54940   0.22420   0.54500   0.01267  Uiso   1.00
H20    H     0.22420   0.54940   0.68140   0.01267  Uiso   1.00
H21    H     0.57220   0.89780   0.35640   0.01267  Uiso   1.00
H22    H     0.79080   0.69280   0.09060   0.01267  Uiso   1.00
H23    H     0.13920   0.64020   0.50460   0.01267  Uiso   1.00
H24    H     0.59150   0.62970   0.84410   0.01267  Uiso   1.00
H25    H     0.79140   0.00960   0.82140   0.01267  Uiso   1.00
H26    H     0.01720   0.52300   0.59880   0.01267  Uiso   1.00
H27    H     0.13920   0.50460   0.71600   0.01267  Uiso   1.00
H28    H     0.82140   0.00960   0.37760   0.01267  Uiso   1.00
H29    H     0.98280   0.47700   0.13900   0.01267  Uiso   1.00
H30    H     0.77580   0.45500   0.31860   0.01267  Uiso   1.00
H31    H     0.40850   0.06530   0.15590   0.01267  Uiso   1.00
H32    H     0.40120   0.13900   0.47700   0.01267  Uiso   1.00
H33    H     0.45060   0.77580   0.31860   0.01267  Uiso   1.00
H34    H     0.71600   0.50460   0.64020   0.01267  Uiso   1.00
H35    H     0.64360   0.82640   0.10220   0.01267  Uiso   1.00
H36    H     0.31860   0.77580   0.45500   0.01267  Uiso   1.00
H37    H     0.45060   0.45500   0.77580   0.01267  Uiso   1.00
H38    H     0.37030   0.15590   0.06530   0.01267  Uiso   1.00
H39    H     0.62970   0.93470   0.84410   0.01267  Uiso   1.00
H40    H     0.62240   0.20860   0.99040   0.01267  Uiso   1.00
H41    H     0.79080   0.09060   0.42580   0.01267  Uiso   1.00
H42    H     0.98280   0.40120   0.47700   0.01267  Uiso   1.00
H43    H     0.99040   0.20860   0.17860   0.01267  Uiso   1.00
H44    H     0.17860   0.62240   0.99040   0.01267  Uiso   1.00
H45    H     0.17860   0.99040   0.20860   0.01267  Uiso   1.00
H46    H     0.54940   0.68140   0.22420   0.01267  Uiso   1.00
H47    H     0.89780   0.17360   0.35640   0.01267  Uiso   1.00
H48    H     0.37030   0.06530   0.40850   0.01267  Uiso   1.00
H49    H     0.82140   0.79140   0.00960   0.01267  Uiso   1.00
H50    H     0.85390   0.87450   0.72830   0.01267  Uiso   1.00
H51    H     0.50460   0.64020   0.71600   0.01267  Uiso   1.00
H52    H     0.31860   0.45060   0.77580   0.01267  Uiso   1.00
H53    H     0.09060   0.42580   0.79080   0.01267  Uiso   1.00
H54    H     0.49540   0.86080   0.28400   0.01267  Uiso   1.00
H55    H     0.09060   0.79080   0.69280   0.01267  Uiso   1.00
H56    H     0.12550   0.45670   0.14610   0.01267  Uiso   1.00
H57    H     0.37760   0.79140   0.82140   0.01267  Uiso   1.00
H58    H     0.86080   0.49540   0.35980   0.01267  Uiso   1.00
H59    H     0.40120   0.47700   0.98280   0.01267  Uiso   1.00
H60    H     0.00960   0.79140   0.37760   0.01267  Uiso   1.00
H61    H     0.42580   0.79080   0.09060   0.01267  Uiso   1.00
H62    H     0.01720   0.86100   0.52300   0.01267  Uiso   1.00
H63    H     0.20920   0.30720   0.57420   0.01267  Uiso   1.00
H64    H     0.45060   0.31860   0.45500   0.01267  Uiso   1.00
H65    H     0.28400   0.86080   0.35980   0.01267  Uiso   1.00
H66    H     0.86100   0.52300   0.01720   0.01267  Uiso   1.00
H67    H     0.13920   0.71600   0.64020   0.01267  Uiso   1.00
H68    H     0.87450   0.54330   0.72830   0.01267  Uiso   1.00
H69    H     0.93470   0.84410   0.62970   0.01267  Uiso   1.00
H70    H     0.59150   0.93470   0.62970   0.01267  Uiso   1.00
H71    H     0.79140   0.82140   0.37760   0.01267  Uiso   1.00
H72    H     0.20920   0.57420   0.90940   0.01267  Uiso   1.00
H73    H     0.35640   0.17360   0.57220   0.01267  Uiso   1.00
H74    H     0.45670   0.14610   0.12550   0.01267  Uiso   1.00
H75    H     0.06530   0.40850   0.37030   0.01267  Uiso   1.00
H76    H     0.35980   0.86080   0.49540   0.01267  Uiso   1.00
H77    H     0.52300   0.01720   0.86100   0.01267  Uiso   1.00
H78    H     0.14610   0.27170   0.12550   0.01267  Uiso   1.00
H79    H     0.40850   0.37030   0.06530   0.01267  Uiso   1.00
H80    H     0.59880   0.86100   0.01720   0.01267  Uiso   1.00
H81    H     0.72830   0.54330   0.85390   0.01267  Uiso   1.00
H82    H     0.57220   0.35640   0.17360   0.01267  Uiso   1.00
H83    H     0.71600   0.64020   0.13920   0.01267  Uiso   1.00
H84    H     0.00960   0.82140   0.79140   0.01267  Uiso   1.00
H85    H     0.50460   0.13920   0.64020   0.01267  Uiso   1.00
H86    H     0.06530   0.15590   0.40850   0.01267  Uiso   1.00
H87    H     0.31860   0.45500   0.45060   0.01267  Uiso   1.00
H88    H     0.22420   0.54500   0.54940   0.01267  Uiso   1.00
H89    H     0.82640   0.64360   0.42780   0.01267  Uiso   1.00
H90    H     0.28400   0.49540   0.86080   0.01267  Uiso   1.00
H91    H     0.20860   0.62240   0.17860   0.01267  Uiso   1.00
H92    H     0.22420   0.68140   0.54500   0.01267  Uiso   1.00
H93    H     0.10220   0.64360   0.82640   0.01267  Uiso   1.00
H94    H     0.12550   0.27170   0.45670   0.01267  Uiso   1.00
H95    H     0.98280   0.13900   0.40120   0.01267  Uiso   1.00
H96    H     0.17360   0.57220   0.35640   0.01267  Uiso   1.00
H97    H     0.57420   0.90940   0.20920   0.01267  Uiso   1.00
H98    H     0.59880   0.01720   0.52300   0.01267  Uiso   1.00
H99    H     0.82640   0.10220   0.64360   0.01267  Uiso   1.00
H100   H     0.64360   0.10220   0.42780   0.01267  Uiso   1.00
H101   H     0.72830   0.87450   0.54330   0.01267  Uiso   1.00
H102   H     0.20860   0.99040   0.62240   0.01267  Uiso   1.00
H103   H     0.99040   0.62240   0.20860   0.01267  Uiso   1.00
H104   H     0.89780   0.57220   0.17360   0.01267  Uiso   1.00
H105   H     0.64020   0.50460   0.13920   0.01267  Uiso   1.00
H106   H     0.35640   0.57220   0.89780   0.01267  Uiso   1.00
H107   H     0.64360   0.42780   0.82640   0.01267  Uiso   1.00
H108   H     0.06530   0.37030   0.15590   0.01267  Uiso   1.00
H109   H     0.40850   0.15590   0.37030   0.01267  Uiso   1.00
H110   H     0.86100   0.59880   0.52300   0.01267  Uiso   1.00
H111   H     0.14610   0.12550   0.45670   0.01267  Uiso   1.00
H112   H     0.00960   0.37760   0.82140   0.01267  Uiso   1.00
H113   H     0.57420   0.30720   0.90940   0.01267  Uiso   1.00
H114   H     0.47700   0.98280   0.40120   0.01267  Uiso   1.00
H115   H     0.47700   0.13900   0.98280   0.01267  Uiso   1.00
H116   H     0.17360   0.89780   0.57220   0.01267  Uiso   1.00
H117   H     0.49540   0.28400   0.35980   0.01267  Uiso   1.00
H118   H     0.10220   0.82640   0.42780   0.01267  Uiso   1.00
H119   H     0.93470   0.59150   0.84410   0.01267  Uiso   1.00
H120   H     0.62970   0.59150   0.93470   0.01267  Uiso   1.00
H121   H     0.14610   0.45670   0.27170   0.01267  Uiso   1.00
H122   H     0.50460   0.71600   0.13920   0.01267  Uiso   1.00
H123   H     0.42580   0.09060   0.69280   0.01267  Uiso   1.00
H124   H     0.69280   0.79080   0.42580   0.01267  Uiso   1.00
H125   H     0.13900   0.98280   0.47700   0.01267  Uiso   1.00
H126   H     0.90940   0.20920   0.57420   0.01267  Uiso   1.00
H127   H     0.35980   0.49540   0.28400   0.01267  Uiso   1.00
H128   H     0.69280   0.09060   0.79080   0.01267  Uiso   1.00
H129   H     0.30720   0.20920   0.90940   0.01267  Uiso   1.00
H130   H     0.82140   0.37760   0.79140   0.01267  Uiso   1.00
H131   H     0.42780   0.10220   0.82640   0.01267  Uiso   1.00
H132   H     0.86080   0.35980   0.28400   0.01267  Uiso   1.00
H133   H     0.47700   0.40120   0.13900   0.01267  Uiso   1.00
H134   H     0.17860   0.20860   0.62240   0.01267  Uiso   1.00
H135   H     0.15590   0.37030   0.40850   0.01267  Uiso   1.00
H136   H     0.69280   0.42580   0.09060   0.01267  Uiso   1.00
H137   H     0.59880   0.52300   0.86100   0.01267  Uiso   1.00
H138   H     0.35640   0.89780   0.17360   0.01267  Uiso   1.00
H139   H     0.84410   0.59150   0.62970   0.01267  Uiso   1.00
H140   H     0.37760   0.82140   0.00960   0.01267  Uiso   1.00
H141   H     0.35980   0.28400   0.86080   0.01267  Uiso   1.00
H142   H     0.52300   0.59880   0.01720   0.01267  Uiso   1.00
H143   H     0.42780   0.64360   0.10220   0.01267  Uiso   1.00
H144   H     0.64020   0.71600   0.50460   0.01267  Uiso   1.00
H145   H     0.57220   0.17360   0.89780   0.01267  Uiso   1.00
H146   H     0.77580   0.45060   0.45500   0.01267  Uiso   1.00
H147   H     0.79080   0.42580   0.69280   0.01267  Uiso   1.00
H148   H     0.15590   0.06530   0.37030   0.01267  Uiso   1.00
H149   H     0.54500   0.54940   0.22420   0.01267  Uiso   1.00
H150   H     0.62240   0.17860   0.20860   0.01267  Uiso   1.00
H151   H     0.54500   0.22420   0.68140   0.01267  Uiso   1.00
H152   H     0.27170   0.45670   0.12550   0.01267  Uiso   1.00
H153   H     0.37030   0.40850   0.15590   0.01267  Uiso   1.00
H154   H     0.42780   0.82640   0.64360   0.01267  Uiso   1.00
H155   H     0.54500   0.68140   0.54940   0.01267  Uiso   1.00
H156   H     0.85390   0.54330   0.87450   0.01267  Uiso   1.00
H157   H     0.52300   0.86100   0.59880   0.01267  Uiso   1.00
H158   H     0.90940   0.30720   0.20920   0.01267  Uiso   1.00
H159   H     0.27170   0.14610   0.45670   0.01267  Uiso   1.00
H160   H     0.13900   0.47700   0.40120   0.01267  Uiso   1.00
H161   H     0.54330   0.72830   0.87450   0.01267  Uiso   1.00
H162   H     0.30720   0.90940   0.57420   0.01267  Uiso   1.00
H163   H     0.62240   0.99040   0.17860   0.01267  Uiso   1.00
H164   H     0.90940   0.57420   0.30720   0.01267  Uiso   1.00
H165   H     0.12550   0.14610   0.27170   0.01267  Uiso   1.00
H166   H     0.49540   0.35980   0.86080   0.01267  Uiso   1.00
H167   H     0.99040   0.17860   0.62240   0.01267  Uiso   1.00
H168   H     0.82640   0.42780   0.10220   0.01267  Uiso   1.00
H169   H     0.30720   0.57420   0.20920   0.01267  Uiso   1.00
H170   H     0.59150   0.84410   0.93470   0.01267  Uiso   1.00
H171   H     0.54330   0.87450   0.85390   0.01267  Uiso   1.00
H172   H     0.79140   0.37760   0.00960   0.01267  Uiso   1.00
H173   H     0.45500   0.45060   0.31860   0.01267  Uiso   1.00
H174   H     0.54940   0.54500   0.68140   0.01267  Uiso   1.00
H175   H     0.45500   0.77580   0.45060   0.01267  Uiso   1.00
H176   H     0.15590   0.40850   0.06530   0.01267  Uiso   1.00
H177   H     0.68140   0.54940   0.54500   0.01267  Uiso   1.00
H178   H     0.40120   0.98280   0.13900   0.01267  Uiso   1.00
H179   H     0.77580   0.31860   0.45060   0.01267  Uiso   1.00
H180   H     0.85390   0.72830   0.54330   0.01267  Uiso   1.00
H181   H     0.20920   0.90940   0.30720   0.01267  Uiso   1.00
H182   H     0.42580   0.69280   0.79080   0.01267  Uiso   1.00
H183   H     0.45670   0.12550   0.27170   0.01267  Uiso   1.00
H184   H     0.84410   0.62970   0.93470   0.01267  Uiso   1.00
H185   H     0.62970   0.84410   0.59150   0.01267  Uiso   1.00
H186   H     0.89780   0.35640   0.57220   0.01267  Uiso   1.00
H187   H     0.93470   0.62970   0.59150   0.01267  Uiso   1.00
H188   H     0.87450   0.85390   0.54330   0.01267  Uiso   1.00
H189   H     0.86100   0.01720   0.59880   0.01267  Uiso   1.00
H190   H     0.01720   0.59880   0.86100   0.01267  Uiso   1.00
H191   H     0.20860   0.17860   0.99040   0.01267  Uiso   1.00
H192   H     0.71600   0.13920   0.50460   0.01267  Uiso   1.00
C1     C     0.16050   0.33750   0.45190   0.01267  Uiso   1.00
C2     C     0.24939   0.82881   0.52259   0.01267  Uiso   1.00
C3     C     0.95750   0.19210   0.55030   0.01267  Uiso   1.00
C4     C     0.77260   0.27360   0.36920   0.01267  Uiso   1.00
C5     C     0.94990   0.66250   0.54810   0.01267  Uiso   1.00
C6     C     0.59058   0.07022   0.79178   0.01267  Uiso   1.00
C7     C     0.46721   0.86839   0.26161   0.01267  Uiso   1.00
C8     C     0.97980   0.34800   0.18540   0.01267  Uiso   1.00
C9     C     0.52920   0.89020   0.38460   0.01267  Uiso   1.00
C10    C     0.17400   0.24140   0.57900   0.01267  Uiso   1.00
C11    C     0.89020   0.19600   0.38460   0.01267  Uiso   1.00
C12    C     0.45190   0.05010   0.16050   0.01267  Uiso   1.00
C13    C     0.86839   0.40279   0.26161   0.01267  Uiso   1.00
C14    C     0.30010   0.19210   0.95750   0.01267  Uiso   1.00
C15    C     0.82600   0.99440   0.42100   0.01267  Uiso   1.00
C16    C     0.17400   0.57900   0.00560   0.01267  Uiso   1.00
C17    C     0.45258   0.92978   0.20822   0.01267  Uiso   1.00
C18    C     0.33750   0.16050   0.05010   0.01267  Uiso   1.00
C19    C     0.85750   0.90190   0.51950   0.01267  Uiso   1.00
C20    C     0.45258   0.40942   0.92978   0.01267  Uiso   1.00
C21    C     0.52920   0.38460   0.19600   0.01267  Uiso   1.00
C22    C     0.05010   0.16050   0.45190   0.01267  Uiso   1.00
C23    C     0.39921   0.52259   0.82881   0.01267  Uiso   1.00
C24    C     0.36920   0.27360   0.58460   0.01267  Uiso   1.00
C25    C     0.44970   0.80790   0.04250   0.01267  Uiso   1.00
C26    C     0.59721   0.53279   0.13161   0.01267  Uiso   1.00
C27    C     0.23090   0.07590   0.54410   0.01267  Uiso   1.00
C28    C     0.85750   0.72110   0.90190   0.01267  Uiso   1.00
C29    C     0.27890   0.14250   0.09810   0.01267  Uiso   1.00
C30    C     0.14250   0.09810   0.27890   0.01267  Uiso   1.00
C31    C     0.81780   0.28220   0.44060   0.01267  Uiso   1.00
C32    C     0.89020   0.52920   0.19600   0.01267  Uiso   1.00
C33    C     0.42100   0.75860   0.82600   0.01267  Uiso   1.00
C34    C     0.52259   0.24939   0.82881   0.01267  Uiso   1.00
C35    C     0.60079   0.47741   0.75061   0.01267  Uiso   1.00
C36    C     0.80400   0.47080   0.10980   0.01267  Uiso   1.00
C37    C     0.02020   0.51320   0.81460   0.01267  Uiso   1.00
C38    C     0.42100   0.82600   0.99440   0.01267  Uiso   1.00
C39    C     0.94076   0.17544   0.41124   0.01267  Uiso   1.00
C40    C     0.90190   0.51950   0.85750   0.01267  Uiso   1.00
C41    C     0.94990   0.83950   0.66250   0.01267  Uiso   1.00
C42    C     0.45258   0.20822   0.40942   0.01267  Uiso   1.00
C43    C     0.05924   0.82456   0.52744   0.01267  Uiso   1.00
C44    C     0.44060   0.45940   0.81780   0.01267  Uiso   1.00
C45    C     0.81460   0.65200   0.02020   0.01267  Uiso   1.00
C46    C     0.52744   0.58876   0.05924   0.01267  Uiso   1.00
C47    C     0.77260   0.58460   0.27360   0.01267  Uiso   1.00
C48    C     0.13161   0.73839   0.59721   0.01267  Uiso   1.00
C49    C     0.00560   0.24140   0.17400   0.01267  Uiso   1.00
C50    C     0.53279   0.59721   0.73839   0.01267  Uiso   1.00
C51    C     0.47741   0.75061   0.60079   0.01267  Uiso   1.00
C52    C     0.16050   0.05010   0.33750   0.01267  Uiso   1.00
C53    C     0.59058   0.54742   0.07022   0.01267  Uiso   1.00
C54    C     0.45590   0.76910   0.85090   0.01267  Uiso   1.00
C55    C     0.07590   0.14910   0.54410   0.01267  Uiso   1.00
C56    C     0.40279   0.26161   0.86839   0.01267  Uiso   1.00
C57    C     0.58876   0.82456   0.05924   0.01267  Uiso   1.00
C58    C     0.57900   0.24140   0.00560   0.01267  Uiso   1.00
C59    C     0.40942   0.92978   0.45258   0.01267  Uiso   1.00
C60    C     0.26161   0.86839   0.40279   0.01267  Uiso   1.00
C61    C     0.80400   0.61540   0.47080   0.01267  Uiso   1.00
C62    C     0.52744   0.05924   0.82456   0.01267  Uiso   1.00
C63    C     0.63080   0.41540   0.72640   0.01267  Uiso   1.00
C64    C     0.48680   0.97980   0.18540   0.01267  Uiso   1.00
C65    C     0.09810   0.48050   0.27890   0.01267  Uiso   1.00
C66    C     0.51950   0.90190   0.72110   0.01267  Uiso   1.00
C67    C     0.52920   0.19600   0.89020   0.01267  Uiso   1.00
C68    C     0.65200   0.02020   0.81460   0.01267  Uiso   1.00
C69    C     0.47256   0.94076   0.41124   0.01267  Uiso   1.00
C70    C     0.82881   0.52259   0.24939   0.01267  Uiso   1.00
C71    C     0.69990   0.44970   0.04250   0.01267  Uiso   1.00
C72    C     0.17400   0.00560   0.24140   0.01267  Uiso   1.00
C73    C     0.95750   0.30010   0.19210   0.01267  Uiso   1.00
C74    C     0.59721   0.13161   0.73839   0.01267  Uiso   1.00
C75    C     0.75061   0.17119   0.60079   0.01267  Uiso   1.00
C76    C     0.39921   0.24939   0.52259   0.01267  Uiso   1.00
C77    C     0.28220   0.81780   0.45940   0.01267  Uiso   1.00
C78    C     0.72110   0.51950   0.90190   0.01267  Uiso   1.00
C79    C     0.94990   0.54810   0.83950   0.01267  Uiso   1.00
C80    C     0.73839   0.53279   0.59721   0.01267  Uiso   1.00
C81    C     0.48050   0.27890   0.09810   0.01267  Uiso   1.00
C82    C     0.04250   0.80790   0.69990   0.01267  Uiso   1.00
C83    C     0.17119   0.75061   0.47741   0.01267  Uiso   1.00
C84    C     0.22740   0.63080   0.72640   0.01267  Uiso   1.00
C85    C     0.14250   0.48050   0.09810   0.01267  Uiso   1.00
C86    C     0.05924   0.52744   0.58876   0.01267  Uiso   1.00
C87    C     0.58460   0.77260   0.36920   0.01267  Uiso   1.00
C88    C     0.81780   0.45940   0.28220   0.01267  Uiso   1.00
C89    C     0.61540   0.80400   0.10980   0.01267  Uiso   1.00
C90    C     0.45190   0.16050   0.33750   0.01267  Uiso   1.00
C91    C     0.97980   0.48680   0.34800   0.01267  Uiso   1.00
C92    C     0.54410   0.14910   0.23090   0.01267  Uiso   1.00
C93    C     0.18220   0.54060   0.55940   0.01267  Uiso   1.00
C94    C     0.18540   0.34800   0.48680   0.01267  Uiso   1.00
C95    C     0.04250   0.44970   0.80790   0.01267  Uiso   1.00
C96    C     0.45190   0.33750   0.05010   0.01267  Uiso   1.00
C97    C     0.40942   0.20822   0.92978   0.01267  Uiso   1.00
C98    C     0.07022   0.59058   0.54742   0.01267  Uiso   1.00
C99    C     0.19210   0.95750   0.30010   0.01267  Uiso   1.00
C100   C     0.86839   0.46721   0.40279   0.01267  Uiso   1.00
C101   C     0.54060   0.71780   0.55940   0.01267  Uiso   1.00
C102   C     0.07022   0.54742   0.79178   0.01267  Uiso   1.00
C103   C     0.22740   0.41540   0.63080   0.01267  Uiso   1.00
C104   C     0.92410   0.76910   0.45590   0.01267  Uiso   1.00
C105   C     0.55940   0.18220   0.54060   0.01267  Uiso   1.00
C106   C     0.51320   0.65200   0.81460   0.01267  Uiso   1.00
C107   C     0.36920   0.58460   0.77260   0.01267  Uiso   1.00
C108   C     0.14910   0.54410   0.07590   0.01267  Uiso   1.00
C109   C     0.58460   0.36920   0.27360   0.01267  Uiso   1.00
C110   C     0.38460   0.52920   0.89020   0.01267  Uiso   1.00
C111   C     0.51950   0.72110   0.85750   0.01267  Uiso   1.00
C112   C     0.51320   0.81460   0.02020   0.01267  Uiso   1.00
C113   C     0.89020   0.38460   0.52920   0.01267  Uiso   1.00
C114   C     0.82881   0.24939   0.39921   0.01267  Uiso   1.00
C115   C     0.48050   0.09810   0.14250   0.01267  Uiso   1.00
C116   C     0.48680   0.18540   0.34800   0.01267  Uiso   1.00
C117   C     0.16050   0.45190   0.05010   0.01267  Uiso   1.00
C118   C     0.22740   0.72640   0.41540   0.01267  Uiso   1.00
C119   C     0.05010   0.45190   0.33750   0.01267  Uiso   1.00
C120   C     0.52744   0.82456   0.58876   0.01267  Uiso   1.00
C121   C     0.38460   0.89020   0.19600   0.01267  Uiso   1.00
C122   C     0.85090   0.76910   0.92410   0.01267  Uiso   1.00
C123   C     0.80400   0.10980   0.61540   0.01267  Uiso   1.00
C124   C     0.05010   0.33750   0.16050   0.01267  Uiso   1.00
C125   C     0.40942   0.45258   0.20822   0.01267  Uiso   1.00
C126   C     0.27890   0.09810   0.48050   0.01267  Uiso   1.00
C127   C     0.20822   0.92978   0.40942   0.01267  Uiso   1.00
C128   C     0.47741   0.60079   0.17119   0.01267  Uiso   1.00
C129   C     0.60079   0.75061   0.17119   0.01267  Uiso   1.00
C130   C     0.72640   0.41540   0.22740   0.01267  Uiso   1.00
C131   C     0.71780   0.54060   0.18220   0.01267  Uiso   1.00
C132   C     0.85090   0.92410   0.45590   0.01267  Uiso   1.00
C133   C     0.92410   0.45590   0.85090   0.01267  Uiso   1.00
C134   C     0.82456   0.52744   0.05924   0.01267  Uiso   1.00
C135   C     0.79178   0.59058   0.07022   0.01267  Uiso   1.00
C136   C     0.58876   0.52744   0.82456   0.01267  Uiso   1.00
C137   C     0.20822   0.40942   0.45258   0.01267  Uiso   1.00
C138   C     0.44970   0.69990   0.80790   0.01267  Uiso   1.00
C139   C     0.53279   0.13161   0.59721   0.01267  Uiso   1.00
C140   C     0.52259   0.39921   0.24939   0.01267  Uiso   1.00
C141   C     0.33750   0.45190   0.16050   0.01267  Uiso   1.00
C142   C     0.17544   0.94076   0.47256   0.01267  Uiso   1.00
C143   C     0.86839   0.26161   0.46721   0.01267  Uiso   1.00
C144   C     0.07590   0.54410   0.23090   0.01267  Uiso   1.00
C145   C     0.63080   0.72640   0.22740   0.01267  Uiso   1.00
C146   C     0.27890   0.48050   0.14250   0.01267  Uiso   1.00
C147   C     0.17544   0.47256   0.41124   0.01267  Uiso   1.00
C148   C     0.73839   0.59721   0.13161   0.01267  Uiso   1.00
C149   C     0.17119   0.60079   0.75061   0.01267  Uiso   1.00
C150   C     0.07022   0.79178   0.59058   0.01267  Uiso   1.00
C151   C     0.24939   0.39921   0.82881   0.01267  Uiso   1.00
C152   C     0.24140   0.17400   0.00560   0.01267  Uiso   1.00
C153   C     0.41540   0.22740   0.72640   0.01267  Uiso   1.00
C154   C     0.26161   0.40279   0.46721   0.01267  Uiso   1.00
C155   C     0.45940   0.44060   0.28220   0.01267  Uiso   1.00
C156   C     0.80790   0.04250   0.44970   0.01267  Uiso   1.00
C157   C     0.07590   0.23090   0.14910   0.01267  Uiso   1.00
C158   C     0.45940   0.81780   0.44060   0.01267  Uiso   1.00
C159   C     0.48680   0.34800   0.97980   0.01267  Uiso   1.00
C160   C     0.34800   0.97980   0.48680   0.01267  Uiso   1.00
C161   C     0.99440   0.82600   0.75860   0.01267  Uiso   1.00
C162   C     0.14910   0.23090   0.54410   0.01267  Uiso   1.00
C163   C     0.18220   0.71780   0.54060   0.01267  Uiso   1.00
C164   C     0.54810   0.66250   0.83950   0.01267  Uiso   1.00
C165   C     0.36920   0.77260   0.27360   0.01267  Uiso   1.00
C166   C     0.53279   0.73839   0.13161   0.01267  Uiso   1.00
C167   C     0.14250   0.27890   0.48050   0.01267  Uiso   1.00
C168   C     0.04250   0.69990   0.44970   0.01267  Uiso   1.00
C169   C     0.66250   0.94990   0.83950   0.01267  Uiso   1.00
C170   C     0.34800   0.48680   0.18540   0.01267  Uiso   1.00
C171   C     0.40279   0.86839   0.46721   0.01267  Uiso   1.00
C172   C     0.09810   0.14250   0.48050   0.01267  Uiso   1.00
C173   C     0.47080   0.80400   0.61540   0.01267  Uiso   1.00
C174   C     0.92410   0.85090   0.76910   0.01267  Uiso   1.00
C175   C     0.72110   0.90190   0.85750   0.01267  Uiso   1.00
C176   C     0.44970   0.04250   0.69990   0.01267  Uiso   1.00
C177   C     0.94076   0.41124   0.47256   0.01267  Uiso   1.00
C178   C     0.58460   0.27360   0.77260   0.01267  Uiso   1.00
C179   C     0.61540   0.47080   0.80400   0.01267  Uiso   1.00
C180   C     0.75860   0.42100   0.99440   0.01267  Uiso   1.00
C181   C     0.71780   0.18220   0.55940   0.01267  Uiso   1.00
C182   C     0.81460   0.02020   0.51320   0.01267  Uiso   1.00
C183   C     0.00560   0.17400   0.57900   0.01267  Uiso   1.00
C184   C     0.19210   0.30010   0.55030   0.01267  Uiso   1.00
C185   C     0.42100   0.99440   0.75860   0.01267  Uiso   1.00
C186   C     0.10980   0.80400   0.47080   0.01267  Uiso   1.00
C187   C     0.80790   0.44970   0.69990   0.01267  Uiso   1.00
C188   C     0.55030   0.95750   0.19210   0.01267  Uiso   1.00
C189   C     0.83950   0.54810   0.66250   0.01267  Uiso   1.00
C190   C     0.19210   0.55030   0.95750   0.01267  Uiso   1.00
C191   C     0.47741   0.17119   0.75061   0.01267  Uiso   1.00
C192   C     0.44060   0.28220   0.45940   0.01267  Uiso   1.00
C193   C     0.54742   0.59058   0.79178   0.01267  Uiso   1.00
C194   C     0.92978   0.45258   0.40942   0.01267  Uiso   1.00
C195   C     0.94076   0.47256   0.17544   0.01267  Uiso   1.00
C196   C     0.24140   0.00560   0.57900   0.01267  Uiso   1.00
C197   C     0.79178   0.07022   0.54742   0.01267  Uiso   1.00
C198   C     0.47256   0.17544   0.94076   0.01267  Uiso   1.00
C199   C     0.28220   0.45940   0.44060   0.01267  Uiso   1.00
C200   C     0.10980   0.61540   0.80400   0.01267  Uiso   1.00
C201   C     0.72640   0.22740   0.63080   0.01267  Uiso   1.00
C202   C     0.44060   0.81780   0.28220   0.01267  Uiso   1.00
C203   C     0.19600   0.38460   0.89020   0.01267  Uiso   1.00
C204   C     0.85090   0.45590   0.76910   0.01267  Uiso   1.00
C205   C     0.80790   0.69990   0.04250   0.01267  Uiso   1.00
C206   C     0.34800   0.18540   0.97980   0.01267  Uiso   1.00
C207   C     0.02020   0.81460   0.65200   0.01267  Uiso   1.00
C208   C     0.33750   0.05010   0.45190   0.01267  Uiso   1.00
C209   C     0.54410   0.07590   0.14910   0.01267  Uiso   1.00
C210   C     0.66250   0.83950   0.54810   0.01267  Uiso   1.00
C211   C     0.75061   0.60079   0.47741   0.01267  Uiso   1.00
C212   C     0.09810   0.27890   0.14250   0.01267  Uiso   1.00
C213   C     0.95750   0.55030   0.30010   0.01267  Uiso   1.00
C214   C     0.27360   0.36920   0.77260   0.01267  Uiso   1.00
C215   C     0.41124   0.94076   0.17544   0.01267  Uiso   1.00
C216   C     0.73839   0.13161   0.53279   0.01267  Uiso   1.00
C217   C     0.66250   0.54810   0.94990   0.01267  Uiso   1.00
C218   C     0.90190   0.85750   0.72110   0.01267  Uiso   1.00
C219   C     0.30010   0.95750   0.55030   0.01267  Uiso   1.00
C220   C     0.81460   0.51320   0.65200   0.01267  Uiso   1.00
C221   C     0.54810   0.94990   0.66250   0.01267  Uiso   1.00
C222   C     0.92978   0.40942   0.20822   0.01267  Uiso   1.00
C223   C     0.18540   0.97980   0.34800   0.01267  Uiso   1.00
C224   C     0.75860   0.99440   0.82600   0.01267  Uiso   1.00
C225   C     0.27360   0.58460   0.36920   0.01267  Uiso   1.00
C226   C     0.90190   0.72110   0.51950   0.01267  Uiso   1.00
C227   C     0.10980   0.47080   0.61540   0.01267  Uiso   1.00
C228   C     0.18540   0.48680   0.97980   0.01267  Uiso   1.00
C229   C     0.41124   0.47256   0.94076   0.01267  Uiso   1.00
C230   C     0.02020   0.65200   0.51320   0.01267  Uiso   1.00
C231   C     0.82881   0.39921   0.52259   0.01267  Uiso   1.00
C232   C     0.77260   0.36920   0.58460   0.01267  Uiso   1.00
C233   C     0.41540   0.72640   0.63080   0.01267  Uiso   1.00
C234   C     0.18220   0.55940   0.71780   0.01267  Uiso   1.00
C235   C     0.57900   0.00560   0.17400   0.01267  Uiso   1.00
C236   C     0.51320   0.02020   0.65200   0.01267  Uiso   1.00
C237   C     0.39921   0.82881   0.24939   0.01267  Uiso   1.00
C238   C     0.38460   0.19600   0.52920   0.01267  Uiso   1.00
C239   C     0.20822   0.45258   0.92978   0.01267  Uiso   1.00
C240   C     0.51950   0.85750   0.90190   0.01267  Uiso   1.00
C241   C     0.54742   0.79178   0.07022   0.01267  Uiso   1.00
C242   C     0.54742   0.07022   0.59058   0.01267  Uiso   1.00
C243   C     0.59058   0.79178   0.54742   0.01267  Uiso   1.00
C244   C     0.46721   0.40279   0.86839   0.01267  Uiso   1.00
C245   C     0.45590   0.92410   0.76910   0.01267  Uiso   1.00
C246   C     0.58876   0.05924   0.52744   0.01267  Uiso   1.00
C247   C     0.76910   0.85090   0.45590   0.01267  Uiso   1.00
C248   C     0.76910   0.45590   0.92410   0.01267  Uiso   1.00
C249   C     0.14910   0.07590   0.23090   0.01267  Uiso   1.00
C250   C     0.71780   0.55940   0.54060   0.01267  Uiso   1.00
C251   C     0.19600   0.52920   0.38460   0.01267  Uiso   1.00
C252   C     0.24140   0.57900   0.17400   0.01267  Uiso   1.00
C253   C     0.26161   0.46721   0.86839   0.01267  Uiso   1.00
C254   C     0.47080   0.61540   0.10980   0.01267  Uiso   1.00
C255   C     0.92978   0.20822   0.45258   0.01267  Uiso   1.00
C256   C     0.76910   0.92410   0.85090   0.01267  Uiso   1.00
C257   C     0.60079   0.17119   0.47741   0.01267  Uiso   1.00
C258   C     0.72640   0.63080   0.41540   0.01267  Uiso   1.00
C259   C     0.55030   0.30010   0.95750   0.01267  Uiso   1.00
C260   C     0.81780   0.44060   0.45940   0.01267  Uiso   1.00
C261   C     0.13161   0.59721   0.53279   0.01267  Uiso   1.00
C262   C     0.47256   0.41124   0.17544   0.01267  Uiso   1.00
C263   C     0.79178   0.54742   0.59058   0.01267  Uiso   1.00
C264   C     0.23090   0.14910   0.07590   0.01267  Uiso   1.00
C265   C     0.55940   0.54060   0.71780   0.01267  Uiso   1.00
C266   C     0.23090   0.54410   0.14910   0.01267  Uiso   1.00
C267   C     0.40279   0.46721   0.26161   0.01267  Uiso   1.00
C268   C     0.30010   0.55030   0.19210   0.01267  Uiso   1.00
C269   C     0.27360   0.77260   0.58460   0.01267  Uiso   1.00
C270   C     0.61540   0.10980   0.47080   0.01267  Uiso   1.00
C271   C     0.54410   0.23090   0.07590   0.01267  Uiso   1.00
C272   C     0.69990   0.04250   0.80790   0.01267  Uiso   1.00
C273   C     0.17544   0.41124   0.94076   0.01267  Uiso   1.00
C274   C     0.45590   0.85090   0.92410   0.01267  Uiso   1.00
C275   C     0.00560   0.57900   0.24140   0.01267  Uiso   1.00
C276   C     0.54060   0.55940   0.18220   0.01267  Uiso   1.00
C277   C     0.13161   0.53279   0.73839   0.01267  Uiso   1.00
C278   C     0.65200   0.81460   0.51320   0.01267  Uiso   1.00
C279   C     0.65200   0.51320   0.02020   0.01267  Uiso   1.00
C280   C     0.99440   0.75860   0.42100   0.01267  Uiso   1.00
C281   C     0.83950   0.94990   0.54810   0.01267  Uiso   1.00
C282   C     0.17119   0.47741   0.60079   0.01267  Uiso   1.00
C283   C     0.82456   0.58876   0.52744   0.01267  Uiso   1.00
C284   C     0.99440   0.42100   0.82600   0.01267  Uiso   1.00
C285   C     0.46721   0.26161   0.40279   0.01267  Uiso   1.00
C286   C     0.54060   0.18220   0.71780   0.01267  Uiso   1.00
C287   C     0.75061   0.47741   0.17119   0.01267  Uiso   1.00
C288   C     0.63080   0.22740   0.41540   0.01267  Uiso   1.00
C289   C     0.55030   0.19210   0.30010   0.01267  Uiso   1.00
C290   C     0.05924   0.58876   0.82456   0.01267  Uiso   1.00
C291   C     0.83950   0.66250   0.94990   0.01267  Uiso   1.00
C292   C     0.41540   0.63080   0.22740   0.01267  Uiso   1.00
C293   C     0.45940   0.28220   0.81780   0.01267  Uiso   1.00
C294   C     0.69990   0.80790   0.44970   0.01267  Uiso   1.00
C295   C     0.59721   0.73839   0.53279   0.01267  Uiso   1.00
C296   C     0.47080   0.10980   0.80400   0.01267  Uiso   1.00
C297   C     0.24939   0.52259   0.39921   0.01267  Uiso   1.00
C298   C     0.97980   0.18540   0.48680   0.01267  Uiso   1.00
C299   C     0.57900   0.17400   0.24140   0.01267  Uiso   1.00
C300   C     0.19600   0.89020   0.52920   0.01267  Uiso   1.00
C301   C     0.28220   0.44060   0.81780   0.01267  Uiso   1.00
C302   C     0.82600   0.42100   0.75860   0.01267  Uiso   1.00
C303   C     0.75860   0.82600   0.42100   0.01267  Uiso   1.00
C304   C     0.82600   0.75860   0.99440   0.01267  Uiso   1.00
C305   C     0.85750   0.51950   0.72110   0.01267  Uiso   1.00
C306   C     0.48050   0.14250   0.27890   0.01267  Uiso   1.00
C307   C     0.55940   0.71780   0.18220   0.01267  Uiso   1.00
C308   C     0.72110   0.85750   0.51950   0.01267  Uiso   1.00
C309   C     0.52259   0.82881   0.39921   0.01267  Uiso   1.00
C310   C     0.54810   0.83950   0.94990   0.01267  Uiso   1.00
C311   C     0.41124   0.17544   0.47256   0.01267  Uiso   1.00
C312   C     0.82456   0.05924   0.58876   0.01267  Uiso   1.00
O1     O     0.35980   0.75140   0.67100   0.01267  Uiso   1.00
O2     O     0.43190   0.67510   0.61390   0.01267  Uiso   1.00
O3     O     0.61390   0.43190   0.67510   0.01267  Uiso   1.00
O4     O     0.38610   0.32490   0.56810   0.01267  Uiso   1.00
O5     O     0.35980   0.21780   0.75140   0.01267  Uiso   1.00
O6     O     0.43190   0.27910   0.67510   0.01267  Uiso   1.00
O7     O     0.27910   0.61390   0.67510   0.01267  Uiso   1.00
O8     O     0.32900   0.78220   0.24860   0.01267  Uiso   1.00
O9     O     0.67100   0.35980   0.75140   0.01267  Uiso   1.00
O10    O     0.67510   0.61390   0.43190   0.01267  Uiso   1.00
O11    O     0.72090   0.32490   0.38610   0.01267  Uiso   1.00
O12    O     0.32900   0.24860   0.64020   0.01267  Uiso   1.00
O13    O     0.67510   0.27910   0.61390   0.01267  Uiso   1.00
O14    O     0.21780   0.35980   0.67100   0.01267  Uiso   1.00
O15    O     0.35980   0.67100   0.21780   0.01267  Uiso   1.00
O16    O     0.67510   0.43190   0.27910   0.01267  Uiso   1.00
O17    O     0.38610   0.56810   0.72090   0.01267  Uiso   1.00
O18    O     0.64020   0.78220   0.32900   0.01267  Uiso   1.00
O19    O     0.32490   0.72090   0.56810   0.01267  Uiso   1.00
O20    O     0.75140   0.21780   0.67100   0.01267  Uiso   1.00
O21    O     0.27910   0.43190   0.61390   0.01267  Uiso   1.00
O22    O     0.24860   0.64020   0.32900   0.01267  Uiso   1.00
O23    O     0.38610   0.72090   0.32490   0.01267  Uiso   1.00
O24    O     0.75140   0.35980   0.21780   0.01267  Uiso   1.00
O25    O     0.32490   0.38610   0.72090   0.01267  Uiso   1.00
O26    O     0.64020   0.24860   0.78220   0.01267  Uiso   1.00
O27    O     0.32490   0.56810   0.38610   0.01267  Uiso   1.00
O28    O     0.24860   0.32900   0.78220   0.01267  Uiso   1.00
O29    O     0.32900   0.64020   0.78220   0.01267  Uiso   1.00
O30    O     0.56810   0.72090   0.38610   0.01267  Uiso   1.00
O31    O     0.61390   0.67510   0.27910   0.01267  Uiso   1.00
O32    O     0.21780   0.67100   0.75140   0.01267  Uiso   1.00
O33    O     0.43190   0.61390   0.27910   0.01267  Uiso   1.00
O34    O     0.72090   0.56810   0.32490   0.01267  Uiso   1.00
O35    O     0.56810   0.32490   0.72090   0.01267  Uiso   1.00
O36    O     0.75140   0.67100   0.35980   0.01267  Uiso   1.00
O37    O     0.78220   0.32900   0.64020   0.01267  Uiso   1.00
O38    O     0.21780   0.75140   0.35980   0.01267  Uiso   1.00
O39    O     0.67100   0.21780   0.35980   0.01267  Uiso   1.00
O40    O     0.61390   0.27910   0.43190   0.01267  Uiso   1.00
O41    O     0.78220   0.24860   0.32900   0.01267  Uiso   1.00
O42    O     0.24860   0.78220   0.64020   0.01267  Uiso   1.00
O43    O     0.67100   0.75140   0.21780   0.01267  Uiso   1.00
O44    O     0.27910   0.67510   0.43190   0.01267  Uiso   1.00
O45    O     0.72090   0.38610   0.56810   0.01267  Uiso   1.00
O46    O     0.78220   0.64020   0.24860   0.01267  Uiso   1.00
O47    O     0.56810   0.38610   0.32490   0.01267  Uiso   1.00
O48    O     0.64020   0.32900   0.24860   0.01267  Uiso   1.00
