data_BIPLIX_clean
_audit_creation_date              2015-10-16
_audit_creation_method            'Materials Studio'
_symmetry_space_group_name_H-M    'P1'
_symmetry_Int_Tables_number       1
_symmetry_cell_setting            triclinic
loop_
_symmetry_equiv_pos_as_xyz
  x,y,z
_cell_length_a                    16.0820
_cell_length_b                    17.0740
_cell_length_c                    27.8780
_cell_angle_alpha                 92.5860
_cell_angle_beta                  105.9690
_cell_angle_gamma                 117.0000
loop_
_atom_site_label
_atom_site_type_symbol
_atom_site_fract_x
_atom_site_fract_y
_atom_site_fract_z
_atom_site_U_iso_or_equiv
_atom_site_adp_type
_atom_site_occupancy
Zn1    Zn    0.71009   0.76501   0.19283   0.01267  Uiso   1.00
Zn2    Zn    0.47203   0.21738   0.79810   0.01267  Uiso   1.00
Zn3    Zn    0.64700   0.22469   0.75652   0.01267  Uiso   1.00
Zn4    Zn    0.35300   0.77531   0.24348   0.01267  Uiso   1.00
Zn5    Zn    0.42563   0.06922   0.68908   0.01267  Uiso   1.00
Zn6    Zn    0.28991   0.23499   0.80717   0.01267  Uiso   1.00
Zn7    Zn    0.58449   0.63793   0.26396   0.01267  Uiso   1.00
Zn8    Zn    0.41551   0.36207   0.73604   0.01267  Uiso   1.00
Zn9    Zn    0.57437   0.93078   0.31092   0.01267  Uiso   1.00
Zn10   Zn    0.52797   0.78262   0.20190   0.01267  Uiso   1.00
Co1    Co    0.25804   0.25439   0.38569   0.01267  Uiso   1.00
Co2    Co    0.74196   0.74561   0.61431   0.01267  Uiso   1.00
Co3    Co    0.87649   0.33952   0.12167   0.01267  Uiso   1.00
Co4    Co    0.12351   0.66048   0.87833   0.01267  Uiso   1.00
H1     H     0.16280   0.00640   0.30790   0.01267  Uiso   1.00
H2     H     0.40590   0.44430   0.50280   0.01267  Uiso   1.00
H3     H     0.64230   0.99810   0.00190   0.01267  Uiso   1.00
H4     H     0.18590   0.37430   0.30260   0.01267  Uiso   1.00
H5     H     0.26280   0.78350   0.79350   0.01267  Uiso   1.00
H6     H     0.86160   0.16840   0.32690   0.01267  Uiso   1.00
H7     H     0.55570   0.41440   0.34480   0.01267  Uiso   1.00
H8     H     0.64680   0.47690   0.55470   0.01267  Uiso   1.00
H9     H     0.92030   0.73370   0.50390   0.01267  Uiso   1.00
H10    H     0.41130   0.44320   0.58760   0.01267  Uiso   1.00
H11    H     0.13840   0.83160   0.67310   0.01267  Uiso   1.00
H12    H     0.22250   0.92850   0.27260   0.01267  Uiso   1.00
H13    H     0.40530   0.20640   0.49390   0.01267  Uiso   1.00
H14    H     0.94610   0.38890   0.99680   0.01267  Uiso   1.00
H15    H     0.74160   0.35400   0.21210   0.01267  Uiso   1.00
H16    H     0.98040   0.74620   0.67600   0.01267  Uiso   1.00
H17    H     0.08250   0.46830   0.08150   0.01267  Uiso   1.00
H18    H     0.71610   0.58100   0.78160   0.01267  Uiso   1.00
H19    H     0.72810   0.44820   0.08450   0.01267  Uiso   1.00
H20    H     0.07210   0.55780   0.27800   0.01267  Uiso   1.00
H21    H     0.11160   0.05410   0.68130   0.01267  Uiso   1.00
H22    H     0.34200   0.93640   0.78920   0.01267  Uiso   1.00
H23    H     0.44430   0.58560   0.65520   0.01267  Uiso   1.00
H24    H     0.86510   0.32320   0.91100   0.01267  Uiso   1.00
H25    H     0.83720   0.99360   0.69210   0.01267  Uiso   1.00
H26    H     0.01960   0.25380   0.32400   0.01267  Uiso   1.00
H27    H     0.04730   0.02790   0.31480   0.01267  Uiso   1.00
H28    H     0.05360   0.12970   0.51880   0.01267  Uiso   1.00
H29    H     0.37630   0.65200   0.41340   0.01267  Uiso   1.00
H30    H     0.88840   0.94590   0.31870   0.01267  Uiso   1.00
H31    H     0.22020   0.50640   0.27100   0.01267  Uiso   1.00
H32    H     0.57270   0.07520   0.03440   0.01267  Uiso   1.00
H33    H     0.49720   0.88570   0.64710   0.01267  Uiso   1.00
H34    H     0.59410   0.55570   0.49720   0.01267  Uiso   1.00
H35    H     0.77750   0.07150   0.72740   0.01267  Uiso   1.00
H36    H     0.42730   0.92480   0.96560   0.01267  Uiso   1.00
H37    H     0.62370   0.34800   0.58660   0.01267  Uiso   1.00
H38    H     0.32040   0.45560   0.88620   0.01267  Uiso   1.00
H39    H     0.95270   0.97210   0.68520   0.01267  Uiso   1.00
H40    H     0.11780   0.95910   0.81120   0.01267  Uiso   1.00
H41    H     0.03620   0.80850   0.81430   0.01267  Uiso   1.00
H42    H     0.58060   0.78830   0.42090   0.01267  Uiso   1.00
H43    H     0.35770   0.00190   0.99810   0.01267  Uiso   1.00
H44    H     0.59470   0.79360   0.50610   0.01267  Uiso   1.00
H45    H     0.81410   0.62570   0.69740   0.01267  Uiso   1.00
H46    H     0.89410   0.95740   0.51700   0.01267  Uiso   1.00
H47    H     0.70840   0.45710   0.24620   0.01267  Uiso   1.00
H48    H     0.94640   0.87030   0.48120   0.01267  Uiso   1.00
H49    H     0.30780   0.27860   0.22410   0.01267  Uiso   1.00
H50    H     0.68410   0.32330   0.01660   0.01267  Uiso   1.00
H51    H     0.10750   0.67910   0.23730   0.01267  Uiso   1.00
H52    H     0.10590   0.04260   0.48300   0.01267  Uiso   1.00
H53    H     0.92790   0.44220   0.72200   0.01267  Uiso   1.00
H54    H     0.18340   0.92930   0.97860   0.01267  Uiso   1.00
H55    H     0.50280   0.11430   0.35290   0.01267  Uiso   1.00
H56    H     0.44310   0.18720   0.39510   0.01267  Uiso   1.00
H57    H     0.25840   0.64600   0.78790   0.01267  Uiso   1.00
H58    H     0.28390   0.41900   0.21840   0.01267  Uiso   1.00
H59    H     0.89250   0.32090   0.76270   0.01267  Uiso   1.00
H60    H     0.60570   0.25550   0.93060   0.01267  Uiso   1.00
H61    H     0.58870   0.55680   0.41240   0.01267  Uiso   1.00
H62    H     0.27190   0.55180   0.91550   0.01267  Uiso   1.00
H63    H     0.73720   0.21650   0.20650   0.01267  Uiso   1.00
H64    H     0.96300   0.33920   0.84970   0.01267  Uiso   1.00
H65    H     0.74730   0.42990   0.88280   0.01267  Uiso   1.00
H66    H     0.67960   0.54440   0.11380   0.01267  Uiso   1.00
H67    H     0.91750   0.53170   0.91850   0.01267  Uiso   1.00
H68    H     0.11760   0.31870   0.18500   0.01267  Uiso   1.00
H69    H     0.13490   0.67680   0.08900   0.01267  Uiso   1.00
H70    H     0.52240   0.63390   0.74280   0.01267  Uiso   1.00
H71    H     0.81660   0.07070   0.02140   0.01267  Uiso   1.00
H72    H     0.96380   0.19150   0.18570   0.01267  Uiso   1.00
H73    H     0.55690   0.81280   0.60490   0.01267  Uiso   1.00
H74    H     0.47760   0.36610   0.25720   0.01267  Uiso   1.00
H75    H     0.03700   0.66080   0.15030   0.01267  Uiso   1.00
H76    H     0.69220   0.72140   0.77590   0.01267  Uiso   1.00
H77    H     0.88220   0.04090   0.18880   0.01267  Uiso   1.00
H78    H     0.77980   0.49360   0.72900   0.01267  Uiso   1.00
H79    H     0.25270   0.57010   0.11720   0.01267  Uiso   1.00
H80    H     0.35320   0.52310   0.44530   0.01267  Uiso   1.00
H81    H     0.29160   0.54290   0.75380   0.01267  Uiso   1.00
H82    H     0.39430   0.74450   0.06940   0.01267  Uiso   1.00
H83    H     0.31590   0.67670   0.98340   0.01267  Uiso   1.00
H84    H     0.07970   0.26630   0.49610   0.01267  Uiso   1.00
H85    H     0.88240   0.68130   0.81500   0.01267  Uiso   1.00
H86    H     0.05390   0.61110   0.00320   0.01267  Uiso   1.00
H87    H     0.41940   0.21170   0.57910   0.01267  Uiso   1.00
H88    H     0.65800   0.06360   0.21080   0.01267  Uiso   1.00
C1     C     0.66020   0.70470   0.74010   0.01267  Uiso   1.00
C2     C     0.67180   0.24200   0.09600   0.01267  Uiso   1.00
C3     C     0.43980   0.34810   0.27950   0.01267  Uiso   1.00
C4     C     0.25750   0.43370   0.37690   0.01267  Uiso   1.00
C5     C     0.85510   0.62960   0.82910   0.01267  Uiso   1.00
C6     C     0.11950   0.09980   0.47500   0.01267  Uiso   1.00
C7     C     0.82790   0.32120   0.93260   0.01267  Uiso   1.00
C8     C     0.40820   0.25580   0.51290   0.01267  Uiso   1.00
C9     C     0.08410   0.99130   0.67990   0.01267  Uiso   1.00
C10    C     0.27200   0.60760   0.80850   0.01267  Uiso   1.00
C11    C     0.58570   0.74200   0.43690   0.01267  Uiso   1.00
C12    C     0.72890   0.38420   0.14330   0.01267  Uiso   1.00
C13    C     0.09950   0.85940   0.67490   0.01267  Uiso   1.00
C14    C     0.40240   0.95620   0.28640   0.01267  Uiso   1.00
C15    C     0.78310   0.90860   0.58200   0.01267  Uiso   1.00
C16    C     0.04930   0.75750   0.91950   0.01267  Uiso   1.00
C17    C     0.71820   0.44640   0.11650   0.01267  Uiso   1.00
C18    C     0.87700   0.54190   0.89040   0.01267  Uiso   1.00
C19    C     0.23770   0.96190   0.80200   0.01267  Uiso   1.00
C20    C     0.32820   0.75800   0.90400   0.01267  Uiso   1.00
C21    C     0.14320   0.78350   0.80520   0.01267  Uiso   1.00
C22    C     0.56930   0.65450   0.63680   0.01267  Uiso   1.00
C23    C     0.66300   0.57660   0.20360   0.01267  Uiso   1.00
C24    C     0.32520   0.67670   0.32020   0.01267  Uiso   1.00
C25    C     0.98990   0.94310   0.68230   0.01267  Uiso   1.00
C26    C     0.86140   0.04900   0.32460   0.01267  Uiso   1.00
C27    C     0.41080   0.39540   0.56850   0.01267  Uiso   1.00
C28    C     0.28460   0.26600   0.29200   0.01267  Uiso   1.00
C29    C     0.27530   0.72360   0.08710   0.01267  Uiso   1.00
C30    C     0.24490   0.50920   0.30650   0.01267  Uiso   1.00
C31    C     0.82140   0.65490   0.57120   0.01267  Uiso   1.00
C32    C     0.13860   0.95100   0.67540   0.01267  Uiso   1.00
C33    C     0.04950   0.14840   0.31940   0.01267  Uiso   1.00
C34    C     0.71640   0.49210   0.82770   0.01267  Uiso   1.00
C35    C     0.41330   0.32630   0.59040   0.01267  Uiso   1.00
C36    C     0.64240   0.10190   0.04260   0.01267  Uiso   1.00
C37    C     0.68840   0.51120   0.18410   0.01267  Uiso   1.00
C38    C     0.77550   0.48110   0.86840   0.01267  Uiso   1.00
C39    C     0.33860   0.59530   0.39080   0.01267  Uiso   1.00
C40    C     0.67480   0.32330   0.67980   0.01267  Uiso   1.00
C41    C     0.04650   0.62360   0.77260   0.01267  Uiso   1.00
C42    C     0.29170   0.54600   0.78800   0.01267  Uiso   1.00
C43    C     0.32840   0.76250   0.14040   0.01267  Uiso   1.00
C44    C     0.58920   0.60460   0.43150   0.01267  Uiso   1.00
C45    C     0.89740   0.76880   0.51780   0.01267  Uiso   1.00
C46    C     0.76820   0.97390   0.68090   0.01267  Uiso   1.00
C47    C     0.33700   0.42340   0.79640   0.01267  Uiso   1.00
C48    C     0.22450   0.51890   0.13160   0.01267  Uiso   1.00
C49    C     0.58670   0.67370   0.40960   0.01267  Uiso   1.00
C50    C     0.56020   0.65190   0.72050   0.01267  Uiso   1.00
C51    C     0.27850   0.67620   0.00460   0.01267  Uiso   1.00
C52    C     0.17790   0.21010   0.28110   0.01267  Uiso   1.00
C53    C     0.66140   0.40470   0.60920   0.01267  Uiso   1.00
C54    C     0.04620   0.54920   0.24200   0.01267  Uiso   1.00
C55    C     0.24340   0.00440   0.67600   0.01267  Uiso   1.00
C56    C     0.12300   0.45810   0.10960   0.01267  Uiso   1.00
C57    C     0.17210   0.67880   0.06740   0.01267  Uiso   1.00
C58    C     0.82450   0.36670   0.01430   0.01267  Uiso   1.00
C59    C     0.08750   0.15080   0.49510   0.01267  Uiso   1.00
C60    C     0.56650   0.90900   0.65510   0.01267  Uiso   1.00
C61    C     0.67780   0.48090   0.58970   0.01267  Uiso   1.00
C62    C     0.40730   0.39590   0.51780   0.01267  Uiso   1.00
C63    C     0.90080   0.16560   0.19010   0.01267  Uiso   1.00
C64    C     0.29700   0.81480   0.92570   0.01267  Uiso   1.00
C65    C     0.71070   0.93990   0.19910   0.01267  Uiso   1.00
C66    C     0.95050   0.85160   0.68060   0.01267  Uiso   1.00
C67    C     0.71950   0.08970   0.20470   0.01267  Uiso   1.00
C68    C     0.41430   0.25800   0.56310   0.01267  Uiso   1.00
C69    C     0.32220   0.51910   0.41030   0.01267  Uiso   1.00
C70    C     0.95350   0.37640   0.22740   0.01267  Uiso   1.00
C71    C     0.12390   0.63730   0.01670   0.01267  Uiso   1.00
C72    C     0.46730   0.36070   0.41990   0.01267  Uiso   1.00
C73    C     0.02600   0.61050   0.16620   0.01267  Uiso   1.00
C74    C     0.70830   0.45400   0.21200   0.01267  Uiso   1.00
C75    C     0.53270   0.63930   0.58010   0.01267  Uiso   1.00
C76    C     0.78570   0.09910   0.03390   0.01267  Uiso   1.00
C77    C     0.28050   0.91030   0.79530   0.01267  Uiso   1.00
C78    C     0.63240   0.98650   0.69210   0.01267  Uiso   1.00
C79    C     0.59270   0.60410   0.48220   0.01267  Uiso   1.00
C80    C     0.21430   0.90090   0.96610   0.01267  Uiso   1.00
C81    C     0.85680   0.21650   0.19480   0.01267  Uiso   1.00
C82    C     0.75660   0.99560   0.32400   0.01267  Uiso   1.00
C83    C     0.95070   0.24250   0.08050   0.01267  Uiso   1.00
C84    C     0.48630   0.37540   0.33110   0.01267  Uiso   1.00
C85    C     0.91250   0.84920   0.50490   0.01267  Uiso   1.00
C86    C     0.30260   0.59220   0.34020   0.01267  Uiso   1.00
C87    C     0.71540   0.73400   0.70800   0.01267  Uiso   1.00
C88    C     0.70230   0.89820   0.64030   0.01267  Uiso   1.00
C89    C     0.91590   0.00870   0.32010   0.01267  Uiso   1.00
C90    C     0.67160   0.23750   0.85960   0.01267  Uiso   1.00
C91    C     0.33980   0.29530   0.25990   0.01267  Uiso   1.00
C92    C     0.74250   0.56630   0.62310   0.01267  Uiso   1.00
C93    C     0.30670   0.49360   0.86530   0.01267  Uiso   1.00
C94    C     0.35760   0.89810   0.95740   0.01267  Uiso   1.00
C95    C     0.98670   0.46360   0.21110   0.01267  Uiso   1.00
C96    C     0.21690   0.09140   0.41800   0.01267  Uiso   1.00
C97    C     0.00680   0.80880   0.67700   0.01267  Uiso   1.00
C98    C     0.28930   0.06010   0.80090   0.01267  Uiso   1.00
C99    C     0.96940   0.52340   0.13840   0.01267  Uiso   1.00
C100   C     0.57970   0.67330   0.35430   0.01267  Uiso   1.00
C101   C     0.59390   0.67350   0.51050   0.01267  Uiso   1.00
C102   C     0.01010   0.05690   0.31770   0.01267  Uiso   1.00
C103   C     0.23180   0.02610   0.31910   0.01267  Uiso   1.00
C104   C     0.22390   0.43070   0.32550   0.01267  Uiso   1.00
C105   C     0.72150   0.32380   0.99540   0.01267  Uiso   1.00
C106   C     0.17550   0.63330   0.98570   0.01267  Uiso   1.00
C107   C     0.72800   0.39240   0.19150   0.01267  Uiso   1.00
C108   C     0.31670   0.94360   0.97740   0.01267  Uiso   1.00
C109   C     0.75710   0.56970   0.80890   0.01267  Uiso   1.00
C110   C     0.76650   0.18030   0.20260   0.01267  Uiso   1.00
C111   C     0.82880   0.86660   0.55660   0.01267  Uiso   1.00
C112   C     0.08450   0.38350   0.13020   0.01267  Uiso   1.00
C113   C     0.17120   0.13340   0.44340   0.01267  Uiso   1.00
C114   C     0.84680   0.74070   0.55220   0.01267  Uiso   1.00
C115   C     0.14790   0.92330   0.80810   0.01267  Uiso   1.00
C116   C     0.88050   0.90020   0.52500   0.01267  Uiso   1.00
C117   C     0.43350   0.09100   0.34490   0.01267  Uiso   1.00
C118   C     0.84220   0.18660   0.06470   0.01267  Uiso   1.00
C119   C     0.10260   0.23120   0.48220   0.01267  Uiso   1.00
C120   C     0.15320   0.25930   0.44780   0.01267  Uiso   1.00
C121   C     0.60240   0.86580   0.62990   0.01267  Uiso   1.00
C122   C     0.76230   0.03810   0.19800   0.01267  Uiso   1.00
C123   C     0.40610   0.32650   0.48950   0.01267  Uiso   1.00
C124   C     0.38970   0.57750   0.19570   0.01267  Uiso   1.00
C125   C     0.42030   0.32670   0.64570   0.01267  Uiso   1.00
C126   C     0.09920   0.83440   0.80990   0.01267  Uiso   1.00
C127   C     0.99320   0.19120   0.32300   0.01267  Uiso   1.00
C128   C     0.06500   0.62010   0.21750   0.01267  Uiso   1.00
C129   C     0.97400   0.38950   0.83380   0.01267  Uiso   1.00
C130   C     0.03060   0.47660   0.86160   0.01267  Uiso   1.00
C131   C     0.26780   0.98260   0.29680   0.01267  Uiso   1.00
C132   C     0.43070   0.34550   0.36320   0.01267  Uiso   1.00
C133   C     0.28360   0.50790   0.17230   0.01267  Uiso   1.00
C134   C     0.82210   0.78990   0.71890   0.01267  Uiso   1.00
C135   C     0.67570   0.28190   0.94430   0.01267  Uiso   1.00
C136   C     0.59180   0.74420   0.48710   0.01267  Uiso   1.00
C137   C     0.87610   0.36270   0.98330   0.01267  Uiso   1.00
C138   C     0.39760   0.13420   0.37010   0.01267  Uiso   1.00
C139   C     0.51370   0.62460   0.66890   0.01267  Uiso   1.00
C140   C     0.32430   0.71810   0.05570   0.01267  Uiso   1.00
C141   C     0.91550   0.61650   0.86980   0.01267  Uiso   1.00
C142   C     0.17860   0.34510   0.42880   0.01267  Uiso   1.00
C143   C     0.75510   0.49080   0.69350   0.01267  Uiso   1.00
C144   C     0.24290   0.43030   0.19110   0.01267  Uiso   1.00
C145   C     0.95380   0.45080   0.75800   0.01267  Uiso   1.00
C146   C     0.08120   0.50490   0.91930   0.01267  Uiso   1.00
C147   C     0.61030   0.42250   0.80430   0.01267  Uiso   1.00
C148   C     0.69740   0.40780   0.65980   0.01267  Uiso   1.00
C149   C     0.14490   0.37040   0.17090   0.01267  Uiso   1.00
C150   C     0.68330   0.05640   0.02260   0.01267  Uiso   1.00
C151   C     0.28180   0.55360   0.88350   0.01267  Uiso   1.00
C152   C     0.77610   0.56930   0.67450   0.01267  Uiso   1.00
C153   C     0.73220   0.01740   0.70320   0.01267  Uiso   1.00
C154   C     0.90050   0.14060   0.32510   0.01267  Uiso   1.00
C155   C     0.93500   0.37990   0.78250   0.01267  Uiso   1.00
C156   C     0.29770   0.10180   0.35970   0.01267  Uiso   1.00
C157   C     0.72470   0.27640   0.91290   0.01267  Uiso   1.00
C158   C     0.91880   0.49510   0.08070   0.01267  Uiso   1.00
C159   C     0.85210   0.07670   0.19190   0.01267  Uiso   1.00
C160   C     0.59760   0.04380   0.71360   0.01267  Uiso   1.00
C161   C     0.70300   0.18520   0.07430   0.01267  Uiso   1.00
C162   C     0.01330   0.53640   0.78890   0.01267  Uiso   1.00
C163   C     0.15780   0.81340   0.93530   0.01267  Uiso   1.00
C164   C     0.36760   0.01350   0.30790   0.01267  Uiso   1.00
C165   C     0.31160   0.48880   0.81590   0.01267  Uiso   1.00
C166   C     0.23350   0.81970   0.79740   0.01267  Uiso   1.00
C167   C     0.27110   0.61580   0.85670   0.01267  Uiso   1.00
C168   C     0.69330   0.50640   0.13470   0.01267  Uiso   1.00
N1     N     0.77070   0.64620   0.60290   0.01267  Uiso   1.00
N2     N     0.18510   0.21000   0.42980   0.01267  Uiso   1.00
N3     N     0.81490   0.79000   0.57020   0.01267  Uiso   1.00
N4     N     0.09840   0.69160   0.81160   0.01267  Uiso   1.00
N5     N     0.87490   0.40770   0.06800   0.01267  Uiso   1.00
N6     N     0.12510   0.59230   0.93200   0.01267  Uiso   1.00
N7     N     0.84900   0.79890   0.67800   0.01267  Uiso   1.00
N8     N     0.26060   0.14090   0.38820   0.01267  Uiso   1.00
N9     N     0.15100   0.20110   0.32200   0.01267  Uiso   1.00
N10    N     0.33300   0.29420   0.34330   0.01267  Uiso   1.00
N11    N     0.04690   0.54530   0.83850   0.01267  Uiso   1.00
N12    N     0.25170   0.67830   0.87840   0.01267  Uiso   1.00
N13    N     0.39040   0.32020   0.43760   0.01267  Uiso   1.00
N14    N     0.73940   0.85910   0.61180   0.01267  Uiso   1.00
N15    N     0.20150   0.77520   0.91760   0.01267  Uiso   1.00
N16    N     0.60960   0.67980   0.56240   0.01267  Uiso   1.00
N17    N     0.90160   0.30840   0.18840   0.01267  Uiso   1.00
N18    N     0.98230   0.32150   0.10910   0.01267  Uiso   1.00
N19    N     0.95310   0.45470   0.16150   0.01267  Uiso   1.00
N20    N     0.01770   0.67850   0.89090   0.01267  Uiso   1.00
N21    N     0.22930   0.35380   0.39710   0.01267  Uiso   1.00
N22    N     0.74830   0.32170   0.12160   0.01267  Uiso   1.00
N23    N     0.79850   0.22480   0.08240   0.01267  Uiso   1.00
N24    N     0.66700   0.70580   0.65670   0.01267  Uiso   1.00
O1     O     0.45640   0.28590   0.66960   0.01267  Uiso   1.00
O2     O     0.02690   0.62900   0.72650   0.01267  Uiso   1.00
O3     O     0.27670   0.08650   0.67540   0.01267  Uiso   1.00
O4     O     0.34770   0.42650   0.75310   0.01267  Uiso   1.00
O5     O     0.97310   0.37100   0.27350   0.01267  Uiso   1.00
O6     O     0.27810   0.74440   0.17110   0.01267  Uiso   1.00
O7     O     0.49490   0.99300   0.29260   0.01267  Uiso   1.00
O8     O     0.50510   0.00700   0.70740   0.01267  Uiso   1.00
O9     O     0.41430   0.65360   0.18620   0.01267  Uiso   1.00
O10    O     0.33750   0.87630   0.26580   0.01267  Uiso   1.00
O11    O     0.78900   0.98210   0.57290   0.01267  Uiso   1.00
O12    O     0.44570   0.59960   0.55410   0.01267  Uiso   1.00
O13    O     0.57900   0.18980   0.84360   0.01267  Uiso   1.00
O14    O     0.54360   0.71410   0.33040   0.01267  Uiso   1.00
O15    O     0.49700   0.81340   0.26740   0.01267  Uiso   1.00
O16    O     0.21100   0.01790   0.42710   0.01267  Uiso   1.00
O17    O     0.58390   0.21750   0.09140   0.01267  Uiso   1.00
O18    O     0.29350   0.96720   0.67670   0.01267  Uiso   1.00
O19    O     0.72190   0.25560   0.82890   0.01267  Uiso   1.00
O20    O     0.58570   0.34640   0.81380   0.01267  Uiso   1.00
O21    O     0.24610   0.10310   0.80550   0.01267  Uiso   1.00
O22    O     0.64880   0.62760   0.17620   0.01267  Uiso   1.00
O23    O     0.61070   0.62800   0.33580   0.01267  Uiso   1.00
O24    O     0.62400   0.90740   0.20380   0.01267  Uiso   1.00
O25    O     0.63150   0.25120   0.64980   0.01267  Uiso   1.00
O26    O     0.41610   0.78250   0.90860   0.01267  Uiso   1.00
O27    O     0.99310   0.78230   0.93070   0.01267  Uiso   1.00
O28    O     0.36150   0.24490   0.75500   0.01267  Uiso   1.00
O29    O     0.00690   0.21770   0.06930   0.01267  Uiso   1.00
O30    O     0.37600   0.09260   0.79620   0.01267  Uiso   1.00
O31    O     0.42100   0.81020   0.15640   0.01267  Uiso   1.00
O32    O     0.44660   0.55250   0.22380   0.01267  Uiso   1.00
O33    O     0.70650   0.03280   0.32330   0.01267  Uiso   1.00
O34    O     0.07540   0.44710   0.94610   0.01267  Uiso   1.00
O35    O     0.66250   0.12370   0.73420   0.01267  Uiso   1.00
O36    O     0.55340   0.44750   0.77620   0.01267  Uiso   1.00
O37    O     0.63850   0.75510   0.24500   0.01267  Uiso   1.00
O38    O     0.36850   0.74880   0.35020   0.01267  Uiso   1.00
O39    O     0.55430   0.40040   0.44590   0.01267  Uiso   1.00
O40    O     0.50300   0.18660   0.73260   0.01267  Uiso   1.00
O41    O     0.92460   0.55290   0.05390   0.01267  Uiso   1.00
O42    O     0.70040   0.33180   0.72770   0.01267  Uiso   1.00
O43    O     0.72330   0.91350   0.32460   0.01267  Uiso   1.00
O44    O     0.88000   0.82470   0.76490   0.01267  Uiso   1.00
O45    O     0.29960   0.66820   0.27230   0.01267  Uiso   1.00
O46    O     0.14970   0.39790   0.44120   0.01267  Uiso   1.00
O47    O     0.12000   0.17530   0.23510   0.01267  Uiso   1.00
O48    O     0.75390   0.89690   0.19450   0.01267  Uiso   1.00
O49    O     0.65230   0.57350   0.24690   0.01267  Uiso   1.00
O50    O     0.35120   0.37240   0.82380   0.01267  Uiso   1.00
O51    O     0.38930   0.37200   0.66420   0.01267  Uiso   1.00
O52    O     0.85030   0.60210   0.55880   0.01267  Uiso   1.00
