data_BIQHEQ_clean
_audit_creation_date              2015-10-16
_audit_creation_method            'Materials Studio'
_symmetry_space_group_name_H-M    'P1'
_symmetry_Int_Tables_number       1
_symmetry_cell_setting            triclinic
loop_
_symmetry_equiv_pos_as_xyz
  x,y,z
_cell_length_a                    11.4998
_cell_length_b                    15.8354
_cell_length_c                    17.5204
_cell_angle_alpha                 90.0000
_cell_angle_beta                  90.0000
_cell_angle_gamma                 90.0000
loop_
_atom_site_label
_atom_site_type_symbol
_atom_site_fract_x
_atom_site_fract_y
_atom_site_fract_z
_atom_site_U_iso_or_equiv
_atom_site_adp_type
_atom_site_occupancy
Zn1    Zn    0.00000   0.89205   0.33270   0.01267  Uiso   1.00
Zn2    Zn    0.00000   0.39205   0.16730   0.01267  Uiso   1.00
Zn3    Zn    0.00000   0.60795   0.83270   0.01267  Uiso   1.00
Zn4    Zn    0.00000   0.00000   0.00000   0.01267  Uiso   1.00
Zn5    Zn    0.00000   0.50000   0.50000   0.01267  Uiso   1.00
Zn6    Zn    0.00000   0.10795   0.66730   0.01267  Uiso   1.00
Fe1    Fe    0.00000   0.19827   0.39143   0.01267  Uiso   1.00
Fe2    Fe    0.00000   0.69827   0.10857   0.01267  Uiso   1.00
Fe3    Fe    0.00000   0.80173   0.60857   0.01267  Uiso   1.00
Fe4    Fe    0.00000   0.30173   0.89143   0.01267  Uiso   1.00
H1     H     0.41220   0.16200   0.77300   0.01267  Uiso   1.00
H2     H     0.58780   0.33800   0.27300   0.01267  Uiso   1.00
H3     H     0.21000   0.96840   0.41580   0.01267  Uiso   1.00
H4     H     0.21110   0.93610   0.09390   0.01267  Uiso   1.00
H5     H     0.78890   0.43610   0.40610   0.01267  Uiso   1.00
H6     H     0.21000   0.53160   0.91580   0.01267  Uiso   1.00
H7     H     0.79000   0.96840   0.41580   0.01267  Uiso   1.00
H8     H     0.58780   0.66200   0.72700   0.01267  Uiso   1.00
H9     H     0.78640   0.33180   0.26710   0.01267  Uiso   1.00
H10    H     0.78890   0.56390   0.59390   0.01267  Uiso   1.00
H11    H     0.41220   0.83800   0.22700   0.01267  Uiso   1.00
H12    H     0.40920   0.56480   0.59740   0.01267  Uiso   1.00
H13    H     0.78640   0.83180   0.23290   0.01267  Uiso   1.00
H14    H     0.59080   0.06480   0.90260   0.01267  Uiso   1.00
H15    H     0.59080   0.93520   0.09740   0.01267  Uiso   1.00
H16    H     0.78640   0.16820   0.76710   0.01267  Uiso   1.00
H17    H     0.41220   0.66200   0.72700   0.01267  Uiso   1.00
H18    H     0.78890   0.93610   0.09390   0.01267  Uiso   1.00
H19    H     0.59240   0.97910   0.41490   0.01267  Uiso   1.00
H20    H     0.21000   0.46840   0.08420   0.01267  Uiso   1.00
H21    H     0.21110   0.06390   0.90610   0.01267  Uiso   1.00
H22    H     0.21110   0.43610   0.40610   0.01267  Uiso   1.00
H23    H     0.21000   0.03160   0.58420   0.01267  Uiso   1.00
H24    H     0.59080   0.43520   0.40260   0.01267  Uiso   1.00
H25    H     0.59240   0.47910   0.08510   0.01267  Uiso   1.00
H26    H     0.79000   0.53160   0.91580   0.01267  Uiso   1.00
H27    H     0.40760   0.02090   0.58510   0.01267  Uiso   1.00
H28    H     0.21360   0.16820   0.76710   0.01267  Uiso   1.00
H29    H     0.21360   0.66820   0.73290   0.01267  Uiso   1.00
H30    H     0.21360   0.83180   0.23290   0.01267  Uiso   1.00
H31    H     0.59080   0.56480   0.59740   0.01267  Uiso   1.00
H32    H     0.59240   0.52090   0.91490   0.01267  Uiso   1.00
H33    H     0.40760   0.47910   0.08510   0.01267  Uiso   1.00
H34    H     0.79000   0.03160   0.58420   0.01267  Uiso   1.00
H35    H     0.58780   0.16200   0.77300   0.01267  Uiso   1.00
H36    H     0.40760   0.97910   0.41490   0.01267  Uiso   1.00
H37    H     0.79000   0.46840   0.08420   0.01267  Uiso   1.00
H38    H     0.21110   0.56390   0.59390   0.01267  Uiso   1.00
H39    H     0.59240   0.02090   0.58510   0.01267  Uiso   1.00
H40    H     0.21360   0.33180   0.26710   0.01267  Uiso   1.00
H41    H     0.40920   0.06480   0.90260   0.01267  Uiso   1.00
H42    H     0.41220   0.33800   0.27300   0.01267  Uiso   1.00
H43    H     0.58780   0.83800   0.22700   0.01267  Uiso   1.00
H44    H     0.40920   0.43520   0.40260   0.01267  Uiso   1.00
H45    H     0.40760   0.52090   0.91490   0.01267  Uiso   1.00
H46    H     0.78890   0.06390   0.90610   0.01267  Uiso   1.00
H47    H     0.40920   0.93520   0.09740   0.01267  Uiso   1.00
H48    H     0.78640   0.66820   0.73290   0.01267  Uiso   1.00
C1     C     0.56430   0.50000   0.50000   0.01267  Uiso   1.00
C2     C     0.62960   0.44760   0.12270   0.01267  Uiso   1.00
C3     C     0.37320   0.86470   0.26670   0.01267  Uiso   1.00
C4     C     0.43480   0.90760   0.32170   0.01267  Uiso   1.00
C5     C     0.62680   0.86470   0.26670   0.01267  Uiso   1.00
C6     C     0.00000   0.65280   0.00680   0.01267  Uiso   1.00
C7     C     0.25320   0.86150   0.27060   0.01267  Uiso   1.00
C8     C     0.17000   0.30200   0.89360   0.01267  Uiso   1.00
C9     C     0.00000   0.68990   0.56660   0.01267  Uiso   1.00
C10    C     0.62860   0.03820   0.94280   0.01267  Uiso   1.00
C11    C     0.25090   0.05880   0.62290   0.01267  Uiso   1.00
C12    C     0.25140   0.03700   0.94520   0.01267  Uiso   1.00
C13    C     0.00000   0.15280   0.49320   0.01267  Uiso   1.00
C14    C     0.37320   0.36470   0.23330   0.01267  Uiso   1.00
C15    C     0.37140   0.03820   0.94280   0.01267  Uiso   1.00
C16    C     0.25320   0.13850   0.72940   0.01267  Uiso   1.00
C17    C     0.74860   0.53700   0.55480   0.01267  Uiso   1.00
C18    C     0.62680   0.13530   0.73330   0.01267  Uiso   1.00
C19    C     0.74910   0.44120   0.12290   0.01267  Uiso   1.00
C20    C     0.62680   0.63530   0.76670   0.01267  Uiso   1.00
C21    C     0.43570   0.50000   0.50000   0.01267  Uiso   1.00
C22    C     0.37040   0.44760   0.12270   0.01267  Uiso   1.00
C23    C     0.25320   0.36150   0.22940   0.01267  Uiso   1.00
C24    C     0.25140   0.46300   0.44520   0.01267  Uiso   1.00
C25    C     0.17000   0.19800   0.39360   0.01267  Uiso   1.00
C26    C     0.56430   0.00000   0.00000   0.01267  Uiso   1.00
C27    C     0.83000   0.80200   0.60640   0.01267  Uiso   1.00
C28    C     0.62960   0.55240   0.87730   0.01267  Uiso   1.00
C29    C     0.37040   0.05240   0.62270   0.01267  Uiso   1.00
C30    C     0.00000   0.41360   0.84790   0.01267  Uiso   1.00
C31    C     0.43480   0.09240   0.67830   0.01267  Uiso   1.00
C32    C     0.43480   0.40760   0.17830   0.01267  Uiso   1.00
C33    C     0.00000   0.58640   0.15210   0.01267  Uiso   1.00
C34    C     0.43570   0.00000   0.00000   0.01267  Uiso   1.00
C35    C     0.74910   0.55880   0.87710   0.01267  Uiso   1.00
C36    C     0.00000   0.31010   0.43340   0.01267  Uiso   1.00
C37    C     0.74910   0.05880   0.62290   0.01267  Uiso   1.00
C38    C     0.74860   0.46300   0.44520   0.01267  Uiso   1.00
C39    C     0.43480   0.59240   0.82170   0.01267  Uiso   1.00
C40    C     0.74860   0.96300   0.05480   0.01267  Uiso   1.00
C41    C     0.74680   0.63850   0.77060   0.01267  Uiso   1.00
C42    C     0.17000   0.80200   0.60640   0.01267  Uiso   1.00
C43    C     0.74910   0.94120   0.37710   0.01267  Uiso   1.00
C44    C     0.37140   0.96180   0.05720   0.01267  Uiso   1.00
C45    C     0.37320   0.63530   0.76670   0.01267  Uiso   1.00
C46    C     0.37040   0.94760   0.37730   0.01267  Uiso   1.00
C47    C     0.00000   0.08640   0.34790   0.01267  Uiso   1.00
C48    C     0.00000   0.84720   0.50680   0.01267  Uiso   1.00
C49    C     0.00000   0.24570   0.79430   0.01267  Uiso   1.00
C50    C     0.62860   0.46180   0.44280   0.01267  Uiso   1.00
C51    C     0.25140   0.53700   0.55480   0.01267  Uiso   1.00
C52    C     0.74680   0.36150   0.22940   0.01267  Uiso   1.00
C53    C     0.74860   0.03700   0.94520   0.01267  Uiso   1.00
C54    C     0.62960   0.94760   0.37730   0.01267  Uiso   1.00
C55    C     0.62860   0.53820   0.55720   0.01267  Uiso   1.00
C56    C     0.62960   0.05240   0.62270   0.01267  Uiso   1.00
C57    C     0.25090   0.55880   0.87710   0.01267  Uiso   1.00
C58    C     0.00000   0.34720   0.99320   0.01267  Uiso   1.00
C59    C     0.56520   0.09240   0.67830   0.01267  Uiso   1.00
C60    C     0.56520   0.90760   0.32170   0.01267  Uiso   1.00
C61    C     0.83000   0.19800   0.39360   0.01267  Uiso   1.00
C62    C     0.37140   0.53820   0.55720   0.01267  Uiso   1.00
C63    C     0.74680   0.13850   0.72940   0.01267  Uiso   1.00
C64    C     0.56520   0.40760   0.17830   0.01267  Uiso   1.00
C65    C     0.25140   0.96300   0.05480   0.01267  Uiso   1.00
C66    C     0.56520   0.59240   0.82170   0.01267  Uiso   1.00
C67    C     0.25090   0.44120   0.12290   0.01267  Uiso   1.00
C68    C     0.17000   0.69800   0.10640   0.01267  Uiso   1.00
C69    C     0.00000   0.18990   0.93340   0.01267  Uiso   1.00
C70    C     0.00000   0.75430   0.20570   0.01267  Uiso   1.00
C71    C     0.25320   0.63850   0.77060   0.01267  Uiso   1.00
C72    C     0.25090   0.94120   0.37710   0.01267  Uiso   1.00
C73    C     0.00000   0.91360   0.65210   0.01267  Uiso   1.00
C74    C     0.37040   0.55240   0.87730   0.01267  Uiso   1.00
C75    C     0.00000   0.25430   0.29430   0.01267  Uiso   1.00
C76    C     0.37320   0.13530   0.73330   0.01267  Uiso   1.00
C77    C     0.74680   0.86150   0.27060   0.01267  Uiso   1.00
C78    C     0.00000   0.74570   0.70570   0.01267  Uiso   1.00
C79    C     0.62860   0.96180   0.05720   0.01267  Uiso   1.00
C80    C     0.83000   0.69800   0.10640   0.01267  Uiso   1.00
C81    C     0.37140   0.46180   0.44280   0.01267  Uiso   1.00
C82    C     0.00000   0.81010   0.06660   0.01267  Uiso   1.00
C83    C     0.62680   0.36470   0.23330   0.01267  Uiso   1.00
C84    C     0.83000   0.30200   0.89360   0.01267  Uiso   1.00
N1     N     0.00000   0.48080   0.82310   0.01267  Uiso   1.00
N2     N     0.80930   0.60127   0.82561   0.01267  Uiso   1.00
N3     N     0.72950   0.30290   0.89690   0.01267  Uiso   1.00
N4     N     0.27050   0.80290   0.60310   0.01267  Uiso   1.00
N5     N     0.27050   0.30290   0.89690   0.01267  Uiso   1.00
N6     N     0.00000   0.01920   0.32310   0.01267  Uiso   1.00
N7     N     0.00000   0.51920   0.17690   0.01267  Uiso   1.00
N8     N     0.00000   0.86840   0.44390   0.01267  Uiso   1.00
N9     N     0.80970   0.50000   0.50000   0.01267  Uiso   1.00
N10    N     0.80930   0.39873   0.17439   0.01267  Uiso   1.00
N11    N     0.00000   0.29590   0.24070   0.01267  Uiso   1.00
N12    N     0.19070   0.10127   0.67439   0.01267  Uiso   1.00
N13    N     0.72950   0.80290   0.60310   0.01267  Uiso   1.00
N14    N     0.00000   0.87840   0.04480   0.01267  Uiso   1.00
N15    N     0.00000   0.36840   0.05610   0.01267  Uiso   1.00
N16    N     0.19070   0.39873   0.17439   0.01267  Uiso   1.00
N17    N     0.00000   0.79590   0.25930   0.01267  Uiso   1.00
N18    N     0.72950   0.19710   0.39690   0.01267  Uiso   1.00
N19    N     0.27050   0.69710   0.10310   0.01267  Uiso   1.00
N20    N     0.00000   0.37840   0.45520   0.01267  Uiso   1.00
N21    N     0.00000   0.98080   0.67690   0.01267  Uiso   1.00
N22    N     0.19030   0.50000   0.50000   0.01267  Uiso   1.00
N23    N     0.80970   0.00000   0.00000   0.01267  Uiso   1.00
N24    N     0.00000   0.63160   0.94390   0.01267  Uiso   1.00
N25    N     0.00000   0.62160   0.54480   0.01267  Uiso   1.00
N26    N     0.00000   0.20410   0.74070   0.01267  Uiso   1.00
N27    N     0.72950   0.69710   0.10310   0.01267  Uiso   1.00
N28    N     0.80930   0.89873   0.32561   0.01267  Uiso   1.00
N29    N     0.19070   0.60127   0.82561   0.01267  Uiso   1.00
N30    N     0.00000   0.70410   0.75930   0.01267  Uiso   1.00
N31    N     0.27050   0.19710   0.39690   0.01267  Uiso   1.00
N32    N     0.80930   0.10127   0.67439   0.01267  Uiso   1.00
N33    N     0.00000   0.13160   0.55610   0.01267  Uiso   1.00
N34    N     0.19030   0.00000   0.00000   0.01267  Uiso   1.00
N35    N     0.00000   0.12160   0.95520   0.01267  Uiso   1.00
N36    N     0.19070   0.89873   0.32561   0.01267  Uiso   1.00
