data_BIQVII_clean
_audit_creation_date              2015-10-16
_audit_creation_method            'Materials Studio'
_symmetry_space_group_name_H-M    'P1'
_symmetry_Int_Tables_number       1
_symmetry_cell_setting            triclinic
loop_
_symmetry_equiv_pos_as_xyz
  x,y,z
_cell_length_a                    10.1440
_cell_length_b                    15.5263
_cell_length_c                    18.0280
_cell_angle_alpha                 103.4220
_cell_angle_beta                  90.0000
_cell_angle_gamma                 109.0670
loop_
_atom_site_label
_atom_site_type_symbol
_atom_site_fract_x
_atom_site_fract_y
_atom_site_fract_z
_atom_site_U_iso_or_equiv
_atom_site_adp_type
_atom_site_occupancy
Ce1    Ce    0.86979   0.99326   0.11886   0.01267  Uiso   1.00
Ce2    Ce    0.12347   0.99326   0.61886   0.01267  Uiso   1.00
Ce3    Ce    0.13021   0.00674   0.88114   0.01267  Uiso   1.00
Ce4    Ce    0.87653   0.00674   0.38114   0.01267  Uiso   1.00
H1     H     0.27820   0.30620   0.89430   0.01267  Uiso   1.00
H2     H     0.02800   0.30620   0.39430   0.01267  Uiso   1.00
H3     H     0.20040   0.27840   0.51060   0.01267  Uiso   1.00
H4     H     0.12890   0.70880   0.17520   0.01267  Uiso   1.00
H5     H     0.97200   0.69380   0.60570   0.01267  Uiso   1.00
H6     H     0.07280   0.26880   0.70860   0.01267  Uiso   1.00
H7     H     0.07800   0.27840   0.01060   0.01267  Uiso   1.00
H8     H     0.85490   0.24360   0.51260   0.01267  Uiso   1.00
H9     H     0.80400   0.73120   0.79140   0.01267  Uiso   1.00
H10    H     0.72180   0.69380   0.10570   0.01267  Uiso   1.00
H11    H     0.38870   0.24360   0.01260   0.01267  Uiso   1.00
H12    H     0.98580   0.04620   0.76030   0.01267  Uiso   1.00
H13    H     0.42010   0.29120   0.32480   0.01267  Uiso   1.00
H14    H     0.17230   0.71800   0.80590   0.01267  Uiso   1.00
H15    H     0.92200   0.72160   0.98940   0.01267  Uiso   1.00
H16    H     0.61130   0.75640   0.98740   0.01267  Uiso   1.00
H17    H     0.14510   0.75640   0.48740   0.01267  Uiso   1.00
H18    H     0.93960   0.95380   0.73970   0.01267  Uiso   1.00
H19    H     0.82770   0.28200   0.19410   0.01267  Uiso   1.00
H20    H     0.79960   0.72160   0.48940   0.01267  Uiso   1.00
H21    H     0.87110   0.29120   0.82480   0.01267  Uiso   1.00
H22    H     0.01420   0.95380   0.23970   0.01267  Uiso   1.00
H23    H     0.54570   0.71800   0.30590   0.01267  Uiso   1.00
H24    H     0.19600   0.26880   0.20860   0.01267  Uiso   1.00
H25    H     0.92720   0.73120   0.29140   0.01267  Uiso   1.00
H26    H     0.45430   0.28200   0.69410   0.01267  Uiso   1.00
H27    H     0.06040   0.04620   0.26030   0.01267  Uiso   1.00
H28    H     0.57990   0.70880   0.67520   0.01267  Uiso   1.00
C1     C     0.35838   0.27836   0.79186   0.01267  Uiso   1.00
C2     C     0.59590   0.68080   0.62610   0.01267  Uiso   1.00
C3     C     0.64162   0.72164   0.20814   0.01267  Uiso   1.00
C4     C     0.08002   0.72164   0.70814   0.01267  Uiso   1.00
C5     C     0.90773   0.41626   0.25754   0.01267  Uiso   1.00
C6     C     0.27102   0.31184   0.48493   0.01267  Uiso   1.00
C7     C     0.51479   0.52818   0.17419   0.01267  Uiso   1.00
C8     C     0.27834   0.24128   0.10642   0.01267  Uiso   1.00
C9     C     0.50853   0.41626   0.75754   0.01267  Uiso   1.00
C10    C     0.70356   0.82672   0.22200   0.01267  Uiso   1.00
C11    C     0.05182   0.40304   0.01888   0.01267  Uiso   1.00
C12    C     0.72166   0.75872   0.89358   0.01267  Uiso   1.00
C13    C     0.03138   0.82776   0.12920   0.01267  Uiso   1.00
C14    C     0.65859   0.61098   0.80140   0.01267  Uiso   1.00
C15    C     0.60189   0.46418   0.37150   0.01267  Uiso   1.00
C16    C     0.95918   0.68816   0.01507   0.01267  Uiso   1.00
C17    C     0.98972   0.42924   0.65213   0.01267  Uiso   1.00
C18    C     0.91526   0.37512   0.58280   0.01267  Uiso   1.00
C19    C     0.72898   0.68816   0.51507   0.01267  Uiso   1.00
C20    C     0.95696   0.13992   0.57990   0.01267  Uiso   1.00
C21    C     0.26097   0.29554   0.17694   0.01267  Uiso   1.00
C22    C     0.12298   0.68076   0.75975   0.01267  Uiso   1.00
C23    C     0.73903   0.70446   0.82306   0.01267  Uiso   1.00
C24    C     0.60704   0.46208   0.70768   0.01267  Uiso   1.00
C25    C     0.35122   0.40304   0.51888   0.01267  Uiso   1.00
C26    C     0.08474   0.62488   0.41720   0.01267  Uiso   1.00
C27    C     0.33464   0.33388   0.85975   0.01267  Uiso   1.00
C28    C     0.45905   0.45250   0.48194   0.01267  Uiso   1.00
C29    C     0.01339   0.52818   0.67419   0.01267  Uiso   1.00
C30    C     0.09227   0.58374   0.74246   0.01267  Uiso   1.00
C31    C     0.48521   0.47182   0.82581   0.01267  Uiso   1.00
C32    C     0.49147   0.58374   0.24246   0.01267  Uiso   1.00
C33    C     0.48757   0.41014   0.40966   0.01267  Uiso   1.00
C34    C     0.03443   0.43006   0.37504   0.01267  Uiso   1.00
C35    C     0.39563   0.43006   0.87504   0.01267  Uiso   1.00
C36    C     0.04304   0.86008   0.42010   0.01267  Uiso   1.00
C37    C     0.45986   0.37512   0.08280   0.01267  Uiso   1.00
C38    C     0.90282   0.28024   0.55925   0.01267  Uiso   1.00
C39    C     0.96862   0.17224   0.87080   0.01267  Uiso   1.00
C40    C     0.81704   0.86008   0.92010   0.01267  Uiso   1.00
C41    C     0.87684   0.17328   0.27800   0.01267  Uiso   1.00
C42    C     0.44222   0.31924   0.74025   0.01267  Uiso   1.00
C43    C     0.92257   0.41014   0.90966   0.01267  Uiso   1.00
C44    C     0.62258   0.71976   0.94075   0.01267  Uiso   1.00
C45    C     0.60437   0.56994   0.12496   0.01267  Uiso   1.00
C46    C     0.98661   0.47182   0.32581   0.01267  Uiso   1.00
C47    C     0.51243   0.58986   0.59034   0.01267  Uiso   1.00
C48    C     0.96557   0.56994   0.62496   0.01267  Uiso   1.00
C49    C     0.01028   0.57076   0.34787   0.01267  Uiso   1.00
C50    C     0.54095   0.54750   0.51806   0.01267  Uiso   1.00
C51    C     0.04082   0.31184   0.98493   0.01267  Uiso   1.00
C52    C     0.99345   0.45250   0.98194   0.01267  Uiso   1.00
C53    C     0.39811   0.53582   0.62850   0.01267  Uiso   1.00
C54    C     0.09718   0.71976   0.44075   0.01267  Uiso   1.00
C55    C     0.99924   0.33388   0.35975   0.01267  Uiso   1.00
C56    C     0.87702   0.31924   0.24025   0.01267  Uiso   1.00
C57    C     0.13771   0.53582   0.12850   0.01267  Uiso   1.00
C58    C     0.20362   0.17224   0.37080   0.01267  Uiso   1.00
C59    C     0.54014   0.62488   0.91720   0.01267  Uiso   1.00
C60    C     0.37742   0.28024   0.05925   0.01267  Uiso   1.00
C61    C     0.00655   0.54750   0.01806   0.01267  Uiso   1.00
C62    C     0.02658   0.73016   0.08847   0.01267  Uiso   1.00
C63    C     0.43952   0.42924   0.15213   0.01267  Uiso   1.00
C64    C     0.56048   0.57076   0.84787   0.01267  Uiso   1.00
C65    C     0.66536   0.66612   0.14025   0.01267  Uiso   1.00
C66    C     0.39296   0.53792   0.29232   0.01267  Uiso   1.00
C67    C     0.00076   0.66612   0.64025   0.01267  Uiso   1.00
C68    C     0.04761   0.38902   0.69860   0.01267  Uiso   1.00
C69    C     0.34141   0.38902   0.19860   0.01267  Uiso   1.00
C70    C     0.03706   0.75872   0.39358   0.01267  Uiso   1.00
C71    C     0.12316   0.82672   0.72200   0.01267  Uiso   1.00
C72    C     0.03457   0.29554   0.67694   0.01267  Uiso   1.00
C73    C     0.29644   0.17328   0.77800   0.01267  Uiso   1.00
C74    C     0.95239   0.61098   0.30140   0.01267  Uiso   1.00
C75    C     0.43431   0.58082   0.96503   0.01267  Uiso   1.00
C76    C     0.96294   0.24128   0.60642   0.01267  Uiso   1.00
C77    C     0.97342   0.26984   0.91153   0.01267  Uiso   1.00
C78    C     0.08490   0.68080   0.12610   0.01267  Uiso   1.00
C79    C     0.55778   0.68076   0.25975   0.01267  Uiso   1.00
C80    C     0.56569   0.41918   0.03497   0.01267  Uiso   1.00
C81    C     0.14496   0.53792   0.79232   0.01267  Uiso   1.00
C82    C     0.91510   0.31920   0.87390   0.01267  Uiso   1.00
C83    C     0.91998   0.27836   0.29186   0.01267  Uiso   1.00
C84    C     0.07743   0.58986   0.09034   0.01267  Uiso   1.00
C85    C     0.64878   0.59696   0.48112   0.01267  Uiso   1.00
C86    C     0.85349   0.41918   0.53497   0.01267  Uiso   1.00
C87    C     0.79638   0.82776   0.62920   0.01267  Uiso   1.00
C88    C     0.70358   0.73016   0.58847   0.01267  Uiso   1.00
C89    C     0.96543   0.70446   0.32306   0.01267  Uiso   1.00
C90    C     0.40410   0.31920   0.37390   0.01267  Uiso   1.00
C91    C     0.18296   0.13992   0.07990   0.01267  Uiso   1.00
C92    C     0.86229   0.46418   0.87150   0.01267  Uiso   1.00
C93    C     0.29642   0.26984   0.41153   0.01267  Uiso   1.00
C94    C     0.94818   0.59696   0.98112   0.01267  Uiso   1.00
C95    C     0.85504   0.46208   0.20768   0.01267  Uiso   1.00
C96    C     0.14651   0.58082   0.46503   0.01267  Uiso   1.00
O1     O     0.63402   0.43524   0.30856   0.01267  Uiso   1.00
O2     O     0.01302  -0.00000   0.75000   0.01267  Uiso   1.00
O3     O     0.11878   0.85856   0.66457   0.01267  Uiso   1.00
O4     O     0.12606   0.12072   0.40984   0.01267  Uiso   1.00
O5     O     0.36847   0.57674   0.35444   0.01267  Uiso   1.00
O6     O     0.20827   0.57674   0.85444   0.01267  Uiso   1.00
O7     O     0.81277   0.90274   0.98735   0.01267  Uiso   1.00
O8     O     0.73978   0.85856   0.16457   0.01267  Uiso   1.00
O9     O     0.88122   0.14144   0.33543   0.01267  Uiso   1.00
O10    O     0.22182   0.62004   0.52283   0.01267  Uiso   1.00
O11    O     0.79262   0.85104   0.70019   0.01267  Uiso   1.00
O12    O     0.67855   0.55530   0.40920   0.01267  Uiso   1.00
O13    O     0.89538   0.89496   0.87377   0.01267  Uiso   1.00
O14    O     0.94158   0.14896   0.79981   0.01267  Uiso   1.00
O15    O     0.20738   0.14896   0.29981   0.01267  Uiso   1.00
O16    O     0.98698  -0.00000   0.25000   0.01267  Uiso   1.00
O17    O     0.67696   0.55716   0.73151   0.01267  Uiso   1.00
O18    O     0.37133   0.48374   0.94288   0.01267  Uiso   1.00
O19    O     0.62867   0.51626   0.05712   0.01267  Uiso   1.00
O20    O     0.88020   0.55716   0.23151   0.01267  Uiso   1.00
O21    O     0.88759   0.51626   0.55712   0.01267  Uiso   1.00
O22    O     0.80122   0.43524   0.80856   0.01267  Uiso   1.00
O23    O     0.16293   0.87546   0.78922   0.01267  Uiso   1.00
O24    O     0.87394   0.87928   0.59016   0.01267  Uiso   1.00
O25    O     0.83707   0.12454   0.21078   0.01267  Uiso   1.00
O26    O     0.18723   0.09726   0.01265   0.01267  Uiso   1.00
O27    O     0.99958   0.89496   0.37377   0.01267  Uiso   1.00
O28    O     0.60178   0.37996   0.97717   0.01267  Uiso   1.00
O29    O     0.28747   0.12454   0.71078   0.01267  Uiso   1.00
O30    O     0.08997   0.90274   0.48735   0.01267  Uiso   1.00
O31    O     0.26022   0.14144   0.83543   0.01267  Uiso   1.00
O32    O     0.87675   0.55530   0.90920   0.01267  Uiso   1.00
O33    O     0.32304   0.44284   0.26849   0.01267  Uiso   1.00
O34    O     0.11241   0.48374   0.44288   0.01267  Uiso   1.00
O35    O     0.12325   0.44470   0.09080   0.01267  Uiso   1.00
O36    O     0.91003   0.09726   0.51265   0.01267  Uiso   1.00
O37    O     0.05842   0.85104   0.20019   0.01267  Uiso   1.00
O38    O     0.32145   0.44470   0.59080   0.01267  Uiso   1.00
O39    O     0.00534   0.87928   0.09016   0.01267  Uiso   1.00
O40    O     0.39822   0.62004   0.02283   0.01267  Uiso   1.00
O41    O     0.19878   0.56476   0.19144   0.01267  Uiso   1.00
O42    O     0.99466   0.12072   0.90984   0.01267  Uiso   1.00
O43    O     0.77818   0.37996   0.47717   0.01267  Uiso   1.00
O44    O     0.63153   0.42326   0.64556   0.01267  Uiso   1.00
O45    O     0.79173   0.42326   0.14556   0.01267  Uiso   1.00
O46    O     0.10462   0.10504   0.12623   0.01267  Uiso   1.00
O47    O     0.00042   0.10504   0.62623   0.01267  Uiso   1.00
O48    O     0.71253   0.87546   0.28922   0.01267  Uiso   1.00
O49    O     0.11980   0.44284   0.76849   0.01267  Uiso   1.00
O50    O     0.36598   0.56476   0.69144   0.01267  Uiso   1.00
