data_image0
_cell_length_a       21.075
_cell_length_b       7.0239
_cell_length_c       31.99
_cell_angle_alpha    90
_cell_angle_beta     104.356
_cell_angle_gamma    90

_symmetry_space_group_name_H-M    "P 1"
_symmetry_int_tables_number       1

loop_
  _symmetry_equiv_pos_as_xyz
  'x, y, z'

loop_
  _atom_site_label
  _atom_site_occupancy
  _atom_site_fract_x
  _atom_site_fract_y
  _atom_site_fract_z
  _atom_site_thermal_displace_type
  _atom_site_B_iso_or_equiv
  _atom_site_type_symbol
  Mn1      1.0000 0.30068  0.11129  0.25054  Biso   1.000  Mn
  Mn2      1.0000 0.24495  0.60247  0.23269  Biso   1.000  Mn
  O1       1.0000 0.34489  0.01570  0.20062  Biso   1.000  O
  O2       1.0000 0.20951  0.13470  0.20509  Biso   1.000  O
  O3       1.0000 0.33549  0.40600  0.23780  Biso   1.000  O
  O4       1.0000 0.27833  0.76300  0.18550  Biso   1.000  O
  O5       1.0000 0.20653  0.03590  0.77883  Biso   1.000  O
  C1       1.0000 0.13460  0.08000  0.84099  Biso   1.000  C
  H1       1.0000 0.11550  0.00620  0.81700  Biso   1.000  H
  C2       1.0000 0.32150  0.87360  0.17817  Biso   1.000  C
  C3       1.0000 0.29230  0.58200  0.03045  Biso   1.000  C
  O6       1.0000 0.19827  0.42670  0.17720  Biso   1.000  O
  O7       1.0000 0.38471  0.01690  0.30199  Biso   1.000  O
  C4       1.0000 0.34800  0.82740  0.13973  Biso   1.000  C
  C5       1.0000 0.19150  0.18010  0.84238  Biso   1.000  C
  O8       1.0000 0.30899  0.79950  0.28008  Biso   1.000  O
  C6       1.0000 0.41070  0.88270  0.13917  Biso   1.000  C
  H2       1.0000 0.43590  0.95400  0.16170  Biso   1.000  H
  C7       1.0000 0.53570  0.85010  0.48701  Biso   1.000  C
  C8       1.0000 0.35850  0.86290  0.30764  Biso   1.000  C
  N1       1.0000 0.42608  0.40470  0.21191  Biso   1.000  N
  C9       1.0000 0.47100  0.88790  0.46343  Biso   1.000  C
  C10      1.0000 0.38270  0.75860  0.34904  Biso   1.000  C
  C11      1.0000 0.26560  0.39930  0.03157  Biso   1.000  C
  C12      1.0000 0.33270  0.67970  0.06925  Biso   1.000  C
  C13      1.0000 0.19240  0.29890  0.91342  Biso   1.000  C
  C14      1.0000 0.24960  0.59110  0.95197  Biso   1.000  C
  C15      1.0000 0.96300  0.37960  0.02015  Biso   1.000  C
  C16      1.0000 0.03080  0.36810  0.03094  Biso   1.000  C
  C17      1.0000 0.30960  0.72400  0.10517  Biso   1.000  C
  H3       1.0000 0.26790  0.68440  0.10630  Biso   1.000  H
  C18      1.0000 0.18760  0.25260  0.17448  Biso   1.000  C
  C19      1.0000 0.22490  0.40680  0.95291  Biso   1.000  C
  C20      1.0000 0.10600  0.09030  0.87563  Biso   1.000  C
  H4       1.0000 0.06750  0.02390  0.87480  Biso   1.000  H
  C21      1.0000 0.21930  0.28950  0.87799  Biso   1.000  C
  H5       1.0000 0.25700  0.35880  0.87830  Biso   1.000  H
  C22      1.0000 0.41760  0.86180  0.38482  Biso   1.000  C
  H6       1.0000 0.42720  0.98950  0.38180  Biso   1.000  H
  C23      1.0000 0.10980  0.29920  0.10148  Biso   1.000  C
  H7       1.0000 0.11510  0.42990  0.10550  Biso   1.000  H
  C24      1.0000 0.39720  0.73270  0.07003  Biso   1.000  C
  H8       1.0000 0.41440  0.70130  0.04680  Biso   1.000  H
  C25      1.0000 0.06760  0.23140  0.06426  Biso   1.000  C
  C26      1.0000 0.28220  0.67350  0.99033  Biso   1.000  C
  H9       1.0000 0.29850  0.79620  0.98960  Biso   1.000  H
  C27      1.0000 0.14470  0.17490  0.13328  Biso   1.000  C
  C28      1.0000 0.22270  0.17170  0.80499  Biso   1.000  C
  C29      1.0000 0.36340  0.41510  0.20724  Biso   1.000  C
  H10      1.0000 0.33710  0.43040  0.17940  Biso   1.000  H
  C30      1.0000 0.43780  0.77380  0.42485  Biso   1.000  C
  C31      1.0000 0.56260  0.96330  0.52294  Biso   1.000  C
  H11      1.0000 0.60520  0.93780  0.53860  Biso   1.000  H
  C32      1.0000 0.42420  0.58000  0.42766  Biso   1.000  C
  H12      1.0000 0.43820  0.51820  0.45410  Biso   1.000  H
  C33      1.0000 0.13470  0.19950  0.91152  Biso   1.000  C
  H13      1.0000 0.11520  0.20620  0.93450  Biso   1.000  H
  C34      1.0000 0.36980  0.56740  0.35284  Biso   1.000  C
  H14      1.0000 0.34710  0.49900  0.32890  Biso   1.000  H
  C35      1.0000 0.93410  0.51250  0.98897  Biso   1.000  C
  H15      1.0000 0.88860  0.52100  0.98120  Biso   1.000  H
  C36      1.0000 0.39080  0.47850  0.39227  Biso   1.000  C
  H16      1.0000 0.38220  0.34980  0.39500  Biso   1.000  H
  C37      1.0000 0.09690  0.91170  0.08825  Biso   1.000  C
  H17      1.0000 0.09290  0.78120  0.08340  Biso   1.000  H
  C38      1.0000 0.06130  0.03750  0.05828  Biso   1.000  C
  H18      1.0000 0.03250  0.99030  0.03360  Biso   1.000  H
  C39      1.0000 0.57830  0.70430  0.47273  Biso   1.000  C
  H19      1.0000 0.56030  0.57970  0.47410  Biso   1.000  H
  H20      1.0000 0.62170  0.70950  0.49130  Biso   1.000  H
  H21      1.0000 0.58020  0.73070  0.44360  Biso   1.000  H
  C40      1.0000 0.23320  0.31620  0.99290  Biso   1.000  C
  H22      1.0000 0.21620  0.19440  0.99350  Biso   1.000  H
  C41      1.0000 0.43550  0.83060  0.10459  Biso   1.000  C
  H23      1.0000 0.47840  0.86200  0.10470  Biso   1.000  H
  C42      1.0000 0.13860  0.98150  0.12568  Biso   1.000  C
  H24      1.0000 0.16270  0.89700  0.14590  Biso   1.000  H
  C43      1.0000 0.27450  0.28380  0.07238  Biso   1.000  C
  H25      1.0000 0.26100  0.15490  0.06520  Biso   1.000  H
  H26      1.0000 0.24830  0.33750  0.09010  Biso   1.000  H
  H27      1.0000 0.31970  0.28570  0.08790  Biso   1.000  H
  C44      1.0000 0.23970  0.71360  0.91113  Biso   1.000  C
  H28      1.0000 0.23780  0.84540  0.91860  Biso   1.000  H
  H29      1.0000 0.19960  0.67790  0.89110  Biso   1.000  H
  H30      1.0000 0.27570  0.69400  0.89820  Biso   1.000  H
  C45      1.0000 0.45540  0.40440  0.17489  Biso   1.000  C
  H31      1.0000 0.47400  0.28140  0.17230  Biso   1.000  H
  H32      1.0000 0.48920  0.49940  0.17900  Biso   1.000  H
  H33      1.0000 0.42230  0.43200  0.14900  Biso   1.000  H
  C46      1.0000 0.46810  0.37150  0.25470  Biso   1.000  C
  H34      1.0000 0.45780  0.46150  0.27460  Biso   1.000  H
  H35      1.0000 0.51310  0.38640  0.25390  Biso   1.000  H
  H36      1.0000 0.46120  0.24460  0.26380  Biso   1.000  H
  C47      1.0000 0.91960  0.26140  0.04130  Biso   1.000  C
  H37      1.0000 0.93230  0.28080  0.07190  Biso   1.000  H
  H38      1.0000 0.92420  0.12920  0.03500  Biso   1.000  H
  H39      1.0000 0.87480  0.29930  0.03030  Biso   1.000  H
  O9       1.0000 0.26405  0.29650  0.80270  Biso   1.000  O
  Mn3      1.0000 0.69932  0.61129  0.24946  Biso   1.000  Mn
  Mn4      1.0000 0.75505  0.10247  0.26732  Biso   1.000  Mn
  O10      1.0000 0.65511  0.51570  0.29938  Biso   1.000  O
  O11      1.0000 0.79049  0.63470  0.29491  Biso   1.000  O
  O12      1.0000 0.66451  0.90600  0.26220  Biso   1.000  O
  O13      1.0000 0.72167  0.26300  0.31450  Biso   1.000  O
  O14      1.0000 0.79347  0.53590  0.72117  Biso   1.000  O
  C48      1.0000 0.86540  0.58000  0.65901  Biso   1.000  C
  H40      1.0000 0.88450  0.50620  0.68300  Biso   1.000  H
  C49      1.0000 0.67850  0.37360  0.32183  Biso   1.000  C
  C50      1.0000 0.70770  0.08200  0.46955  Biso   1.000  C
  O15      1.0000 0.80173  0.92670  0.32280  Biso   1.000  O
  O16      1.0000 0.61529  0.51690  0.19801  Biso   1.000  O
  C51      1.0000 0.65200  0.32740  0.36027  Biso   1.000  C
  C52      1.0000 0.80850  0.68010  0.65762  Biso   1.000  C
  O17      1.0000 0.69101  0.29950  0.21992  Biso   1.000  O
  C53      1.0000 0.58930  0.38270  0.36083  Biso   1.000  C
  H41      1.0000 0.56410  0.45400  0.33830  Biso   1.000  H
  C54      1.0000 0.46430  0.35010  0.01299  Biso   1.000  C
  C55      1.0000 0.64150  0.36290  0.19236  Biso   1.000  C
  N2       1.0000 0.57392  0.90470  0.28809  Biso   1.000  N
  C56      1.0000 0.52900  0.38790  0.03657  Biso   1.000  C
  C57      1.0000 0.61730  0.25860  0.15096  Biso   1.000  C
  C58      1.0000 0.73440  0.89930  0.46843  Biso   1.000  C
  C59      1.0000 0.66730  0.17970  0.43075  Biso   1.000  C
  C60      1.0000 0.80760  0.79890  0.58658  Biso   1.000  C
  C61      1.0000 0.75040  0.09110  0.54803  Biso   1.000  C
  C62      1.0000 0.03700  0.87960  0.47985  Biso   1.000  C
  C63      1.0000 0.96920  0.86810  0.46906  Biso   1.000  C
  C64      1.0000 0.69040  0.22400  0.39483  Biso   1.000  C
  H42      1.0000 0.73210  0.18440  0.39370  Biso   1.000  H
  C65      1.0000 0.81240  0.75260  0.32552  Biso   1.000  C
  C66      1.0000 0.77510  0.90680  0.54709  Biso   1.000  C
  C67      1.0000 0.89400  0.59030  0.62437  Biso   1.000  C
  H43      1.0000 0.93250  0.52390  0.62520  Biso   1.000  H
  C68      1.0000 0.78070  0.78950  0.62201  Biso   1.000  C
  H44      1.0000 0.74300  0.85880  0.62170  Biso   1.000  H
  C69      1.0000 0.58240  0.36180  0.11518  Biso   1.000  C
  H45      1.0000 0.57280  0.48950  0.11820  Biso   1.000  H
  C70      1.0000 0.89020  0.79920  0.39852  Biso   1.000  C
  H46      1.0000 0.88490  0.92990  0.39450  Biso   1.000  H
  C71      1.0000 0.60280  0.23270  0.42997  Biso   1.000  C
  H47      1.0000 0.58560  0.20130  0.45320  Biso   1.000  H
  C72      1.0000 0.93240  0.73140  0.43574  Biso   1.000  C
  C73      1.0000 0.71780  0.17350  0.50967  Biso   1.000  C
  H48      1.0000 0.70150  0.29620  0.51040  Biso   1.000  H
  C74      1.0000 0.85530  0.67490  0.36672  Biso   1.000  C
  C75      1.0000 0.77730  0.67170  0.69501  Biso   1.000  C
  C76      1.0000 0.63660  0.91510  0.29276  Biso   1.000  C
  H49      1.0000 0.66290  0.93040  0.32060  Biso   1.000  H
  C77      1.0000 0.56220  0.27380  0.07515  Biso   1.000  C
  C78      1.0000 0.43740  0.46330  0.97706  Biso   1.000  C
  H50      1.0000 0.39480  0.43780  0.96140  Biso   1.000  H
  C79      1.0000 0.57580  0.08000  0.07234  Biso   1.000  C
  H51      1.0000 0.56180  0.01820  0.04590  Biso   1.000  H
  C80      1.0000 0.86530  0.69950  0.58848  Biso   1.000  C
  H52      1.0000 0.88480  0.70620  0.56550  Biso   1.000  H
  C81      1.0000 0.63020  0.06740  0.14716  Biso   1.000  C
  H53      1.0000 0.65290  0.99900  0.17110  Biso   1.000  H
  C82      1.0000 0.06590  0.01250  0.51103  Biso   1.000  C
  H54      1.0000 0.11140  0.02100  0.51880  Biso   1.000  H
  C83      1.0000 0.60920  0.97850  0.10773  Biso   1.000  C
  H55      1.0000 0.61780  0.84980  0.10500  Biso   1.000  H
  C84      1.0000 0.90310  0.41170  0.41175  Biso   1.000  C
  H56      1.0000 0.90710  0.28120  0.41660  Biso   1.000  H
  C85      1.0000 0.93870  0.53750  0.44172  Biso   1.000  C
  H57      1.0000 0.96750  0.49030  0.46640  Biso   1.000  H
  C86      1.0000 0.42170  0.20430  0.02727  Biso   1.000  C
  H58      1.0000 0.43970  0.07970  0.02590  Biso   1.000  H
  H59      1.0000 0.37830  0.20950  0.00870  Biso   1.000  H
  H60      1.0000 0.41980  0.23070  0.05640  Biso   1.000  H
  C87      1.0000 0.76680  0.81620  0.50710  Biso   1.000  C
  H61      1.0000 0.78380  0.69440  0.50650  Biso   1.000  H
  C88      1.0000 0.56450  0.33060  0.39541  Biso   1.000  C
  H62      1.0000 0.52160  0.36200  0.39530  Biso   1.000  H
  C89      1.0000 0.86140  0.48150  0.37432  Biso   1.000  C
  H63      1.0000 0.83730  0.39700  0.35410  Biso   1.000  H
  C90      1.0000 0.72550  0.78380  0.42762  Biso   1.000  C
  H64      1.0000 0.73900  0.65490  0.43480  Biso   1.000  H
  H65      1.0000 0.75170  0.83750  0.40990  Biso   1.000  H
  H66      1.0000 0.68030  0.78570  0.41210  Biso   1.000  H
  C91      1.0000 0.76030  0.21360  0.58887  Biso   1.000  C
  H67      1.0000 0.76220  0.34540  0.58140  Biso   1.000  H
  H68      1.0000 0.80040  0.17790  0.60890  Biso   1.000  H
  H69      1.0000 0.72430  0.19400  0.60180  Biso   1.000  H
  C92      1.0000 0.54460  0.90440  0.32511  Biso   1.000  C
  H70      1.0000 0.52600  0.78140  0.32770  Biso   1.000  H
  H71      1.0000 0.51080  0.99940  0.32100  Biso   1.000  H
  H72      1.0000 0.57770  0.93200  0.35100  Biso   1.000  H
  C93      1.0000 0.53190  0.87150  0.24530  Biso   1.000  C
  H73      1.0000 0.54220  0.96150  0.22540  Biso   1.000  H
  H74      1.0000 0.48690  0.88640  0.24610  Biso   1.000  H
  H75      1.0000 0.53880  0.74460  0.23620  Biso   1.000  H
  C94      1.0000 0.08040  0.76140  0.45870  Biso   1.000  C
  H76      1.0000 0.06770  0.78080  0.42810  Biso   1.000  H
  H77      1.0000 0.07580  0.62920  0.46500  Biso   1.000  H
  H78      1.0000 0.12520  0.79930  0.46970  Biso   1.000  H
  O18      1.0000 0.73595  0.79650  0.69730  Biso   1.000  O
  Mn5      1.0000 0.69932  0.88871  0.74946  Biso   1.000  Mn
  Mn6      1.0000 0.75505  0.39753  0.76732  Biso   1.000  Mn
  O19      1.0000 0.65511  0.98430  0.79938  Biso   1.000  O
  O20      1.0000 0.79049  0.86530  0.79491  Biso   1.000  O
  O21      1.0000 0.66451  0.59400  0.76220  Biso   1.000  O
  O22      1.0000 0.72167  0.23700  0.81450  Biso   1.000  O
  O23      1.0000 0.79347  0.96410  0.22117  Biso   1.000  O
  C95      1.0000 0.86540  0.92000  0.15901  Biso   1.000  C
  H79      1.0000 0.88450  0.99380  0.18300  Biso   1.000  H
  C96      1.0000 0.67850  0.12640  0.82183  Biso   1.000  C
  C97      1.0000 0.70770  0.41800  0.96955  Biso   1.000  C
  O24      1.0000 0.80173  0.57330  0.82280  Biso   1.000  O
  O25      1.0000 0.61529  0.98310  0.69801  Biso   1.000  O
  C98      1.0000 0.65200  0.17260  0.86027  Biso   1.000  C
  C99      1.0000 0.80850  0.81990  0.15762  Biso   1.000  C
  O26      1.0000 0.69101  0.20050  0.71992  Biso   1.000  O
  C100     1.0000 0.58930  0.11730  0.86083  Biso   1.000  C
  H80      1.0000 0.56410  0.04600  0.83830  Biso   1.000  H
  C101     1.0000 0.46430  0.14990  0.51299  Biso   1.000  C
  C102     1.0000 0.64150  0.13710  0.69236  Biso   1.000  C
  N3       1.0000 0.57392  0.59530  0.78809  Biso   1.000  N
  C103     1.0000 0.52900  0.11210  0.53657  Biso   1.000  C
  C104     1.0000 0.61730  0.24140  0.65096  Biso   1.000  C
  C105     1.0000 0.73440  0.60070  0.96843  Biso   1.000  C
  C106     1.0000 0.66730  0.32030  0.93075  Biso   1.000  C
  C107     1.0000 0.80760  0.70110  0.08658  Biso   1.000  C
  C108     1.0000 0.75040  0.40890  0.04803  Biso   1.000  C
  C109     1.0000 0.03700  0.62040  0.97985  Biso   1.000  C
  C110     1.0000 0.96920  0.63190  0.96906  Biso   1.000  C
  C111     1.0000 0.69040  0.27600  0.89483  Biso   1.000  C
  H81      1.0000 0.73210  0.31560  0.89370  Biso   1.000  H
  C112     1.0000 0.81240  0.74740  0.82552  Biso   1.000  C
  C113     1.0000 0.77510  0.59320  0.04709  Biso   1.000  C
  C114     1.0000 0.89400  0.90970  0.12437  Biso   1.000  C
  H82      1.0000 0.93250  0.97610  0.12520  Biso   1.000  H
  C115     1.0000 0.78070  0.71050  0.12201  Biso   1.000  C
  H83      1.0000 0.74300  0.64120  0.12170  Biso   1.000  H
  C116     1.0000 0.58240  0.13820  0.61518  Biso   1.000  C
  H84      1.0000 0.57280  0.01050  0.61820  Biso   1.000  H
  C117     1.0000 0.89020  0.70080  0.89852  Biso   1.000  C
  H85      1.0000 0.88490  0.57010  0.89450  Biso   1.000  H
  C118     1.0000 0.60280  0.26730  0.92997  Biso   1.000  C
  H86      1.0000 0.58560  0.29870  0.95320  Biso   1.000  H
  C119     1.0000 0.93240  0.76860  0.93574  Biso   1.000  C
  C120     1.0000 0.71780  0.32650  0.00967  Biso   1.000  C
  H87      1.0000 0.70150  0.20380  0.01040  Biso   1.000  H
  C121     1.0000 0.85530  0.82510  0.86672  Biso   1.000  C
  C122     1.0000 0.77730  0.82830  0.19501  Biso   1.000  C
  C123     1.0000 0.63660  0.58490  0.79276  Biso   1.000  C
  H88      1.0000 0.66290  0.56960  0.82060  Biso   1.000  H
  C124     1.0000 0.56220  0.22620  0.57515  Biso   1.000  C
  C125     1.0000 0.43740  0.03670  0.47706  Biso   1.000  C
  H89      1.0000 0.39480  0.06220  0.46140  Biso   1.000  H
  C126     1.0000 0.57580  0.42000  0.57234  Biso   1.000  C
  H90      1.0000 0.56180  0.48180  0.54590  Biso   1.000  H
  C127     1.0000 0.86530  0.80050  0.08848  Biso   1.000  C
  H91      1.0000 0.88480  0.79380  0.06550  Biso   1.000  H
  C128     1.0000 0.63020  0.43260  0.64716  Biso   1.000  C
  H92      1.0000 0.65290  0.50100  0.67110  Biso   1.000  H
  C129     1.0000 0.06590  0.48750  0.01103  Biso   1.000  C
  H93      1.0000 0.11140  0.47900  0.01880  Biso   1.000  H
  C130     1.0000 0.60920  0.52150  0.60773  Biso   1.000  C
  H94      1.0000 0.61780  0.65020  0.60500  Biso   1.000  H
  C131     1.0000 0.90310  0.08830  0.91175  Biso   1.000  C
  H95      1.0000 0.90710  0.21880  0.91660  Biso   1.000  H
  C132     1.0000 0.93870  0.96250  0.94172  Biso   1.000  C
  H96      1.0000 0.96750  0.00970  0.96640  Biso   1.000  H
  C133     1.0000 0.42170  0.29570  0.52727  Biso   1.000  C
  H97      1.0000 0.43970  0.42030  0.52590  Biso   1.000  H
  H98      1.0000 0.37830  0.29050  0.50870  Biso   1.000  H
  H99      1.0000 0.41980  0.26930  0.55640  Biso   1.000  H
  C134     1.0000 0.76680  0.68380  0.00710  Biso   1.000  C
  H100     1.0000 0.78380  0.80560  0.00650  Biso   1.000  H
  C135     1.0000 0.56450  0.16940  0.89541  Biso   1.000  C
  H101     1.0000 0.52160  0.13800  0.89530  Biso   1.000  H
  C136     1.0000 0.86140  0.01850  0.87432  Biso   1.000  C
  H102     1.0000 0.83730  0.10300  0.85410  Biso   1.000  H
  C137     1.0000 0.72550  0.71620  0.92762  Biso   1.000  C
  H103     1.0000 0.73900  0.84510  0.93480  Biso   1.000  H
  H104     1.0000 0.75170  0.66250  0.90990  Biso   1.000  H
  H105     1.0000 0.68030  0.71430  0.91210  Biso   1.000  H
  C138     1.0000 0.76030  0.28640  0.08887  Biso   1.000  C
  H106     1.0000 0.76220  0.15460  0.08140  Biso   1.000  H
  H107     1.0000 0.80040  0.32210  0.10890  Biso   1.000  H
  H108     1.0000 0.72430  0.30600  0.10180  Biso   1.000  H
  C139     1.0000 0.54460  0.59560  0.82511  Biso   1.000  C
  H109     1.0000 0.52600  0.71860  0.82770  Biso   1.000  H
  H110     1.0000 0.51080  0.50060  0.82100  Biso   1.000  H
  H111     1.0000 0.57770  0.56800  0.85100  Biso   1.000  H
  C140     1.0000 0.53190  0.62850  0.74530  Biso   1.000  C
  H112     1.0000 0.54220  0.53850  0.72540  Biso   1.000  H
  H113     1.0000 0.48690  0.61360  0.74610  Biso   1.000  H
  H114     1.0000 0.53880  0.75540  0.73620  Biso   1.000  H
  C141     1.0000 0.08040  0.73860  0.95870  Biso   1.000  C
  H115     1.0000 0.06770  0.71920  0.92810  Biso   1.000  H
  H116     1.0000 0.07580  0.87080  0.96500  Biso   1.000  H
  H117     1.0000 0.12520  0.70070  0.96970  Biso   1.000  H
  O27      1.0000 0.73595  0.70350  0.19730  Biso   1.000  O
  Mn7      1.0000 0.30068  0.38871  0.75054  Biso   1.000  Mn
  Mn8      1.0000 0.24495  0.89753  0.73269  Biso   1.000  Mn
  O28      1.0000 0.34489  0.48430  0.70062  Biso   1.000  O
  O29      1.0000 0.20951  0.36530  0.70509  Biso   1.000  O
  O30      1.0000 0.33549  0.09400  0.73780  Biso   1.000  O
  O31      1.0000 0.27833  0.73700  0.68550  Biso   1.000  O
  O32      1.0000 0.20653  0.46410  0.27883  Biso   1.000  O
  C142     1.0000 0.13460  0.42000  0.34099  Biso   1.000  C
  H118     1.0000 0.11550  0.49380  0.31700  Biso   1.000  H
  C143     1.0000 0.32150  0.62640  0.67817  Biso   1.000  C
  C144     1.0000 0.29230  0.91800  0.53045  Biso   1.000  C
  O33      1.0000 0.19827  0.07330  0.67720  Biso   1.000  O
  O34      1.0000 0.38471  0.48310  0.80199  Biso   1.000  O
  C145     1.0000 0.34800  0.67260  0.63973  Biso   1.000  C
  C146     1.0000 0.19150  0.31990  0.34238  Biso   1.000  C
  O35      1.0000 0.30899  0.70050  0.78008  Biso   1.000  O
  C147     1.0000 0.41070  0.61730  0.63917  Biso   1.000  C
  H119     1.0000 0.43590  0.54600  0.66170  Biso   1.000  H
  C148     1.0000 0.53570  0.64990  0.98701  Biso   1.000  C
  C149     1.0000 0.35850  0.63710  0.80764  Biso   1.000  C
  N4       1.0000 0.42608  0.09530  0.71191  Biso   1.000  N
  C150     1.0000 0.47100  0.61210  0.96343  Biso   1.000  C
  C151     1.0000 0.38270  0.74140  0.84904  Biso   1.000  C
  C152     1.0000 0.26560  0.10070  0.53157  Biso   1.000  C
  C153     1.0000 0.33270  0.82030  0.56925  Biso   1.000  C
  C154     1.0000 0.19240  0.20110  0.41342  Biso   1.000  C
  C155     1.0000 0.24960  0.90890  0.45197  Biso   1.000  C
  C156     1.0000 0.96300  0.12040  0.52015  Biso   1.000  C
  C157     1.0000 0.03080  0.13190  0.53094  Biso   1.000  C
  C158     1.0000 0.30960  0.77600  0.60517  Biso   1.000  C
  H120     1.0000 0.26790  0.81560  0.60630  Biso   1.000  H
  C159     1.0000 0.18760  0.24740  0.67448  Biso   1.000  C
  C160     1.0000 0.22490  0.09320  0.45291  Biso   1.000  C
  C161     1.0000 0.10600  0.40970  0.37563  Biso   1.000  C
  H121     1.0000 0.06750  0.47610  0.37480  Biso   1.000  H
  C162     1.0000 0.21930  0.21050  0.37799  Biso   1.000  C
  H122     1.0000 0.25700  0.14120  0.37830  Biso   1.000  H
  C163     1.0000 0.41760  0.63820  0.88482  Biso   1.000  C
  H123     1.0000 0.42720  0.51050  0.88180  Biso   1.000  H
  C164     1.0000 0.10980  0.20080  0.60148  Biso   1.000  C
  H124     1.0000 0.11510  0.07010  0.60550  Biso   1.000  H
  C165     1.0000 0.39720  0.76730  0.57003  Biso   1.000  C
  H125     1.0000 0.41440  0.79870  0.54680  Biso   1.000  H
  C166     1.0000 0.06760  0.26860  0.56426  Biso   1.000  C
  C167     1.0000 0.28220  0.82650  0.49033  Biso   1.000  C
  H126     1.0000 0.29850  0.70380  0.48960  Biso   1.000  H
  C168     1.0000 0.14470  0.32510  0.63328  Biso   1.000  C
  C169     1.0000 0.22270  0.32830  0.30499  Biso   1.000  C
  C170     1.0000 0.36340  0.08490  0.70724  Biso   1.000  C
  H127     1.0000 0.33710  0.06960  0.67940  Biso   1.000  H
  C171     1.0000 0.43780  0.72620  0.92485  Biso   1.000  C
  C172     1.0000 0.56260  0.53670  0.02294  Biso   1.000  C
  H128     1.0000 0.60520  0.56220  0.03860  Biso   1.000  H
  C173     1.0000 0.42420  0.92000  0.92766  Biso   1.000  C
  H129     1.0000 0.43820  0.98180  0.95410  Biso   1.000  H
  C174     1.0000 0.13470  0.30050  0.41152  Biso   1.000  C
  H130     1.0000 0.11520  0.29380  0.43450  Biso   1.000  H
  C175     1.0000 0.36980  0.93260  0.85284  Biso   1.000  C
  H131     1.0000 0.34710  0.00100  0.82890  Biso   1.000  H
  C176     1.0000 0.93410  0.98750  0.48897  Biso   1.000  C
  H132     1.0000 0.88860  0.97900  0.48120  Biso   1.000  H
  C177     1.0000 0.39080  0.02150  0.89227  Biso   1.000  C
  H133     1.0000 0.38220  0.15020  0.89500  Biso   1.000  H
  C178     1.0000 0.09690  0.58830  0.58825  Biso   1.000  C
  H134     1.0000 0.09290  0.71880  0.58340  Biso   1.000  H
  C179     1.0000 0.06130  0.46250  0.55828  Biso   1.000  C
  H135     1.0000 0.03250  0.50970  0.53360  Biso   1.000  H
  C180     1.0000 0.57830  0.79570  0.97273  Biso   1.000  C
  H136     1.0000 0.56030  0.92030  0.97410  Biso   1.000  H
  H137     1.0000 0.62170  0.79050  0.99130  Biso   1.000  H
  H138     1.0000 0.58020  0.76930  0.94360  Biso   1.000  H
  C181     1.0000 0.23320  0.18380  0.49290  Biso   1.000  C
  H139     1.0000 0.21620  0.30560  0.49350  Biso   1.000  H
  C182     1.0000 0.43550  0.66940  0.60459  Biso   1.000  C
  H140     1.0000 0.47840  0.63800  0.60470  Biso   1.000  H
  C183     1.0000 0.13860  0.51850  0.62568  Biso   1.000  C
  H141     1.0000 0.16270  0.60300  0.64590  Biso   1.000  H
  C184     1.0000 0.27450  0.21620  0.57238  Biso   1.000  C
  H142     1.0000 0.26100  0.34510  0.56520  Biso   1.000  H
  H143     1.0000 0.24830  0.16250  0.59010  Biso   1.000  H
  H144     1.0000 0.31970  0.21430  0.58790  Biso   1.000  H
  C185     1.0000 0.23970  0.78640  0.41113  Biso   1.000  C
  H145     1.0000 0.23780  0.65460  0.41860  Biso   1.000  H
  H146     1.0000 0.19960  0.82210  0.39110  Biso   1.000  H
  H147     1.0000 0.27570  0.80600  0.39820  Biso   1.000  H
  C186     1.0000 0.45540  0.09560  0.67489  Biso   1.000  C
  H148     1.0000 0.47400  0.21860  0.67230  Biso   1.000  H
  H149     1.0000 0.48920  0.00060  0.67900  Biso   1.000  H
  H150     1.0000 0.42230  0.06800  0.64900  Biso   1.000  H
  C187     1.0000 0.46810  0.12850  0.75470  Biso   1.000  C
  H151     1.0000 0.45780  0.03850  0.77460  Biso   1.000  H
  H152     1.0000 0.51310  0.11360  0.75390  Biso   1.000  H
  H153     1.0000 0.46120  0.25540  0.76380  Biso   1.000  H
  C188     1.0000 0.91960  0.23860  0.54130  Biso   1.000  C
  H154     1.0000 0.93230  0.21920  0.57190  Biso   1.000  H
  H155     1.0000 0.92420  0.37080  0.53500  Biso   1.000  H
  H156     1.0000 0.87480  0.20070  0.53030  Biso   1.000  H
  O36      1.0000 0.26405  0.20350  0.30270  Biso   1.000  O
