data_image0
_cell_length_a       10.39
_cell_length_b       16.087
_cell_length_c       18.717
_cell_angle_alpha    90
_cell_angle_beta     90
_cell_angle_gamma    90

_symmetry_space_group_name_H-M    "P 1"
_symmetry_int_tables_number       1

loop_
  _symmetry_equiv_pos_as_xyz
  'x, y, z'

loop_
  _atom_site_label
  _atom_site_occupancy
  _atom_site_fract_x
  _atom_site_fract_y
  _atom_site_fract_z
  _atom_site_thermal_displace_type
  _atom_site_B_iso_or_equiv
  _atom_site_type_symbol
  Sn1      1.0000 0.50950  0.75400  0.15200  Biso   1.000  Sn
  Sn2      1.0000 0.65180  0.35160  0.06410  Biso   1.000  Sn
  Sn3      1.0000 0.30740  0.38540  0.06760  Biso   1.000  Sn
  P1       1.0000 0.51660  0.55210  0.09280  Biso   1.000  P
  P2       1.0000 0.25040  0.80490  0.24340  Biso   1.000  P
  O1       1.0000 0.33970  0.73150  0.21360  Biso   1.000  O
  O2       1.0000 0.11230  0.76520  0.24800  Biso   1.000  O
  O3       1.0000 0.53710  0.61570  0.15850  Biso   1.000  O
  O4       1.0000 0.47090  0.31570  0.10510  Biso   1.000  O
  O5       1.0000 0.62690  0.48500  0.09600  Biso   1.000  O
  O6       1.0000 0.29160  0.83420  0.31880  Biso   1.000  O
  O7       1.0000 0.52180  0.60530  0.02130  Biso   1.000  O
  O8       1.0000 0.38450  0.50870  0.10270  Biso   1.000  O
  O9       1.0000 0.25070  0.88200  0.18990  Biso   1.000  O
  Sn4      1.0000 0.49050  0.25400  0.34800  Biso   1.000  Sn
  Sn5      1.0000 0.34820  0.85160  0.43590  Biso   1.000  Sn
  Sn6      1.0000 0.69260  0.88540  0.43240  Biso   1.000  Sn
  P3       1.0000 0.48340  0.05210  0.40720  Biso   1.000  P
  P4       1.0000 0.74960  0.30490  0.25660  Biso   1.000  P
  O10      1.0000 0.66030  0.23150  0.28640  Biso   1.000  O
  O11      1.0000 0.88770  0.26520  0.25200  Biso   1.000  O
  O12      1.0000 0.46290  0.11570  0.34150  Biso   1.000  O
  O13      1.0000 0.52910  0.81570  0.39490  Biso   1.000  O
  O14      1.0000 0.37310  0.98500  0.40400  Biso   1.000  O
  O15      1.0000 0.70840  0.33420  0.18120  Biso   1.000  O
  O16      1.0000 0.47820  0.10530  0.47870  Biso   1.000  O
  O17      1.0000 0.61550  0.00870  0.39730  Biso   1.000  O
  O18      1.0000 0.74930  0.38200  0.31010  Biso   1.000  O
  Sn7      1.0000 0.00950  0.75400  0.34800  Biso   1.000  Sn
  Sn8      1.0000 0.15180  0.35160  0.43590  Biso   1.000  Sn
  Sn9      1.0000 0.80740  0.38540  0.43240  Biso   1.000  Sn
  P5       1.0000 0.01660  0.55210  0.40720  Biso   1.000  P
  P6       1.0000 0.75040  0.80490  0.25660  Biso   1.000  P
  O19      1.0000 0.83970  0.73150  0.28640  Biso   1.000  O
  O20      1.0000 0.61230  0.76520  0.25200  Biso   1.000  O
  O21      1.0000 0.03710  0.61570  0.34150  Biso   1.000  O
  O22      1.0000 0.97090  0.31570  0.39490  Biso   1.000  O
  O23      1.0000 0.12690  0.48500  0.40400  Biso   1.000  O
  O24      1.0000 0.79160  0.83420  0.18120  Biso   1.000  O
  O25      1.0000 0.02180  0.60530  0.47870  Biso   1.000  O
  O26      1.0000 0.88450  0.50870  0.39730  Biso   1.000  O
  O27      1.0000 0.75070  0.88200  0.31010  Biso   1.000  O
  Sn10     1.0000 0.99050  0.25400  0.15200  Biso   1.000  Sn
  Sn11     1.0000 0.84820  0.85160  0.06410  Biso   1.000  Sn
  Sn12     1.0000 0.19260  0.88540  0.06760  Biso   1.000  Sn
  P7       1.0000 0.98340  0.05210  0.09280  Biso   1.000  P
  P8       1.0000 0.24960  0.30490  0.24340  Biso   1.000  P
  O28      1.0000 0.16030  0.23150  0.21360  Biso   1.000  O
  O29      1.0000 0.38770  0.26520  0.24800  Biso   1.000  O
  O30      1.0000 0.96290  0.11570  0.15850  Biso   1.000  O
  O31      1.0000 0.02910  0.81570  0.10510  Biso   1.000  O
  O32      1.0000 0.87310  0.98500  0.09600  Biso   1.000  O
  O33      1.0000 0.20840  0.33420  0.31880  Biso   1.000  O
  O34      1.0000 0.97820  0.10530  0.02130  Biso   1.000  O
  O35      1.0000 0.11550  0.00870  0.10270  Biso   1.000  O
  O36      1.0000 0.24930  0.38200  0.18990  Biso   1.000  O
  Sn13     1.0000 0.99050  0.24600  0.65200  Biso   1.000  Sn
  Sn14     1.0000 0.84820  0.64840  0.56410  Biso   1.000  Sn
  Sn15     1.0000 0.19260  0.61460  0.56760  Biso   1.000  Sn
  P9       1.0000 0.98340  0.44790  0.59280  Biso   1.000  P
  P10      1.0000 0.24960  0.19510  0.74340  Biso   1.000  P
  O37      1.0000 0.16030  0.26850  0.71360  Biso   1.000  O
  O38      1.0000 0.38770  0.23480  0.74800  Biso   1.000  O
  O39      1.0000 0.96290  0.38430  0.65850  Biso   1.000  O
  O40      1.0000 0.02910  0.68430  0.60510  Biso   1.000  O
  O41      1.0000 0.87310  0.51500  0.59600  Biso   1.000  O
  O42      1.0000 0.20840  0.16580  0.81880  Biso   1.000  O
  O43      1.0000 0.97820  0.39470  0.52130  Biso   1.000  O
  O44      1.0000 0.11550  0.49130  0.60270  Biso   1.000  O
  O45      1.0000 0.24930  0.11800  0.68990  Biso   1.000  O
  Sn16     1.0000 0.00950  0.74600  0.84800  Biso   1.000  Sn
  Sn17     1.0000 0.15180  0.14840  0.93590  Biso   1.000  Sn
  Sn18     1.0000 0.80740  0.11460  0.93240  Biso   1.000  Sn
  P11      1.0000 0.01660  0.94790  0.90720  Biso   1.000  P
  P12      1.0000 0.75040  0.69510  0.75660  Biso   1.000  P
  O46      1.0000 0.83970  0.76850  0.78640  Biso   1.000  O
  O47      1.0000 0.61230  0.73480  0.75200  Biso   1.000  O
  O48      1.0000 0.03710  0.88430  0.84150  Biso   1.000  O
  O49      1.0000 0.97090  0.18430  0.89490  Biso   1.000  O
  O50      1.0000 0.12690  0.01500  0.90400  Biso   1.000  O
  O51      1.0000 0.79160  0.66580  0.68120  Biso   1.000  O
  O52      1.0000 0.02180  0.89470  0.97870  Biso   1.000  O
  O53      1.0000 0.88450  0.99130  0.89730  Biso   1.000  O
  O54      1.0000 0.75070  0.61800  0.81010  Biso   1.000  O
  Sn19     1.0000 0.49050  0.24600  0.84800  Biso   1.000  Sn
  Sn20     1.0000 0.34820  0.64840  0.93590  Biso   1.000  Sn
  Sn21     1.0000 0.69260  0.61460  0.93240  Biso   1.000  Sn
  P13      1.0000 0.48340  0.44790  0.90720  Biso   1.000  P
  P14      1.0000 0.74960  0.19510  0.75660  Biso   1.000  P
  O55      1.0000 0.66030  0.26850  0.78640  Biso   1.000  O
  O56      1.0000 0.88770  0.23480  0.75200  Biso   1.000  O
  O57      1.0000 0.46290  0.38430  0.84150  Biso   1.000  O
  O58      1.0000 0.52910  0.68430  0.89490  Biso   1.000  O
  O59      1.0000 0.37310  0.51500  0.90400  Biso   1.000  O
  O60      1.0000 0.70840  0.16580  0.68120  Biso   1.000  O
  O61      1.0000 0.47820  0.39470  0.97870  Biso   1.000  O
  O62      1.0000 0.61550  0.49130  0.89730  Biso   1.000  O
  O63      1.0000 0.74930  0.11800  0.81010  Biso   1.000  O
  Sn22     1.0000 0.50950  0.74600  0.65200  Biso   1.000  Sn
  Sn23     1.0000 0.65180  0.14840  0.56410  Biso   1.000  Sn
  Sn24     1.0000 0.30740  0.11460  0.56760  Biso   1.000  Sn
  P15      1.0000 0.51660  0.94790  0.59280  Biso   1.000  P
  P16      1.0000 0.25040  0.69510  0.74340  Biso   1.000  P
  O64      1.0000 0.33970  0.76850  0.71360  Biso   1.000  O
  O65      1.0000 0.11230  0.73480  0.74800  Biso   1.000  O
  O66      1.0000 0.53710  0.88430  0.65850  Biso   1.000  O
  O67      1.0000 0.47090  0.18430  0.60510  Biso   1.000  O
  O68      1.0000 0.62690  0.01500  0.59600  Biso   1.000  O
  O69      1.0000 0.29160  0.66580  0.81880  Biso   1.000  O
  O70      1.0000 0.52180  0.89470  0.52130  Biso   1.000  O
  O71      1.0000 0.38450  0.99130  0.60270  Biso   1.000  O
  O72      1.0000 0.25070  0.61800  0.68990  Biso   1.000  O
