data_BIWYAH10_clean
_audit_creation_date              2014-07-02
_audit_creation_method            'Materials Studio'
_symmetry_space_group_name_H-M    'P1'
_symmetry_Int_Tables_number       1
_symmetry_cell_setting            triclinic
loop_
_symmetry_equiv_pos_as_xyz
  x,y,z
_cell_length_a                    12.7870
_cell_length_b                    15.3020
_cell_length_c                    16.9531
_cell_angle_alpha                 90.0000
_cell_angle_beta                  108.3550
_cell_angle_gamma                 90.0000
loop_
_atom_site_label
_atom_site_type_symbol
_atom_site_fract_x
_atom_site_fract_y
_atom_site_fract_z
_atom_site_U_iso_or_equiv
_atom_site_adp_type
_atom_site_occupancy
Nd1    Nd    0.76983   0.84014   0.06783   0.01267  Uiso   1.00
Nd2    Nd    0.23017   0.34014   0.43217   0.01267  Uiso   1.00
Nd3    Nd    0.23017   0.15986   0.93217   0.01267  Uiso   1.00
Nd4    Nd    0.76983   0.65986   0.56783   0.01267  Uiso   1.00
C1     C     0.67010   0.04470   0.11410   0.01267  Uiso   1.00
C2     C     0.50560   0.10770   0.07870   0.01267  Uiso   1.00
C3     C     0.78660   0.85950   0.28430   0.01267  Uiso   1.00
C4     C     0.74640   0.81200   0.39800   0.01267  Uiso   1.00
C5     C     0.05560   0.91150   0.10900   0.01267  Uiso   1.00
C6     C     0.17260   0.00400   0.07640   0.01267  Uiso   1.00
C7     C     0.32990   0.54470   0.38590   0.01267  Uiso   1.00
C8     C     0.49440   0.60770   0.42130   0.01267  Uiso   1.00
C9     C     0.21340   0.35950   0.21570   0.01267  Uiso   1.00
C10    C     0.25360   0.31200   0.10200   0.01267  Uiso   1.00
C11    C     0.94440   0.41150   0.39100   0.01267  Uiso   1.00
C12    C     0.82740   0.50400   0.42360   0.01267  Uiso   1.00
C13    C     0.32990   0.95530   0.88590   0.01267  Uiso   1.00
C14    C     0.49440   0.89230   0.92130   0.01267  Uiso   1.00
C15    C     0.21340   0.14050   0.71570   0.01267  Uiso   1.00
C16    C     0.25360   0.18800   0.60200   0.01267  Uiso   1.00
C17    C     0.94440   0.08850   0.89100   0.01267  Uiso   1.00
C18    C     0.82740   0.99600   0.92360   0.01267  Uiso   1.00
C19    C     0.67010   0.45530   0.61410   0.01267  Uiso   1.00
C20    C     0.50560   0.39230   0.57870   0.01267  Uiso   1.00
C21    C     0.78660   0.64050   0.78430   0.01267  Uiso   1.00
C22    C     0.74640   0.68800   0.89800   0.01267  Uiso   1.00
C23    C     0.05560   0.58850   0.60900   0.01267  Uiso   1.00
C24    C     0.17260   0.49600   0.57640   0.01267  Uiso   1.00
N1     N     0.73390   0.99600   0.10630   0.01267  Uiso   1.00
N2     N     0.60630   0.10130   0.13050   0.01267  Uiso   1.00
N3     N     0.41690   0.11790   0.03700   0.01267  Uiso   1.00
N4     N     0.81290   0.85450   0.22680   0.01267  Uiso   1.00
N5     N     0.75250   0.87580   0.34810   0.01267  Uiso   1.00
N6     N     0.73760   0.76400   0.44530   0.01267  Uiso   1.00
N7     N     0.97160   0.88710   0.10910   0.01267  Uiso   1.00
N8     N     0.15590   0.93520   0.11590   0.01267  Uiso   1.00
N9     N     0.19490   0.06460   0.04630   0.01267  Uiso   1.00
N10    N     0.26610   0.49600   0.39370   0.01267  Uiso   1.00
N11    N     0.39370   0.60130   0.36950   0.01267  Uiso   1.00
N12    N     0.58310   0.61790   0.46300   0.01267  Uiso   1.00
N13    N     0.18710   0.35450   0.27320   0.01267  Uiso   1.00
N14    N     0.24750   0.37580   0.15190   0.01267  Uiso   1.00
N15    N     0.26240   0.26400   0.05470   0.01267  Uiso   1.00
N16    N     0.02840   0.38710   0.39090   0.01267  Uiso   1.00
N17    N     0.84410   0.43520   0.38410   0.01267  Uiso   1.00
N18    N     0.80510   0.56460   0.45370   0.01267  Uiso   1.00
N19    N     0.26610   0.00400   0.89370   0.01267  Uiso   1.00
N20    N     0.39370   0.89870   0.86950   0.01267  Uiso   1.00
N21    N     0.58310   0.88210   0.96300   0.01267  Uiso   1.00
N22    N     0.18710   0.14550   0.77320   0.01267  Uiso   1.00
N23    N     0.24750   0.12420   0.65190   0.01267  Uiso   1.00
N24    N     0.26240   0.23600   0.55470   0.01267  Uiso   1.00
N25    N     0.02840   0.11290   0.89090   0.01267  Uiso   1.00
N26    N     0.84410   0.06480   0.88410   0.01267  Uiso   1.00
N27    N     0.80510   0.93540   0.95370   0.01267  Uiso   1.00
N28    N     0.73390   0.50400   0.60630   0.01267  Uiso   1.00
N29    N     0.60630   0.39870   0.63050   0.01267  Uiso   1.00
N30    N     0.41690   0.38210   0.53700   0.01267  Uiso   1.00
N31    N     0.81290   0.64550   0.72680   0.01267  Uiso   1.00
N32    N     0.75250   0.62420   0.84810   0.01267  Uiso   1.00
N33    N     0.73760   0.73600   0.94530   0.01267  Uiso   1.00
N34    N     0.97160   0.61290   0.60910   0.01267  Uiso   1.00
N35    N     0.15590   0.56480   0.61590   0.01267  Uiso   1.00
N36    N     0.19490   0.43540   0.54630   0.01267  Uiso   1.00
