data_image0
_cell_length_a       13.685
_cell_length_b       13.144
_cell_length_c       22.649
_cell_angle_alpha    90
_cell_angle_beta     100.551
_cell_angle_gamma    90

_symmetry_space_group_name_H-M    "P 1"
_symmetry_int_tables_number       1

loop_
  _symmetry_equiv_pos_as_xyz
  'x, y, z'

loop_
  _atom_site_label
  _atom_site_occupancy
  _atom_site_fract_x
  _atom_site_fract_y
  _atom_site_fract_z
  _atom_site_thermal_displace_type
  _atom_site_B_iso_or_equiv
  _atom_site_type_symbol
  W1       1.0000 0.23809  0.48897  0.47599  Biso   1.000  W
  W2       1.0000 0.35508  0.68963  0.41363  Biso   1.000  W
  W3       1.0000 0.36624  0.44240  0.35741  Biso   1.000  W
  W4       1.0000 0.50929  0.25307  0.44144  Biso   1.000  W
  W5       1.0000 0.38202  0.30063  0.56149  Biso   1.000  W
  W6       1.0000 0.37210  0.54721  0.62070  Biso   1.000  W
  La1      1.0000 0.27569  0.40167  0.17655  Biso   1.000  La
  La2      1.0000 0.78086  0.40149  0.22202  Biso   1.000  La
  O1       1.0000 0.40300  0.52700  0.45640  Biso   1.000  O
  O2       1.0000 0.50200  0.61500  0.48410  Biso   1.000  O
  O3       1.0000 0.50700  0.42700  0.44030  Biso   1.000  O
  O4       1.0000 0.59700  0.53300  0.47270  Biso   1.000  O
  O5       1.0000 0.25800  0.43300  0.39930  Biso   1.000  O
  O6       1.0000 0.27000  0.35800  0.51370  Biso   1.000  O
  O7       1.0000 0.26900  0.53900  0.55630  Biso   1.000  O
  O8       1.0000 0.25600  0.62500  0.44250  Biso   1.000  O
  O9       1.0000 0.29320  0.78040  0.37260  Biso   1.000  O
  O10      1.0000 0.48300  0.72230  0.39770  Biso   1.000  O
  O11      1.0000 0.35620  0.57910  0.35630  Biso   1.000  O
  O12      1.0000 0.40200  0.31200  0.39130  Biso   1.000  O
  O13      1.0000 0.60800  0.24500  0.51110  Biso   1.000  O
  O14      1.0000 0.41200  0.23600  0.49210  Biso   1.000  O
  O15      1.0000 0.33300  0.20500  0.59160  Biso   1.000  O
  O16      1.0000 0.36800  0.40300  0.62010  Biso   1.000  O
  O17      1.0000 0.31280  0.56450  0.67760  Biso   1.000  O
  O18      1.0000 0.50900  0.53900  0.65930  Biso   1.000  O
  O19      1.0000 0.39700  0.68300  0.59590  Biso   1.000  O
  O20      1.0000 0.30330  0.41290  0.28970  Biso   1.000  O
  O21      1.0000 0.44770  0.47720  0.18830  Biso   1.000  O
  O22      1.0000 0.60880  0.45270  0.19290  Biso   1.000  O
  O23      1.0000 0.79040  0.73320  0.29030  Biso   1.000  O
  O24      1.0000 0.78280  0.58100  0.25050  Biso   1.000  O
  O25      1.0000 0.72240  0.24140  0.26430  Biso   1.000  O
  O26      1.0000 0.73970  0.08300  0.29690  Biso   1.000  O
  O27      1.0000 0.05380  0.95460  0.29740  Biso   1.000  O
  O28      1.0000 0.89360  0.93390  0.30640  Biso   1.000  O
  N1       1.0000 0.46970  0.66250  0.23490  Biso   1.000  N
  H1       1.0000 0.40910  0.64350  0.22340  Biso   1.000  H
  N2       1.0000 0.59470  0.76260  0.27390  Biso   1.000  N
  N3       1.0000 0.89150  0.23920  0.22380  Biso   1.000  N
  N4       1.0000 0.01500  0.13180  0.23440  Biso   1.000  N
  H2       1.0000 0.07010  0.10430  0.22960  Biso   1.000  H
  C1       1.0000 0.49800  0.74800  0.26000  Biso   1.000  C
  H3       1.0000 0.45340  0.79740  0.26770  Biso   1.000  H
  C2       1.0000 0.55230  0.60710  0.22980  Biso   1.000  C
  C3       1.0000 0.63120  0.67060  0.25410  Biso   1.000  C
  C4       1.0000 0.73600  0.66200  0.26600  Biso   1.000  C
  C5       1.0000 0.53360  0.50370  0.20030  Biso   1.000  C
  C6       1.0000 0.98800  0.22100  0.21510  Biso   1.000  C
  H4       1.0000 0.02650  0.26620  0.19790  Biso   1.000  H
  C7       1.0000 0.86600  0.15500  0.25160  Biso   1.000  C
  C8       1.0000 0.94900  0.08550  0.26280  Biso   1.000  C
  C9       1.0000 0.96600  0.98400  0.28760  Biso   1.000  C
  C10      1.0000 0.77400  0.15800  0.27210  Biso   1.000  C
  W7       1.0000 0.76191  0.98897  0.02401  Biso   1.000  W
  W8       1.0000 0.64492  0.18963  0.08637  Biso   1.000  W
  W9       1.0000 0.63376  0.94240  0.14259  Biso   1.000  W
  W10      1.0000 0.49071  0.75307  0.05856  Biso   1.000  W
  W11      1.0000 0.61798  0.80063  0.93851  Biso   1.000  W
  W12      1.0000 0.62790  0.04721  0.87930  Biso   1.000  W
  La3      1.0000 0.72431  0.90167  0.32345  Biso   1.000  La
  La4      1.0000 0.21914  0.90149  0.27798  Biso   1.000  La
  O29      1.0000 0.59700  0.02700  0.04360  Biso   1.000  O
  O30      1.0000 0.49800  0.11500  0.01590  Biso   1.000  O
  O31      1.0000 0.49300  0.92700  0.05970  Biso   1.000  O
  O32      1.0000 0.40300  0.03300  0.02730  Biso   1.000  O
  O33      1.0000 0.74200  0.93300  0.10070  Biso   1.000  O
  O34      1.0000 0.73000  0.85800  0.98630  Biso   1.000  O
  O35      1.0000 0.73100  0.03900  0.94370  Biso   1.000  O
  O36      1.0000 0.74400  0.12500  0.05750  Biso   1.000  O
  O37      1.0000 0.70680  0.28040  0.12740  Biso   1.000  O
  O38      1.0000 0.51700  0.22230  0.10230  Biso   1.000  O
  O39      1.0000 0.64380  0.07910  0.14370  Biso   1.000  O
  O40      1.0000 0.59800  0.81200  0.10870  Biso   1.000  O
  O41      1.0000 0.39200  0.74500  0.98890  Biso   1.000  O
  O42      1.0000 0.58800  0.73600  0.00790  Biso   1.000  O
  O43      1.0000 0.66700  0.70500  0.90840  Biso   1.000  O
  O44      1.0000 0.63200  0.90300  0.87990  Biso   1.000  O
  O45      1.0000 0.68720  0.06450  0.82240  Biso   1.000  O
  O46      1.0000 0.49100  0.03900  0.84070  Biso   1.000  O
  O47      1.0000 0.60300  0.18300  0.90410  Biso   1.000  O
  O48      1.0000 0.69670  0.91290  0.21030  Biso   1.000  O
  O49      1.0000 0.55230  0.97720  0.31170  Biso   1.000  O
  O50      1.0000 0.39120  0.95270  0.30710  Biso   1.000  O
  O51      1.0000 0.20960  0.23320  0.20970  Biso   1.000  O
  O52      1.0000 0.21720  0.08100  0.24950  Biso   1.000  O
  O53      1.0000 0.27760  0.74140  0.23570  Biso   1.000  O
  O54      1.0000 0.26030  0.58300  0.20310  Biso   1.000  O
  O55      1.0000 0.94620  0.45460  0.20260  Biso   1.000  O
  O56      1.0000 0.10640  0.43390  0.19360  Biso   1.000  O
  N5       1.0000 0.53030  0.16250  0.26510  Biso   1.000  N
  H5       1.0000 0.59090  0.14350  0.27660  Biso   1.000  H
  N6       1.0000 0.40530  0.26260  0.22610  Biso   1.000  N
  N7       1.0000 0.10850  0.73920  0.27620  Biso   1.000  N
  N8       1.0000 0.98500  0.63180  0.26560  Biso   1.000  N
  H6       1.0000 0.92990  0.60430  0.27040  Biso   1.000  H
  C11      1.0000 0.50200  0.24800  0.24000  Biso   1.000  C
  H7       1.0000 0.54660  0.29740  0.23230  Biso   1.000  H
  C12      1.0000 0.44770  0.10710  0.27020  Biso   1.000  C
  C13      1.0000 0.36880  0.17060  0.24590  Biso   1.000  C
  C14      1.0000 0.26400  0.16200  0.23400  Biso   1.000  C
  C15      1.0000 0.46640  0.00370  0.29970  Biso   1.000  C
  C16      1.0000 0.01200  0.72100  0.28490  Biso   1.000  C
  H8       1.0000 0.97350  0.76620  0.30210  Biso   1.000  H
  C17      1.0000 0.13400  0.65500  0.24840  Biso   1.000  C
  C18      1.0000 0.05100  0.58550  0.23720  Biso   1.000  C
  C19      1.0000 0.03400  0.48400  0.21240  Biso   1.000  C
  C20      1.0000 0.22600  0.65800  0.22790  Biso   1.000  C
  W13      1.0000 0.76191  0.51103  0.52401  Biso   1.000  W
  W14      1.0000 0.64492  0.31037  0.58637  Biso   1.000  W
  W15      1.0000 0.63376  0.55760  0.64259  Biso   1.000  W
  W16      1.0000 0.49071  0.74693  0.55856  Biso   1.000  W
  W17      1.0000 0.61798  0.69937  0.43851  Biso   1.000  W
  W18      1.0000 0.62790  0.45279  0.37930  Biso   1.000  W
  La5      1.0000 0.72431  0.59833  0.82345  Biso   1.000  La
  La6      1.0000 0.21914  0.59851  0.77798  Biso   1.000  La
  O57      1.0000 0.59700  0.47300  0.54360  Biso   1.000  O
  O58      1.0000 0.49800  0.38500  0.51590  Biso   1.000  O
  O59      1.0000 0.49300  0.57300  0.55970  Biso   1.000  O
  O60      1.0000 0.40300  0.46700  0.52730  Biso   1.000  O
  O61      1.0000 0.74200  0.56700  0.60070  Biso   1.000  O
  O62      1.0000 0.73000  0.64200  0.48630  Biso   1.000  O
  O63      1.0000 0.73100  0.46100  0.44370  Biso   1.000  O
  O64      1.0000 0.74400  0.37500  0.55750  Biso   1.000  O
  O65      1.0000 0.70680  0.21960  0.62740  Biso   1.000  O
  O66      1.0000 0.51700  0.27770  0.60230  Biso   1.000  O
  O67      1.0000 0.64380  0.42090  0.64370  Biso   1.000  O
  O68      1.0000 0.59800  0.68800  0.60870  Biso   1.000  O
  O69      1.0000 0.39200  0.75500  0.48890  Biso   1.000  O
  O70      1.0000 0.58800  0.76400  0.50790  Biso   1.000  O
  O71      1.0000 0.66700  0.79500  0.40840  Biso   1.000  O
  O72      1.0000 0.63200  0.59700  0.37990  Biso   1.000  O
  O73      1.0000 0.68720  0.43550  0.32240  Biso   1.000  O
  O74      1.0000 0.49100  0.46100  0.34070  Biso   1.000  O
  O75      1.0000 0.60300  0.31700  0.40410  Biso   1.000  O
  O76      1.0000 0.69670  0.58710  0.71030  Biso   1.000  O
  O77      1.0000 0.55230  0.52280  0.81170  Biso   1.000  O
  O78      1.0000 0.39120  0.54730  0.80710  Biso   1.000  O
  O79      1.0000 0.20960  0.26680  0.70970  Biso   1.000  O
  O80      1.0000 0.21720  0.41900  0.74950  Biso   1.000  O
  O81      1.0000 0.27760  0.75860  0.73570  Biso   1.000  O
  O82      1.0000 0.26030  0.91700  0.70310  Biso   1.000  O
  O83      1.0000 0.94620  0.04540  0.70260  Biso   1.000  O
  O84      1.0000 0.10640  0.06610  0.69360  Biso   1.000  O
  N9       1.0000 0.53030  0.33750  0.76510  Biso   1.000  N
  H9       1.0000 0.59090  0.35650  0.77660  Biso   1.000  H
  N10      1.0000 0.40530  0.23740  0.72610  Biso   1.000  N
  N11      1.0000 0.10850  0.76080  0.77620  Biso   1.000  N
  N12      1.0000 0.98500  0.86820  0.76560  Biso   1.000  N
  H10      1.0000 0.92990  0.89570  0.77040  Biso   1.000  H
  C21      1.0000 0.50200  0.25200  0.74000  Biso   1.000  C
  H11      1.0000 0.54660  0.20260  0.73230  Biso   1.000  H
  C22      1.0000 0.44770  0.39290  0.77020  Biso   1.000  C
  C23      1.0000 0.36880  0.32940  0.74590  Biso   1.000  C
  C24      1.0000 0.26400  0.33800  0.73400  Biso   1.000  C
  C25      1.0000 0.46640  0.49630  0.79970  Biso   1.000  C
  C26      1.0000 0.01200  0.77900  0.78490  Biso   1.000  C
  H12      1.0000 0.97350  0.73380  0.80210  Biso   1.000  H
  C27      1.0000 0.13400  0.84500  0.74840  Biso   1.000  C
  C28      1.0000 0.05100  0.91450  0.73720  Biso   1.000  C
  C29      1.0000 0.03400  0.01600  0.71240  Biso   1.000  C
  C30      1.0000 0.22600  0.84200  0.72790  Biso   1.000  C
  W19      1.0000 0.23809  0.01103  0.97599  Biso   1.000  W
  W20      1.0000 0.35508  0.81037  0.91363  Biso   1.000  W
  W21      1.0000 0.36624  0.05760  0.85741  Biso   1.000  W
  W22      1.0000 0.50929  0.24693  0.94144  Biso   1.000  W
  W23      1.0000 0.38202  0.19937  0.06149  Biso   1.000  W
  W24      1.0000 0.37210  0.95279  0.12070  Biso   1.000  W
  La7      1.0000 0.27569  0.09833  0.67655  Biso   1.000  La
  La8      1.0000 0.78086  0.09851  0.72202  Biso   1.000  La
  O85      1.0000 0.40300  0.97300  0.95640  Biso   1.000  O
  O86      1.0000 0.50200  0.88500  0.98410  Biso   1.000  O
  O87      1.0000 0.50700  0.07300  0.94030  Biso   1.000  O
  O88      1.0000 0.59700  0.96700  0.97270  Biso   1.000  O
  O89      1.0000 0.25800  0.06700  0.89930  Biso   1.000  O
  O90      1.0000 0.27000  0.14200  0.01370  Biso   1.000  O
  O91      1.0000 0.26900  0.96100  0.05630  Biso   1.000  O
  O92      1.0000 0.25600  0.87500  0.94250  Biso   1.000  O
  O93      1.0000 0.29320  0.71960  0.87260  Biso   1.000  O
  O94      1.0000 0.48300  0.77770  0.89770  Biso   1.000  O
  O95      1.0000 0.35620  0.92090  0.85630  Biso   1.000  O
  O96      1.0000 0.40200  0.18800  0.89130  Biso   1.000  O
  O97      1.0000 0.60800  0.25500  0.01110  Biso   1.000  O
  O98      1.0000 0.41200  0.26400  0.99210  Biso   1.000  O
  O99      1.0000 0.33300  0.29500  0.09160  Biso   1.000  O
  O100     1.0000 0.36800  0.09700  0.12010  Biso   1.000  O
  O101     1.0000 0.31280  0.93550  0.17760  Biso   1.000  O
  O102     1.0000 0.50900  0.96100  0.15930  Biso   1.000  O
  O103     1.0000 0.39700  0.81700  0.09590  Biso   1.000  O
  O104     1.0000 0.30330  0.08710  0.78970  Biso   1.000  O
  O105     1.0000 0.44770  0.02280  0.68830  Biso   1.000  O
  O106     1.0000 0.60880  0.04730  0.69290  Biso   1.000  O
  O107     1.0000 0.79040  0.76680  0.79030  Biso   1.000  O
  O108     1.0000 0.78280  0.91900  0.75050  Biso   1.000  O
  O109     1.0000 0.72240  0.25860  0.76430  Biso   1.000  O
  O110     1.0000 0.73970  0.41700  0.79690  Biso   1.000  O
  O111     1.0000 0.05380  0.54540  0.79740  Biso   1.000  O
  O112     1.0000 0.89360  0.56610  0.80640  Biso   1.000  O
  N13      1.0000 0.46970  0.83750  0.73490  Biso   1.000  N
  H13      1.0000 0.40910  0.85650  0.72340  Biso   1.000  H
  N14      1.0000 0.59470  0.73740  0.77390  Biso   1.000  N
  N15      1.0000 0.89150  0.26080  0.72380  Biso   1.000  N
  N16      1.0000 0.01500  0.36820  0.73440  Biso   1.000  N
  H14      1.0000 0.07010  0.39570  0.72960  Biso   1.000  H
  C31      1.0000 0.49800  0.75200  0.76000  Biso   1.000  C
  H15      1.0000 0.45340  0.70260  0.76770  Biso   1.000  H
  C32      1.0000 0.55230  0.89290  0.72980  Biso   1.000  C
  C33      1.0000 0.63120  0.82940  0.75410  Biso   1.000  C
  C34      1.0000 0.73600  0.83800  0.76600  Biso   1.000  C
  C35      1.0000 0.53360  0.99630  0.70030  Biso   1.000  C
  C36      1.0000 0.98800  0.27900  0.71510  Biso   1.000  C
  H16      1.0000 0.02650  0.23380  0.69790  Biso   1.000  H
  C37      1.0000 0.86600  0.34500  0.75160  Biso   1.000  C
  C38      1.0000 0.94900  0.41450  0.76280  Biso   1.000  C
  C39      1.0000 0.96600  0.51600  0.78760  Biso   1.000  C
  C40      1.0000 0.77400  0.34200  0.77210  Biso   1.000  C
  Si1      1.0000 0.50000  0.50000  0.50000  Biso   1.000  Si
  Si2      1.0000 0.50000  0.00000  0.00000  Biso   1.000  Si
