data_image0
_cell_length_a       8.1241
_cell_length_b       30.3843
_cell_length_c       15.6616
_cell_angle_alpha    90
_cell_angle_beta     90
_cell_angle_gamma    90

_symmetry_space_group_name_H-M    "P 1"
_symmetry_int_tables_number       1

loop_
  _symmetry_equiv_pos_as_xyz
  'x, y, z'

loop_
  _atom_site_label
  _atom_site_occupancy
  _atom_site_fract_x
  _atom_site_fract_y
  _atom_site_fract_z
  _atom_site_thermal_displace_type
  _atom_site_B_iso_or_equiv
  _atom_site_type_symbol
  La1      1.0000 0.93440  0.59121  0.70363  Biso   1.000  La
  O1       1.0000 0.88970  0.46119  0.38950  Biso   1.000  O
  O2       1.0000 0.74180  0.40625  0.33870  Biso   1.000  O
  O3       1.0000 0.49410  0.52466  0.71020  Biso   1.000  O
  O4       1.0000 0.73890  0.53863  0.65130  Biso   1.000  O
  O5       1.0000 0.15540  0.63204  0.81600  Biso   1.000  O
  O6       1.0000 0.98880  0.67043  0.73390  Biso   1.000  O
  C1       1.0000 0.66080  0.43974  0.47190  Biso   1.000  C
  C2       1.0000 0.52880  0.41202  0.48660  Biso   1.000  C
  H1       1.0000 0.50690  0.38940  0.44630  Biso   1.000  H
  N1       1.0000 0.43060  0.41547  0.55470  Biso   1.000  N
  C3       1.0000 0.45950  0.44872  0.60880  Biso   1.000  C
  H2       1.0000 0.38750  0.45230  0.65610  Biso   1.000  H
  C4       1.0000 0.58920  0.47823  0.59950  Biso   1.000  C
  C5       1.0000 0.69210  0.47300  0.53050  Biso   1.000  C
  H3       1.0000 0.78390  0.49200  0.52300  Biso   1.000  H
  C6       1.0000 0.76760  0.43579  0.39380  Biso   1.000  C
  C7       1.0000 0.60890  0.51632  0.65860  Biso   1.000  C
  C8       1.0000 0.14800  0.71064  0.83150  Biso   1.000  C
  C9       1.0000 0.24560  0.71234  0.90440  Biso   1.000  C
  H4       1.0000 0.28040  0.68540  0.92930  Biso   1.000  H
  C10      1.0000 0.09640  0.66846  0.79200  Biso   1.000  C
  La2      1.0000 0.56560  0.40879  0.20363  Biso   1.000  La
  O7       1.0000 0.61030  0.53881  0.88950  Biso   1.000  O
  O8       1.0000 0.75820  0.59375  0.83870  Biso   1.000  O
  O9       1.0000 0.00590  0.47534  0.21020  Biso   1.000  O
  O10      1.0000 0.76110  0.46137  0.15130  Biso   1.000  O
  O11      1.0000 0.34460  0.36796  0.31600  Biso   1.000  O
  O12      1.0000 0.51120  0.32957  0.23390  Biso   1.000  O
  C11      1.0000 0.83920  0.56026  0.97190  Biso   1.000  C
  C12      1.0000 0.97120  0.58798  0.98660  Biso   1.000  C
  H5       1.0000 0.99310  0.61060  0.94630  Biso   1.000  H
  N2       1.0000 0.06940  0.58453  0.05470  Biso   1.000  N
  C13      1.0000 0.04050  0.55128  0.10880  Biso   1.000  C
  H6       1.0000 0.11250  0.54770  0.15610  Biso   1.000  H
  C14      1.0000 0.91080  0.52177  0.09950  Biso   1.000  C
  C15      1.0000 0.80790  0.52700  0.03050  Biso   1.000  C
  H7       1.0000 0.71610  0.50800  0.02300  Biso   1.000  H
  C16      1.0000 0.73240  0.56421  0.89380  Biso   1.000  C
  C17      1.0000 0.89110  0.48368  0.15860  Biso   1.000  C
  C18      1.0000 0.35200  0.28936  0.33150  Biso   1.000  C
  C19      1.0000 0.25440  0.28766  0.40440  Biso   1.000  C
  H8       1.0000 0.21960  0.31460  0.42930  Biso   1.000  H
  C20      1.0000 0.40360  0.33154  0.29200  Biso   1.000  C
  La3      1.0000 0.06560  0.09121  0.29637  Biso   1.000  La
  O13      1.0000 0.11030  0.96119  0.61050  Biso   1.000  O
  O14      1.0000 0.25820  0.90625  0.66130  Biso   1.000  O
  O15      1.0000 0.50590  0.02466  0.28980  Biso   1.000  O
  O16      1.0000 0.26110  0.03863  0.34870  Biso   1.000  O
  O17      1.0000 0.84460  0.13204  0.18400  Biso   1.000  O
  O18      1.0000 0.01120  0.17043  0.26610  Biso   1.000  O
  C21      1.0000 0.33920  0.93974  0.52810  Biso   1.000  C
  C22      1.0000 0.47120  0.91202  0.51340  Biso   1.000  C
  H9       1.0000 0.49310  0.88940  0.55370  Biso   1.000  H
  N3       1.0000 0.56940  0.91547  0.44530  Biso   1.000  N
  C23      1.0000 0.54050  0.94872  0.39120  Biso   1.000  C
  H10      1.0000 0.61250  0.95230  0.34390  Biso   1.000  H
  C24      1.0000 0.41080  0.97823  0.40050  Biso   1.000  C
  C25      1.0000 0.30790  0.97300  0.46950  Biso   1.000  C
  H11      1.0000 0.21610  0.99200  0.47700  Biso   1.000  H
  C26      1.0000 0.23240  0.93579  0.60620  Biso   1.000  C
  C27      1.0000 0.39110  0.01632  0.34140  Biso   1.000  C
  C28      1.0000 0.85200  0.21064  0.16850  Biso   1.000  C
  C29      1.0000 0.75440  0.21234  0.09560  Biso   1.000  C
  H12      1.0000 0.71960  0.18540  0.07070  Biso   1.000  H
  C30      1.0000 0.90360  0.16846  0.20800  Biso   1.000  C
  La4      1.0000 0.43440  0.90879  0.79637  Biso   1.000  La
  O19      1.0000 0.38970  0.03881  0.11050  Biso   1.000  O
  O20      1.0000 0.24180  0.09375  0.16130  Biso   1.000  O
  O21      1.0000 0.99410  0.97534  0.78980  Biso   1.000  O
  O22      1.0000 0.23890  0.96137  0.84870  Biso   1.000  O
  O23      1.0000 0.65540  0.86796  0.68400  Biso   1.000  O
  O24      1.0000 0.48880  0.82957  0.76610  Biso   1.000  O
  C31      1.0000 0.16080  0.06026  0.02810  Biso   1.000  C
  C32      1.0000 0.02880  0.08798  0.01340  Biso   1.000  C
  H13      1.0000 0.00690  0.11060  0.05370  Biso   1.000  H
  N4       1.0000 0.93060  0.08453  0.94530  Biso   1.000  N
  C33      1.0000 0.95950  0.05128  0.89120  Biso   1.000  C
  H14      1.0000 0.88750  0.04770  0.84390  Biso   1.000  H
  C34      1.0000 0.08920  0.02177  0.90050  Biso   1.000  C
  C35      1.0000 0.19210  0.02700  0.96950  Biso   1.000  C
  H15      1.0000 0.28390  0.00800  0.97700  Biso   1.000  H
  C36      1.0000 0.26760  0.06421  0.10620  Biso   1.000  C
  C37      1.0000 0.10890  0.98368  0.84140  Biso   1.000  C
  C38      1.0000 0.64800  0.78936  0.66850  Biso   1.000  C
  C39      1.0000 0.74560  0.78766  0.59560  Biso   1.000  C
  H16      1.0000 0.78040  0.81460  0.57070  Biso   1.000  H
  C40      1.0000 0.59640  0.83154  0.70800  Biso   1.000  C
  La5      1.0000 0.06560  0.40879  0.29637  Biso   1.000  La
  O25      1.0000 0.11030  0.53881  0.61050  Biso   1.000  O
  O26      1.0000 0.25820  0.59375  0.66130  Biso   1.000  O
  O27      1.0000 0.50590  0.47534  0.28980  Biso   1.000  O
  O28      1.0000 0.26110  0.46137  0.34870  Biso   1.000  O
  O29      1.0000 0.84460  0.36796  0.18400  Biso   1.000  O
  O30      1.0000 0.01120  0.32957  0.26610  Biso   1.000  O
  C41      1.0000 0.33920  0.56026  0.52810  Biso   1.000  C
  C42      1.0000 0.47120  0.58798  0.51340  Biso   1.000  C
  H17      1.0000 0.49310  0.61060  0.55370  Biso   1.000  H
  N5       1.0000 0.56940  0.58453  0.44530  Biso   1.000  N
  C43      1.0000 0.54050  0.55128  0.39120  Biso   1.000  C
  H18      1.0000 0.61250  0.54770  0.34390  Biso   1.000  H
  C44      1.0000 0.41080  0.52177  0.40050  Biso   1.000  C
  C45      1.0000 0.30790  0.52700  0.46950  Biso   1.000  C
  H19      1.0000 0.21610  0.50800  0.47700  Biso   1.000  H
  C46      1.0000 0.23240  0.56421  0.60620  Biso   1.000  C
  C47      1.0000 0.39110  0.48368  0.34140  Biso   1.000  C
  C48      1.0000 0.85200  0.28936  0.16850  Biso   1.000  C
  C49      1.0000 0.75440  0.28766  0.09560  Biso   1.000  C
  H20      1.0000 0.71960  0.31460  0.07070  Biso   1.000  H
  C50      1.0000 0.90360  0.33154  0.20800  Biso   1.000  C
  La6      1.0000 0.43440  0.59121  0.79637  Biso   1.000  La
  O31      1.0000 0.38970  0.46119  0.11050  Biso   1.000  O
  O32      1.0000 0.24180  0.40625  0.16130  Biso   1.000  O
  O33      1.0000 0.99410  0.52466  0.78980  Biso   1.000  O
  O34      1.0000 0.23890  0.53863  0.84870  Biso   1.000  O
  O35      1.0000 0.65540  0.63204  0.68400  Biso   1.000  O
  O36      1.0000 0.48880  0.67043  0.76610  Biso   1.000  O
  C51      1.0000 0.16080  0.43974  0.02810  Biso   1.000  C
  C52      1.0000 0.02880  0.41202  0.01340  Biso   1.000  C
  H21      1.0000 0.00690  0.38940  0.05370  Biso   1.000  H
  N6       1.0000 0.93060  0.41547  0.94530  Biso   1.000  N
  C53      1.0000 0.95950  0.44872  0.89120  Biso   1.000  C
  H22      1.0000 0.88750  0.45230  0.84390  Biso   1.000  H
  C54      1.0000 0.08920  0.47823  0.90050  Biso   1.000  C
  C55      1.0000 0.19210  0.47300  0.96950  Biso   1.000  C
  H23      1.0000 0.28390  0.49200  0.97700  Biso   1.000  H
  C56      1.0000 0.26760  0.43579  0.10620  Biso   1.000  C
  C57      1.0000 0.10890  0.51632  0.84140  Biso   1.000  C
  C58      1.0000 0.64800  0.71064  0.66850  Biso   1.000  C
  C59      1.0000 0.74560  0.71234  0.59560  Biso   1.000  C
  H24      1.0000 0.78040  0.68540  0.57070  Biso   1.000  H
  C60      1.0000 0.59640  0.66846  0.70800  Biso   1.000  C
  La7      1.0000 0.93440  0.90879  0.70363  Biso   1.000  La
  O37      1.0000 0.88970  0.03881  0.38950  Biso   1.000  O
  O38      1.0000 0.74180  0.09375  0.33870  Biso   1.000  O
  O39      1.0000 0.49410  0.97534  0.71020  Biso   1.000  O
  O40      1.0000 0.73890  0.96137  0.65130  Biso   1.000  O
  O41      1.0000 0.15540  0.86796  0.81600  Biso   1.000  O
  O42      1.0000 0.98880  0.82957  0.73390  Biso   1.000  O
  C61      1.0000 0.66080  0.06026  0.47190  Biso   1.000  C
  C62      1.0000 0.52880  0.08798  0.48660  Biso   1.000  C
  H25      1.0000 0.50690  0.11060  0.44630  Biso   1.000  H
  N7       1.0000 0.43060  0.08453  0.55470  Biso   1.000  N
  C63      1.0000 0.45950  0.05128  0.60880  Biso   1.000  C
  H26      1.0000 0.38750  0.04770  0.65610  Biso   1.000  H
  C64      1.0000 0.58920  0.02177  0.59950  Biso   1.000  C
  C65      1.0000 0.69210  0.02700  0.53050  Biso   1.000  C
  H27      1.0000 0.78390  0.00800  0.52300  Biso   1.000  H
  C66      1.0000 0.76760  0.06421  0.39380  Biso   1.000  C
  C67      1.0000 0.60890  0.98368  0.65860  Biso   1.000  C
  C68      1.0000 0.14800  0.78936  0.83150  Biso   1.000  C
  C69      1.0000 0.24560  0.78766  0.90440  Biso   1.000  C
  H28      1.0000 0.28040  0.81460  0.92930  Biso   1.000  H
  C70      1.0000 0.09640  0.83154  0.79200  Biso   1.000  C
  La8      1.0000 0.56560  0.09121  0.20363  Biso   1.000  La
  O43      1.0000 0.61030  0.96119  0.88950  Biso   1.000  O
  O44      1.0000 0.75820  0.90625  0.83870  Biso   1.000  O
  O45      1.0000 0.00590  0.02466  0.21020  Biso   1.000  O
  O46      1.0000 0.76110  0.03863  0.15130  Biso   1.000  O
  O47      1.0000 0.34460  0.13204  0.31600  Biso   1.000  O
  O48      1.0000 0.51120  0.17043  0.23390  Biso   1.000  O
  C71      1.0000 0.83920  0.93974  0.97190  Biso   1.000  C
  C72      1.0000 0.97120  0.91202  0.98660  Biso   1.000  C
  H29      1.0000 0.99310  0.88940  0.94630  Biso   1.000  H
  N8       1.0000 0.06940  0.91547  0.05470  Biso   1.000  N
  C73      1.0000 0.04050  0.94872  0.10880  Biso   1.000  C
  H30      1.0000 0.11250  0.95230  0.15610  Biso   1.000  H
  C74      1.0000 0.91080  0.97823  0.09950  Biso   1.000  C
  C75      1.0000 0.80790  0.97300  0.03050  Biso   1.000  C
  H31      1.0000 0.71610  0.99200  0.02300  Biso   1.000  H
  C76      1.0000 0.73240  0.93579  0.89380  Biso   1.000  C
  C77      1.0000 0.89110  0.01632  0.15860  Biso   1.000  C
  C78      1.0000 0.35200  0.21064  0.33150  Biso   1.000  C
  C79      1.0000 0.25440  0.21234  0.40440  Biso   1.000  C
  H32      1.0000 0.21960  0.18540  0.42930  Biso   1.000  H
  C80      1.0000 0.40360  0.16846  0.29200  Biso   1.000  C
  N9       1.0000 0.29290  0.75000  0.94130  Biso   1.000  N
  C81      1.0000 0.09770  0.75000  0.79530  Biso   1.000  C
  H33      1.0000 0.02940  0.75000  0.74610  Biso   1.000  H
  N10      1.0000 0.20710  0.25000  0.44130  Biso   1.000  N
  C82      1.0000 0.40230  0.25000  0.29530  Biso   1.000  C
  H34      1.0000 0.47060  0.25000  0.24610  Biso   1.000  H
  N11      1.0000 0.70710  0.25000  0.05870  Biso   1.000  N
  C83      1.0000 0.90230  0.25000  0.20470  Biso   1.000  C
  H35      1.0000 0.97060  0.25000  0.25390  Biso   1.000  H
  N12      1.0000 0.79290  0.75000  0.55870  Biso   1.000  N
  C84      1.0000 0.59770  0.75000  0.70470  Biso   1.000  C
  H36      1.0000 0.52940  0.75000  0.75390  Biso   1.000  H
