data_image0
_cell_length_a       8.1162
_cell_length_b       30.2842
_cell_length_c       15.6709
_cell_angle_alpha    90
_cell_angle_beta     90
_cell_angle_gamma    90

_symmetry_space_group_name_H-M    "P 1"
_symmetry_int_tables_number       1

loop_
  _symmetry_equiv_pos_as_xyz
  'x, y, z'

loop_
  _atom_site_label
  _atom_site_occupancy
  _atom_site_fract_x
  _atom_site_fract_y
  _atom_site_fract_z
  _atom_site_thermal_displace_type
  _atom_site_B_iso_or_equiv
  _atom_site_type_symbol
  Ce1      1.0000 0.43911  0.90869  0.70393  Biso   1.000  Ce
  O1       1.0000 0.66250  0.86861  0.81620  Biso   1.000  O
  O2       1.0000 0.38650  0.03933  0.38710  Biso   1.000  O
  O3       1.0000 0.24830  0.96207  0.65120  Biso   1.000  O
  O4       1.0000 0.49330  0.83022  0.73450  Biso   1.000  O
  O5       1.0000 0.23430  0.09476  0.33830  Biso   1.000  O
  O6       1.0000 0.00270  0.97380  0.70940  Biso   1.000  O
  N1       1.0000 0.92640  0.08316  0.55500  Biso   1.000  N
  C1       1.0000 0.60150  0.83181  0.79140  Biso   1.000  C
  C2       1.0000 0.15680  0.06026  0.47100  Biso   1.000  C
  C3       1.0000 0.02320  0.08705  0.48670  Biso   1.000  C
  H1       1.0000 0.99860  0.10960  0.44660  Biso   1.000  H
  C4       1.0000 0.11580  0.98313  0.65870  Biso   1.000  C
  C5       1.0000 0.26400  0.06457  0.39280  Biso   1.000  C
  C6       1.0000 0.95960  0.05007  0.60910  Biso   1.000  C
  H2       1.0000 0.88900  0.04610  0.65690  Biso   1.000  H
  C7       1.0000 0.65430  0.78963  0.83110  Biso   1.000  C
  C8       1.0000 0.09180  0.02120  0.59920  Biso   1.000  C
  C9       1.0000 0.75170  0.78767  0.90380  Biso   1.000  C
  H3       1.0000 0.78460  0.81480  0.92920  Biso   1.000  H
  C10      1.0000 0.19340  0.02692  0.52980  Biso   1.000  C
  H4       1.0000 0.28700  0.00850  0.52200  Biso   1.000  H
  Ce2      1.0000 0.06089  0.09131  0.20393  Biso   1.000  Ce
  O7       1.0000 0.83750  0.13139  0.31620  Biso   1.000  O
  O8       1.0000 0.11350  0.96067  0.88710  Biso   1.000  O
  O9       1.0000 0.25170  0.03793  0.15120  Biso   1.000  O
  O10      1.0000 0.00670  0.16978  0.23450  Biso   1.000  O
  O11      1.0000 0.26570  0.90524  0.83830  Biso   1.000  O
  O12      1.0000 0.49730  0.02620  0.20940  Biso   1.000  O
  N2       1.0000 0.57360  0.91684  0.05500  Biso   1.000  N
  C11      1.0000 0.89850  0.16819  0.29140  Biso   1.000  C
  C12      1.0000 0.34320  0.93974  0.97100  Biso   1.000  C
  C13      1.0000 0.47680  0.91295  0.98670  Biso   1.000  C
  H5       1.0000 0.50140  0.89040  0.94660  Biso   1.000  H
  C14      1.0000 0.38420  0.01687  0.15870  Biso   1.000  C
  C15      1.0000 0.23600  0.93543  0.89280  Biso   1.000  C
  C16      1.0000 0.54040  0.94993  0.10910  Biso   1.000  C
  H6       1.0000 0.61100  0.95390  0.15690  Biso   1.000  H
  C17      1.0000 0.84570  0.21037  0.33110  Biso   1.000  C
  C18      1.0000 0.40820  0.97880  0.09920  Biso   1.000  C
  C19      1.0000 0.74830  0.21233  0.40380  Biso   1.000  C
  H7       1.0000 0.71540  0.18520  0.42920  Biso   1.000  H
  C20      1.0000 0.30660  0.97308  0.02980  Biso   1.000  C
  H8       1.0000 0.21300  0.99150  0.02200  Biso   1.000  H
  Ce3      1.0000 0.56089  0.40869  0.29607  Biso   1.000  Ce
  O13      1.0000 0.33750  0.36861  0.18380  Biso   1.000  O
  O14      1.0000 0.61350  0.53933  0.61290  Biso   1.000  O
  O15      1.0000 0.75170  0.46207  0.34880  Biso   1.000  O
  O16      1.0000 0.50670  0.33022  0.26550  Biso   1.000  O
  O17      1.0000 0.76570  0.59476  0.66170  Biso   1.000  O
  O18      1.0000 0.99730  0.47380  0.29060  Biso   1.000  O
  N3       1.0000 0.07360  0.58316  0.44500  Biso   1.000  N
  C21      1.0000 0.39850  0.33181  0.20860  Biso   1.000  C
  C22      1.0000 0.84320  0.56026  0.52900  Biso   1.000  C
  C23      1.0000 0.97680  0.58705  0.51330  Biso   1.000  C
  H9       1.0000 0.00140  0.60960  0.55340  Biso   1.000  H
  C24      1.0000 0.88420  0.48313  0.34130  Biso   1.000  C
  C25      1.0000 0.73600  0.56457  0.60720  Biso   1.000  C
  C26      1.0000 0.04040  0.55007  0.39090  Biso   1.000  C
  H10      1.0000 0.11100  0.54610  0.34310  Biso   1.000  H
  C27      1.0000 0.34570  0.28963  0.16890  Biso   1.000  C
  C28      1.0000 0.90820  0.52120  0.40080  Biso   1.000  C
  C29      1.0000 0.24830  0.28767  0.09620  Biso   1.000  C
  H11      1.0000 0.21540  0.31480  0.07080  Biso   1.000  H
  C30      1.0000 0.80660  0.52692  0.47020  Biso   1.000  C
  H12      1.0000 0.71300  0.50850  0.47800  Biso   1.000  H
  Ce4      1.0000 0.93911  0.59131  0.79607  Biso   1.000  Ce
  O19      1.0000 0.16250  0.63139  0.68380  Biso   1.000  O
  O20      1.0000 0.88650  0.46067  0.11290  Biso   1.000  O
  O21      1.0000 0.74830  0.53793  0.84880  Biso   1.000  O
  O22      1.0000 0.99330  0.66978  0.76550  Biso   1.000  O
  O23      1.0000 0.73430  0.40524  0.16170  Biso   1.000  O
  O24      1.0000 0.50270  0.52620  0.79060  Biso   1.000  O
  N4       1.0000 0.42640  0.41684  0.94500  Biso   1.000  N
  C31      1.0000 0.10150  0.66819  0.70860  Biso   1.000  C
  C32      1.0000 0.65680  0.43974  0.02900  Biso   1.000  C
  C33      1.0000 0.52320  0.41295  0.01330  Biso   1.000  C
  H13      1.0000 0.49860  0.39040  0.05340  Biso   1.000  H
  C34      1.0000 0.61580  0.51687  0.84130  Biso   1.000  C
  C35      1.0000 0.76400  0.43543  0.10720  Biso   1.000  C
  C36      1.0000 0.45960  0.44993  0.89090  Biso   1.000  C
  H14      1.0000 0.38900  0.45390  0.84310  Biso   1.000  H
  C37      1.0000 0.15430  0.71037  0.66890  Biso   1.000  C
  C38      1.0000 0.59180  0.47880  0.90080  Biso   1.000  C
  C39      1.0000 0.25170  0.71233  0.59620  Biso   1.000  C
  H15      1.0000 0.28460  0.68520  0.57080  Biso   1.000  H
  C40      1.0000 0.69340  0.47308  0.97020  Biso   1.000  C
  H16      1.0000 0.78700  0.49150  0.97800  Biso   1.000  H
  Ce5      1.0000 0.56089  0.09131  0.29607  Biso   1.000  Ce
  O25      1.0000 0.33750  0.13139  0.18380  Biso   1.000  O
  O26      1.0000 0.61350  0.96067  0.61290  Biso   1.000  O
  O27      1.0000 0.75170  0.03793  0.34880  Biso   1.000  O
  O28      1.0000 0.50670  0.16978  0.26550  Biso   1.000  O
  O29      1.0000 0.76570  0.90524  0.66170  Biso   1.000  O
  O30      1.0000 0.99730  0.02620  0.29060  Biso   1.000  O
  N5       1.0000 0.07360  0.91684  0.44500  Biso   1.000  N
  C41      1.0000 0.39850  0.16819  0.20860  Biso   1.000  C
  C42      1.0000 0.84320  0.93974  0.52900  Biso   1.000  C
  C43      1.0000 0.97680  0.91295  0.51330  Biso   1.000  C
  H17      1.0000 0.00140  0.89040  0.55340  Biso   1.000  H
  C44      1.0000 0.88420  0.01687  0.34130  Biso   1.000  C
  C45      1.0000 0.73600  0.93543  0.60720  Biso   1.000  C
  C46      1.0000 0.04040  0.94993  0.39090  Biso   1.000  C
  H18      1.0000 0.11100  0.95390  0.34310  Biso   1.000  H
  C47      1.0000 0.34570  0.21037  0.16890  Biso   1.000  C
  C48      1.0000 0.90820  0.97880  0.40080  Biso   1.000  C
  C49      1.0000 0.24830  0.21233  0.09620  Biso   1.000  C
  H19      1.0000 0.21540  0.18520  0.07080  Biso   1.000  H
  C50      1.0000 0.80660  0.97308  0.47020  Biso   1.000  C
  H20      1.0000 0.71300  0.99150  0.47800  Biso   1.000  H
  Ce6      1.0000 0.93911  0.90869  0.79607  Biso   1.000  Ce
  O31      1.0000 0.16250  0.86861  0.68380  Biso   1.000  O
  O32      1.0000 0.88650  0.03933  0.11290  Biso   1.000  O
  O33      1.0000 0.74830  0.96207  0.84880  Biso   1.000  O
  O34      1.0000 0.99330  0.83022  0.76550  Biso   1.000  O
  O35      1.0000 0.73430  0.09476  0.16170  Biso   1.000  O
  O36      1.0000 0.50270  0.97380  0.79060  Biso   1.000  O
  N6       1.0000 0.42640  0.08316  0.94500  Biso   1.000  N
  C51      1.0000 0.10150  0.83181  0.70860  Biso   1.000  C
  C52      1.0000 0.65680  0.06026  0.02900  Biso   1.000  C
  C53      1.0000 0.52320  0.08705  0.01330  Biso   1.000  C
  H21      1.0000 0.49860  0.10960  0.05340  Biso   1.000  H
  C54      1.0000 0.61580  0.98313  0.84130  Biso   1.000  C
  C55      1.0000 0.76400  0.06457  0.10720  Biso   1.000  C
  C56      1.0000 0.45960  0.05007  0.89090  Biso   1.000  C
  H22      1.0000 0.38900  0.04610  0.84310  Biso   1.000  H
  C57      1.0000 0.15430  0.78963  0.66890  Biso   1.000  C
  C58      1.0000 0.59180  0.02120  0.90080  Biso   1.000  C
  C59      1.0000 0.25170  0.78767  0.59620  Biso   1.000  C
  H23      1.0000 0.28460  0.81480  0.57080  Biso   1.000  H
  C60      1.0000 0.69340  0.02692  0.97020  Biso   1.000  C
  H24      1.0000 0.78700  0.00850  0.97800  Biso   1.000  H
  Ce7      1.0000 0.43911  0.59131  0.70393  Biso   1.000  Ce
  O37      1.0000 0.66250  0.63139  0.81620  Biso   1.000  O
  O38      1.0000 0.38650  0.46067  0.38710  Biso   1.000  O
  O39      1.0000 0.24830  0.53793  0.65120  Biso   1.000  O
  O40      1.0000 0.49330  0.66978  0.73450  Biso   1.000  O
  O41      1.0000 0.23430  0.40524  0.33830  Biso   1.000  O
  O42      1.0000 0.00270  0.52620  0.70940  Biso   1.000  O
  N7       1.0000 0.92640  0.41684  0.55500  Biso   1.000  N
  C61      1.0000 0.60150  0.66819  0.79140  Biso   1.000  C
  C62      1.0000 0.15680  0.43974  0.47100  Biso   1.000  C
  C63      1.0000 0.02320  0.41295  0.48670  Biso   1.000  C
  H25      1.0000 0.99860  0.39040  0.44660  Biso   1.000  H
  C64      1.0000 0.11580  0.51687  0.65870  Biso   1.000  C
  C65      1.0000 0.26400  0.43543  0.39280  Biso   1.000  C
  C66      1.0000 0.95960  0.44993  0.60910  Biso   1.000  C
  H26      1.0000 0.88900  0.45390  0.65690  Biso   1.000  H
  C67      1.0000 0.65430  0.71037  0.83110  Biso   1.000  C
  C68      1.0000 0.09180  0.47880  0.59920  Biso   1.000  C
  C69      1.0000 0.75170  0.71233  0.90380  Biso   1.000  C
  H27      1.0000 0.78460  0.68520  0.92920  Biso   1.000  H
  C70      1.0000 0.19340  0.47308  0.52980  Biso   1.000  C
  H28      1.0000 0.28700  0.49150  0.52200  Biso   1.000  H
  Ce8      1.0000 0.06089  0.40869  0.20393  Biso   1.000  Ce
  O43      1.0000 0.83750  0.36861  0.31620  Biso   1.000  O
  O44      1.0000 0.11350  0.53933  0.88710  Biso   1.000  O
  O45      1.0000 0.25170  0.46207  0.15120  Biso   1.000  O
  O46      1.0000 0.00670  0.33022  0.23450  Biso   1.000  O
  O47      1.0000 0.26570  0.59476  0.83830  Biso   1.000  O
  O48      1.0000 0.49730  0.47380  0.20940  Biso   1.000  O
  N8       1.0000 0.57360  0.58316  0.05500  Biso   1.000  N
  C71      1.0000 0.89850  0.33181  0.29140  Biso   1.000  C
  C72      1.0000 0.34320  0.56026  0.97100  Biso   1.000  C
  C73      1.0000 0.47680  0.58705  0.98670  Biso   1.000  C
  H29      1.0000 0.50140  0.60960  0.94660  Biso   1.000  H
  C74      1.0000 0.38420  0.48313  0.15870  Biso   1.000  C
  C75      1.0000 0.23600  0.56457  0.89280  Biso   1.000  C
  C76      1.0000 0.54040  0.55007  0.10910  Biso   1.000  C
  H30      1.0000 0.61100  0.54610  0.15690  Biso   1.000  H
  C77      1.0000 0.84570  0.28963  0.33110  Biso   1.000  C
  C78      1.0000 0.40820  0.52120  0.09920  Biso   1.000  C
  C79      1.0000 0.74830  0.28767  0.40380  Biso   1.000  C
  H31      1.0000 0.71540  0.31480  0.42920  Biso   1.000  H
  C80      1.0000 0.30660  0.52692  0.02980  Biso   1.000  C
  H32      1.0000 0.21300  0.50850  0.02200  Biso   1.000  H
  N9       1.0000 0.80250  0.75000  0.94060  Biso   1.000  N
  C81      1.0000 0.60100  0.75000  0.79530  Biso   1.000  C
  H33      1.0000 0.52950  0.75000  0.74730  Biso   1.000  H
  N10      1.0000 0.69750  0.25000  0.44060  Biso   1.000  N
  C82      1.0000 0.89900  0.25000  0.29530  Biso   1.000  C
  H34      1.0000 0.97050  0.25000  0.24730  Biso   1.000  H
  N11      1.0000 0.19750  0.25000  0.05940  Biso   1.000  N
  C83      1.0000 0.39900  0.25000  0.20470  Biso   1.000  C
  H35      1.0000 0.47050  0.25000  0.25270  Biso   1.000  H
  N12      1.0000 0.30250  0.75000  0.55940  Biso   1.000  N
  C84      1.0000 0.10100  0.75000  0.70470  Biso   1.000  C
  H36      1.0000 0.02950  0.75000  0.75270  Biso   1.000  H
