data_image0
_cell_length_a       13.2579
_cell_length_b       11.438
_cell_length_c       28.745
_cell_angle_alpha    90
_cell_angle_beta     99.887
_cell_angle_gamma    90

_symmetry_space_group_name_H-M    "P 1"
_symmetry_int_tables_number       1

loop_
  _symmetry_equiv_pos_as_xyz
  'x, y, z'

loop_
  _atom_site_label
  _atom_site_occupancy
  _atom_site_fract_x
  _atom_site_fract_y
  _atom_site_fract_z
  _atom_site_thermal_displace_type
  _atom_site_B_iso_or_equiv
  _atom_site_type_symbol
  Mn1      1.0000 0.95899  0.54889  0.66863  Biso   1.000  Mn
  Mn2      1.0000 0.14660  0.82855  0.63550  Biso   1.000  Mn
  Mn3      1.0000 0.71472  0.79780  0.85688  Biso   1.000  Mn
  O1       1.0000 0.98540  0.86420  0.62988  Biso   1.000  O
  O2       1.0000 0.55960  0.75130  0.86279  Biso   1.000  O
  O3       1.0000 0.17370  0.51990  0.38561  Biso   1.000  O
  O4       1.0000 0.05070  0.52410  0.61572  Biso   1.000  O
  O5       1.0000 0.89770  0.72040  0.65734  Biso   1.000  O
  O6       1.0000 0.64540  0.03580  0.78101  Biso   1.000  O
  O7       1.0000 0.23030  0.66600  0.43285  Biso   1.000  O
  O8       1.0000 0.48400  0.87630  0.80785  Biso   1.000  O
  O9       1.0000 0.08060  0.60010  0.72428  Biso   1.000  O
  O10      1.0000 0.16340  0.75890  0.70468  Biso   1.000  O
  O11      1.0000 0.14140  0.67430  0.59432  Biso   1.000  O
  O12      1.0000 0.71010  0.85440  0.78721  Biso   1.000  O
  N1       1.0000 0.78340  0.10950  0.66748  Biso   1.000  N
  N2       1.0000 0.32550  0.51120  0.82730  Biso   1.000  N
  N3       1.0000 0.10820  0.32710  0.50191  Biso   1.000  N
  C1       1.0000 0.85110  0.91460  0.67017  Biso   1.000  C
  C2       1.0000 0.39830  0.70110  0.81803  Biso   1.000  C
  C3       1.0000 0.24180  0.64500  0.76880  Biso   1.000  C
  C4       1.0000 0.11940  0.50790  0.54542  Biso   1.000  C
  C5       1.0000 0.31880  0.72640  0.78194  Biso   1.000  C
  H1       1.0000 0.31670  0.79940  0.76610  Biso   1.000  H
  C6       1.0000 0.91800  0.82580  0.65066  Biso   1.000  C
  C7       1.0000 0.84150  0.02640  0.65212  Biso   1.000  C
  H2       1.0000 0.87800  0.04590  0.62750  Biso   1.000  H
  C8       1.0000 0.15280  0.56540  0.50853  Biso   1.000  C
  H3       1.0000 0.17020  0.64600  0.51120  Biso   1.000  H
  C9       1.0000 0.10220  0.57500  0.58903  Biso   1.000  C
  C10      1.0000 0.39800  0.59260  0.84056  Biso   1.000  C
  H4       1.0000 0.45130  0.57570  0.86630  Biso   1.000  H
  C11      1.0000 0.19010  0.56660  0.42629  Biso   1.000  C
  C12      1.0000 0.74600  0.97360  0.72558  Biso   1.000  C
  C13      1.0000 0.24930  0.53850  0.79207  Biso   1.000  C
  H5       1.0000 0.19760  0.48170  0.78250  Biso   1.000  H
  C14      1.0000 0.15460  0.66880  0.72898  Biso   1.000  C
  C15      1.0000 0.80160  0.88700  0.70744  Biso   1.000  C
  H6       1.0000 0.80570  0.81040  0.72030  Biso   1.000  H
  C16      1.0000 0.73710  0.08280  0.70405  Biso   1.000  C
  H7       1.0000 0.69670  0.14080  0.71570  Biso   1.000  H
  C17      1.0000 0.48700  0.78320  0.83109  Biso   1.000  C
  C18      1.0000 0.16060  0.50390  0.46752  Biso   1.000  C
  C19      1.0000 0.13740  0.38470  0.46637  Biso   1.000  C
  H8       1.0000 0.14290  0.34230  0.43850  Biso   1.000  H
  C20      1.0000 0.69580  0.95320  0.76839  Biso   1.000  C
  C21      1.0000 0.09850  0.38950  0.54062  Biso   1.000  C
  H9       1.0000 0.07600  0.35010  0.56610  Biso   1.000  H
  Mn4      1.0000 0.54101  0.04889  0.83137  Biso   1.000  Mn
  Mn5      1.0000 0.35340  0.32855  0.86450  Biso   1.000  Mn
  Mn6      1.0000 0.78528  0.29780  0.64312  Biso   1.000  Mn
  O13      1.0000 0.51460  0.36420  0.87012  Biso   1.000  O
  O14      1.0000 0.94040  0.25130  0.63721  Biso   1.000  O
  O15      1.0000 0.32630  0.01990  0.11439  Biso   1.000  O
  O16      1.0000 0.44930  0.02410  0.88428  Biso   1.000  O
  O17      1.0000 0.60230  0.22040  0.84266  Biso   1.000  O
  O18      1.0000 0.85460  0.53580  0.71899  Biso   1.000  O
  O19      1.0000 0.26970  0.16600  0.06715  Biso   1.000  O
  O20      1.0000 0.01600  0.37630  0.69215  Biso   1.000  O
  O21      1.0000 0.41940  0.10010  0.77572  Biso   1.000  O
  O22      1.0000 0.33660  0.25890  0.79532  Biso   1.000  O
  O23      1.0000 0.35860  0.17430  0.90568  Biso   1.000  O
  O24      1.0000 0.78990  0.35440  0.71279  Biso   1.000  O
  N4       1.0000 0.71660  0.60950  0.83252  Biso   1.000  N
  N5       1.0000 0.17450  0.01120  0.67270  Biso   1.000  N
  N6       1.0000 0.39180  0.82710  0.99809  Biso   1.000  N
  C22      1.0000 0.64890  0.41460  0.82983  Biso   1.000  C
  C23      1.0000 0.10170  0.20110  0.68197  Biso   1.000  C
  C24      1.0000 0.25820  0.14500  0.73120  Biso   1.000  C
  C25      1.0000 0.38060  0.00790  0.95458  Biso   1.000  C
  C26      1.0000 0.18120  0.22640  0.71806  Biso   1.000  C
  H10      1.0000 0.18330  0.29940  0.73390  Biso   1.000  H
  C27      1.0000 0.58200  0.32580  0.84934  Biso   1.000  C
  C28      1.0000 0.65850  0.52640  0.84788  Biso   1.000  C
  H11      1.0000 0.62200  0.54590  0.87250  Biso   1.000  H
  C29      1.0000 0.34720  0.06540  0.99147  Biso   1.000  C
  H12      1.0000 0.32980  0.14600  0.98880  Biso   1.000  H
  C30      1.0000 0.39780  0.07500  0.91097  Biso   1.000  C
  C31      1.0000 0.10200  0.09260  0.65944  Biso   1.000  C
  H13      1.0000 0.04870  0.07570  0.63370  Biso   1.000  H
  C32      1.0000 0.30990  0.06660  0.07371  Biso   1.000  C
  C33      1.0000 0.75400  0.47360  0.77442  Biso   1.000  C
  C34      1.0000 0.25070  0.03850  0.70793  Biso   1.000  C
  H14      1.0000 0.30240  0.98170  0.71750  Biso   1.000  H
  C35      1.0000 0.34540  0.16880  0.77102  Biso   1.000  C
  C36      1.0000 0.69840  0.38700  0.79256  Biso   1.000  C
  H15      1.0000 0.69430  0.31040  0.77970  Biso   1.000  H
  C37      1.0000 0.76290  0.58280  0.79595  Biso   1.000  C
  H16      1.0000 0.80330  0.64080  0.78430  Biso   1.000  H
  C38      1.0000 0.01300  0.28320  0.66891  Biso   1.000  C
  C39      1.0000 0.33940  0.00390  0.03248  Biso   1.000  C
  C40      1.0000 0.36260  0.88470  0.03363  Biso   1.000  C
  H17      1.0000 0.35710  0.84230  0.06150  Biso   1.000  H
  C41      1.0000 0.80420  0.45320  0.73161  Biso   1.000  C
  C42      1.0000 0.40150  0.88950  0.95938  Biso   1.000  C
  H18      1.0000 0.42400  0.85010  0.93390  Biso   1.000  H
  Mn7      1.0000 0.04101  0.45111  0.33137  Biso   1.000  Mn
  Mn8      1.0000 0.85340  0.17145  0.36450  Biso   1.000  Mn
  Mn9      1.0000 0.28528  0.20220  0.14312  Biso   1.000  Mn
  O25      1.0000 0.01460  0.13580  0.37012  Biso   1.000  O
  O26      1.0000 0.44040  0.24870  0.13721  Biso   1.000  O
  O27      1.0000 0.82630  0.48010  0.61439  Biso   1.000  O
  O28      1.0000 0.94930  0.47590  0.38428  Biso   1.000  O
  O29      1.0000 0.10230  0.27960  0.34266  Biso   1.000  O
  O30      1.0000 0.35460  0.96420  0.21899  Biso   1.000  O
  O31      1.0000 0.76970  0.33400  0.56715  Biso   1.000  O
  O32      1.0000 0.51600  0.12370  0.19215  Biso   1.000  O
  O33      1.0000 0.91940  0.39990  0.27572  Biso   1.000  O
  O34      1.0000 0.83660  0.24110  0.29532  Biso   1.000  O
  O35      1.0000 0.85860  0.32570  0.40568  Biso   1.000  O
  O36      1.0000 0.28990  0.14560  0.21279  Biso   1.000  O
  N7       1.0000 0.21660  0.89050  0.33252  Biso   1.000  N
  N8       1.0000 0.67450  0.48880  0.17270  Biso   1.000  N
  N9       1.0000 0.89180  0.67290  0.49809  Biso   1.000  N
  C43      1.0000 0.14890  0.08540  0.32983  Biso   1.000  C
  C44      1.0000 0.60170  0.29890  0.18197  Biso   1.000  C
  C45      1.0000 0.75820  0.35500  0.23120  Biso   1.000  C
  C46      1.0000 0.88060  0.49210  0.45458  Biso   1.000  C
  C47      1.0000 0.68120  0.27360  0.21806  Biso   1.000  C
  H19      1.0000 0.68330  0.20060  0.23390  Biso   1.000  H
  C48      1.0000 0.08200  0.17420  0.34934  Biso   1.000  C
  C49      1.0000 0.15850  0.97360  0.34788  Biso   1.000  C
  H20      1.0000 0.12200  0.95410  0.37250  Biso   1.000  H
  C50      1.0000 0.84720  0.43460  0.49147  Biso   1.000  C
  H21      1.0000 0.82980  0.35400  0.48880  Biso   1.000  H
  C51      1.0000 0.89780  0.42500  0.41097  Biso   1.000  C
  C52      1.0000 0.60200  0.40740  0.15944  Biso   1.000  C
  H22      1.0000 0.54870  0.42430  0.13370  Biso   1.000  H
  C53      1.0000 0.80990  0.43340  0.57371  Biso   1.000  C
  C54      1.0000 0.25400  0.02640  0.27442  Biso   1.000  C
  C55      1.0000 0.75070  0.46150  0.20793  Biso   1.000  C
  H23      1.0000 0.80240  0.51830  0.21750  Biso   1.000  H
  C56      1.0000 0.84540  0.33120  0.27102  Biso   1.000  C
  C57      1.0000 0.19840  0.11300  0.29256  Biso   1.000  C
  H24      1.0000 0.19430  0.18960  0.27970  Biso   1.000  H
  C58      1.0000 0.26290  0.91720  0.29595  Biso   1.000  C
  H25      1.0000 0.30330  0.85920  0.28430  Biso   1.000  H
  C59      1.0000 0.51300  0.21680  0.16891  Biso   1.000  C
  C60      1.0000 0.83940  0.49610  0.53248  Biso   1.000  C
  C61      1.0000 0.86260  0.61530  0.53363  Biso   1.000  C
  H26      1.0000 0.85710  0.65770  0.56150  Biso   1.000  H
  C62      1.0000 0.30420  0.04680  0.23161  Biso   1.000  C
  C63      1.0000 0.90150  0.61050  0.45938  Biso   1.000  C
  H27      1.0000 0.92400  0.64990  0.43390  Biso   1.000  H
  Mn10     1.0000 0.45899  0.95111  0.16863  Biso   1.000  Mn
  Mn11     1.0000 0.64660  0.67145  0.13550  Biso   1.000  Mn
  Mn12     1.0000 0.21472  0.70220  0.35688  Biso   1.000  Mn
  O37      1.0000 0.48540  0.63580  0.12988  Biso   1.000  O
  O38      1.0000 0.05960  0.74870  0.36279  Biso   1.000  O
  O39      1.0000 0.67370  0.98010  0.88561  Biso   1.000  O
  O40      1.0000 0.55070  0.97590  0.11572  Biso   1.000  O
  O41      1.0000 0.39770  0.77960  0.15734  Biso   1.000  O
  O42      1.0000 0.14540  0.46420  0.28101  Biso   1.000  O
  O43      1.0000 0.73030  0.83400  0.93285  Biso   1.000  O
  O44      1.0000 0.98400  0.62370  0.30785  Biso   1.000  O
  O45      1.0000 0.58060  0.89990  0.22428  Biso   1.000  O
  O46      1.0000 0.66340  0.74110  0.20468  Biso   1.000  O
  O47      1.0000 0.64140  0.82570  0.09432  Biso   1.000  O
  O48      1.0000 0.21010  0.64560  0.28721  Biso   1.000  O
  N10      1.0000 0.28340  0.39050  0.16748  Biso   1.000  N
  N11      1.0000 0.82550  0.98880  0.32730  Biso   1.000  N
  N12      1.0000 0.60820  0.17290  0.00191  Biso   1.000  N
  C64      1.0000 0.35110  0.58540  0.17017  Biso   1.000  C
  C65      1.0000 0.89830  0.79890  0.31803  Biso   1.000  C
  C66      1.0000 0.74180  0.85500  0.26880  Biso   1.000  C
  C67      1.0000 0.61940  0.99210  0.04542  Biso   1.000  C
  C68      1.0000 0.81880  0.77360  0.28194  Biso   1.000  C
  H28      1.0000 0.81670  0.70060  0.26610  Biso   1.000  H
  C69      1.0000 0.41800  0.67420  0.15066  Biso   1.000  C
  C70      1.0000 0.34150  0.47360  0.15212  Biso   1.000  C
  H29      1.0000 0.37800  0.45410  0.12750  Biso   1.000  H
  C71      1.0000 0.65280  0.93460  0.00853  Biso   1.000  C
  H30      1.0000 0.67020  0.85400  0.01120  Biso   1.000  H
  C72      1.0000 0.60220  0.92500  0.08903  Biso   1.000  C
  C73      1.0000 0.89800  0.90740  0.34056  Biso   1.000  C
  H31      1.0000 0.95130  0.92430  0.36630  Biso   1.000  H
  C74      1.0000 0.69010  0.93340  0.92629  Biso   1.000  C
  C75      1.0000 0.24600  0.52640  0.22558  Biso   1.000  C
  C76      1.0000 0.74930  0.96150  0.29207  Biso   1.000  C
  H32      1.0000 0.69760  0.01830  0.28250  Biso   1.000  H
  C77      1.0000 0.65460  0.83120  0.22898  Biso   1.000  C
  C78      1.0000 0.30160  0.61300  0.20744  Biso   1.000  C
  H33      1.0000 0.30570  0.68960  0.22030  Biso   1.000  H
  C79      1.0000 0.23710  0.41720  0.20405  Biso   1.000  C
  H34      1.0000 0.19670  0.35920  0.21570  Biso   1.000  H
  C80      1.0000 0.98700  0.71680  0.33109  Biso   1.000  C
  C81      1.0000 0.66060  0.99610  0.96752  Biso   1.000  C
  C82      1.0000 0.63740  0.11530  0.96637  Biso   1.000  C
  H35      1.0000 0.64290  0.15770  0.93850  Biso   1.000  H
  C83      1.0000 0.19580  0.54680  0.26839  Biso   1.000  C
  C84      1.0000 0.59850  0.11050  0.04062  Biso   1.000  C
  H36      1.0000 0.57600  0.14990  0.06610  Biso   1.000  H
