data_image0
_cell_length_a       8.0234
_cell_length_b       30.2439
_cell_length_c       15.328
_cell_angle_alpha    90
_cell_angle_beta     90
_cell_angle_gamma    90

_symmetry_space_group_name_H-M    "P 1"
_symmetry_int_tables_number       1

loop_
  _symmetry_equiv_pos_as_xyz
  'x, y, z'

loop_
  _atom_site_label
  _atom_site_occupancy
  _atom_site_fract_x
  _atom_site_fract_y
  _atom_site_fract_z
  _atom_site_thermal_displace_type
  _atom_site_B_iso_or_equiv
  _atom_site_type_symbol
  Sm1      1.0000 0.43608  0.90701  0.70430  Biso   1.000  Sm
  O1       1.0000 0.65730  0.86874  0.81759  Biso   1.000  O
  O2       1.0000 0.39130  0.04198  0.38552  Biso   1.000  O
  O3       1.0000 0.25430  0.95998  0.65063  Biso   1.000  O
  O4       1.0000 0.48820  0.83050  0.73235  Biso   1.000  O
  O5       1.0000 0.23640  0.09708  0.33781  Biso   1.000  O
  O6       1.0000 0.00130  0.96958  0.70828  Biso   1.000  O
  N1       1.0000 0.92540  0.08242  0.56010  Biso   1.000  N
  C1       1.0000 0.59630  0.83219  0.79160  Biso   1.000  C
  C2       1.0000 0.16020  0.06078  0.47210  Biso   1.000  C
  C3       1.0000 0.02420  0.08790  0.49040  Biso   1.000  C
  H1       1.0000 0.00020  0.11150  0.45140  Biso   1.000  H
  C4       1.0000 0.11910  0.97985  0.65840  Biso   1.000  C
  C5       1.0000 0.26610  0.06641  0.39270  Biso   1.000  C
  C6       1.0000 0.95850  0.04793  0.61230  Biso   1.000  C
  H2       1.0000 0.88610  0.04270  0.66020  Biso   1.000  H
  C7       1.0000 0.64820  0.78958  0.83280  Biso   1.000  C
  C8       1.0000 0.09250  0.01942  0.60030  Biso   1.000  C
  C9       1.0000 0.74240  0.78794  0.90890  Biso   1.000  C
  H3       1.0000 0.77650  0.81500  0.93470  Biso   1.000  H
  C10      1.0000 0.19590  0.02656  0.52980  Biso   1.000  C
  H4       1.0000 0.29060  0.00830  0.52070  Biso   1.000  H
  Sm2      1.0000 0.06392  0.09299  0.20430  Biso   1.000  Sm
  O7       1.0000 0.84270  0.13126  0.31759  Biso   1.000  O
  O8       1.0000 0.10870  0.95802  0.88552  Biso   1.000  O
  O9       1.0000 0.24570  0.04002  0.15063  Biso   1.000  O
  O10      1.0000 0.01180  0.16950  0.23235  Biso   1.000  O
  O11      1.0000 0.26360  0.90292  0.83781  Biso   1.000  O
  O12      1.0000 0.49870  0.03042  0.20828  Biso   1.000  O
  N2       1.0000 0.57460  0.91758  0.06010  Biso   1.000  N
  C11      1.0000 0.90370  0.16781  0.29160  Biso   1.000  C
  C12      1.0000 0.33980  0.93922  0.97210  Biso   1.000  C
  C13      1.0000 0.47580  0.91210  0.99040  Biso   1.000  C
  H5       1.0000 0.49980  0.88850  0.95140  Biso   1.000  H
  C14      1.0000 0.38090  0.02015  0.15840  Biso   1.000  C
  C15      1.0000 0.23390  0.93359  0.89270  Biso   1.000  C
  C16      1.0000 0.54150  0.95207  0.11230  Biso   1.000  C
  H6       1.0000 0.61390  0.95730  0.16020  Biso   1.000  H
  C17      1.0000 0.85180  0.21042  0.33280  Biso   1.000  C
  C18      1.0000 0.40750  0.98058  0.10030  Biso   1.000  C
  C19      1.0000 0.75760  0.21206  0.40890  Biso   1.000  C
  H7       1.0000 0.72350  0.18500  0.43470  Biso   1.000  H
  C20      1.0000 0.30410  0.97344  0.02980  Biso   1.000  C
  H8       1.0000 0.20940  0.99170  0.02070  Biso   1.000  H
  Sm3      1.0000 0.56392  0.40701  0.29570  Biso   1.000  Sm
  O13      1.0000 0.34270  0.36874  0.18241  Biso   1.000  O
  O14      1.0000 0.60870  0.54198  0.61448  Biso   1.000  O
  O15      1.0000 0.74570  0.45998  0.34937  Biso   1.000  O
  O16      1.0000 0.51180  0.33050  0.26765  Biso   1.000  O
  O17      1.0000 0.76360  0.59708  0.66219  Biso   1.000  O
  O18      1.0000 0.99870  0.46958  0.29172  Biso   1.000  O
  N3       1.0000 0.07460  0.58242  0.43990  Biso   1.000  N
  C21      1.0000 0.40370  0.33219  0.20840  Biso   1.000  C
  C22      1.0000 0.83980  0.56078  0.52790  Biso   1.000  C
  C23      1.0000 0.97580  0.58790  0.50960  Biso   1.000  C
  H9       1.0000 0.99980  0.61150  0.54860  Biso   1.000  H
  C24      1.0000 0.88090  0.47985  0.34160  Biso   1.000  C
  C25      1.0000 0.73390  0.56641  0.60730  Biso   1.000  C
  C26      1.0000 0.04150  0.54793  0.38770  Biso   1.000  C
  H10      1.0000 0.11390  0.54270  0.33980  Biso   1.000  H
  C27      1.0000 0.35180  0.28958  0.16720  Biso   1.000  C
  C28      1.0000 0.90750  0.51942  0.39970  Biso   1.000  C
  C29      1.0000 0.25760  0.28794  0.09110  Biso   1.000  C
  H11      1.0000 0.22350  0.31500  0.06530  Biso   1.000  H
  C30      1.0000 0.80410  0.52656  0.47020  Biso   1.000  C
  H12      1.0000 0.70940  0.50830  0.47930  Biso   1.000  H
  Sm4      1.0000 0.93608  0.59299  0.79570  Biso   1.000  Sm
  O19      1.0000 0.15730  0.63126  0.68241  Biso   1.000  O
  O20      1.0000 0.89130  0.45802  0.11448  Biso   1.000  O
  O21      1.0000 0.75430  0.54002  0.84937  Biso   1.000  O
  O22      1.0000 0.98820  0.66950  0.76765  Biso   1.000  O
  O23      1.0000 0.73640  0.40292  0.16219  Biso   1.000  O
  O24      1.0000 0.50130  0.53042  0.79172  Biso   1.000  O
  N4       1.0000 0.42540  0.41758  0.93990  Biso   1.000  N
  C31      1.0000 0.09630  0.66781  0.70840  Biso   1.000  C
  C32      1.0000 0.66020  0.43922  0.02790  Biso   1.000  C
  C33      1.0000 0.52420  0.41210  0.00960  Biso   1.000  C
  H13      1.0000 0.50020  0.38850  0.04860  Biso   1.000  H
  C34      1.0000 0.61910  0.52015  0.84160  Biso   1.000  C
  C35      1.0000 0.76610  0.43359  0.10730  Biso   1.000  C
  C36      1.0000 0.45850  0.45207  0.88770  Biso   1.000  C
  H14      1.0000 0.38610  0.45730  0.83980  Biso   1.000  H
  C37      1.0000 0.14820  0.71042  0.66720  Biso   1.000  C
  C38      1.0000 0.59250  0.48058  0.89970  Biso   1.000  C
  C39      1.0000 0.24240  0.71206  0.59110  Biso   1.000  C
  H15      1.0000 0.27650  0.68500  0.56530  Biso   1.000  H
  C40      1.0000 0.69590  0.47344  0.97020  Biso   1.000  C
  H16      1.0000 0.79060  0.49170  0.97930  Biso   1.000  H
  Sm5      1.0000 0.56392  0.09299  0.29570  Biso   1.000  Sm
  O25      1.0000 0.34270  0.13126  0.18241  Biso   1.000  O
  O26      1.0000 0.60870  0.95802  0.61448  Biso   1.000  O
  O27      1.0000 0.74570  0.04002  0.34937  Biso   1.000  O
  O28      1.0000 0.51180  0.16950  0.26765  Biso   1.000  O
  O29      1.0000 0.76360  0.90292  0.66219  Biso   1.000  O
  O30      1.0000 0.99870  0.03042  0.29172  Biso   1.000  O
  N5       1.0000 0.07460  0.91758  0.43990  Biso   1.000  N
  C41      1.0000 0.40370  0.16781  0.20840  Biso   1.000  C
  C42      1.0000 0.83980  0.93922  0.52790  Biso   1.000  C
  C43      1.0000 0.97580  0.91210  0.50960  Biso   1.000  C
  H17      1.0000 0.99980  0.88850  0.54860  Biso   1.000  H
  C44      1.0000 0.88090  0.02015  0.34160  Biso   1.000  C
  C45      1.0000 0.73390  0.93359  0.60730  Biso   1.000  C
  C46      1.0000 0.04150  0.95207  0.38770  Biso   1.000  C
  H18      1.0000 0.11390  0.95730  0.33980  Biso   1.000  H
  C47      1.0000 0.35180  0.21042  0.16720  Biso   1.000  C
  C48      1.0000 0.90750  0.98058  0.39970  Biso   1.000  C
  C49      1.0000 0.25760  0.21206  0.09110  Biso   1.000  C
  H19      1.0000 0.22350  0.18500  0.06530  Biso   1.000  H
  C50      1.0000 0.80410  0.97344  0.47020  Biso   1.000  C
  H20      1.0000 0.70940  0.99170  0.47930  Biso   1.000  H
  Sm6      1.0000 0.93608  0.90701  0.79570  Biso   1.000  Sm
  O31      1.0000 0.15730  0.86874  0.68241  Biso   1.000  O
  O32      1.0000 0.89130  0.04198  0.11448  Biso   1.000  O
  O33      1.0000 0.75430  0.95998  0.84937  Biso   1.000  O
  O34      1.0000 0.98820  0.83050  0.76765  Biso   1.000  O
  O35      1.0000 0.73640  0.09708  0.16219  Biso   1.000  O
  O36      1.0000 0.50130  0.96958  0.79172  Biso   1.000  O
  N6       1.0000 0.42540  0.08242  0.93990  Biso   1.000  N
  C51      1.0000 0.09630  0.83219  0.70840  Biso   1.000  C
  C52      1.0000 0.66020  0.06078  0.02790  Biso   1.000  C
  C53      1.0000 0.52420  0.08790  0.00960  Biso   1.000  C
  H21      1.0000 0.50020  0.11150  0.04860  Biso   1.000  H
  C54      1.0000 0.61910  0.97985  0.84160  Biso   1.000  C
  C55      1.0000 0.76610  0.06641  0.10730  Biso   1.000  C
  C56      1.0000 0.45850  0.04793  0.88770  Biso   1.000  C
  H22      1.0000 0.38610  0.04270  0.83980  Biso   1.000  H
  C57      1.0000 0.14820  0.78958  0.66720  Biso   1.000  C
  C58      1.0000 0.59250  0.01942  0.89970  Biso   1.000  C
  C59      1.0000 0.24240  0.78794  0.59110  Biso   1.000  C
  H23      1.0000 0.27650  0.81500  0.56530  Biso   1.000  H
  C60      1.0000 0.69590  0.02656  0.97020  Biso   1.000  C
  H24      1.0000 0.79060  0.00830  0.97930  Biso   1.000  H
  Sm7      1.0000 0.43608  0.59299  0.70430  Biso   1.000  Sm
  O37      1.0000 0.65730  0.63126  0.81759  Biso   1.000  O
  O38      1.0000 0.39130  0.45802  0.38552  Biso   1.000  O
  O39      1.0000 0.25430  0.54002  0.65063  Biso   1.000  O
  O40      1.0000 0.48820  0.66950  0.73235  Biso   1.000  O
  O41      1.0000 0.23640  0.40292  0.33781  Biso   1.000  O
  O42      1.0000 0.00130  0.53042  0.70828  Biso   1.000  O
  N7       1.0000 0.92540  0.41758  0.56010  Biso   1.000  N
  C61      1.0000 0.59630  0.66781  0.79160  Biso   1.000  C
  C62      1.0000 0.16020  0.43922  0.47210  Biso   1.000  C
  C63      1.0000 0.02420  0.41210  0.49040  Biso   1.000  C
  H25      1.0000 0.00020  0.38850  0.45140  Biso   1.000  H
  C64      1.0000 0.11910  0.52015  0.65840  Biso   1.000  C
  C65      1.0000 0.26610  0.43359  0.39270  Biso   1.000  C
  C66      1.0000 0.95850  0.45207  0.61230  Biso   1.000  C
  H26      1.0000 0.88610  0.45730  0.66020  Biso   1.000  H
  C67      1.0000 0.64820  0.71042  0.83280  Biso   1.000  C
  C68      1.0000 0.09250  0.48058  0.60030  Biso   1.000  C
  C69      1.0000 0.74240  0.71206  0.90890  Biso   1.000  C
  H27      1.0000 0.77650  0.68500  0.93470  Biso   1.000  H
  C70      1.0000 0.19590  0.47344  0.52980  Biso   1.000  C
  H28      1.0000 0.29060  0.49170  0.52070  Biso   1.000  H
  Sm8      1.0000 0.06392  0.40701  0.20430  Biso   1.000  Sm
  O43      1.0000 0.84270  0.36874  0.31759  Biso   1.000  O
  O44      1.0000 0.10870  0.54198  0.88552  Biso   1.000  O
  O45      1.0000 0.24570  0.45998  0.15063  Biso   1.000  O
  O46      1.0000 0.01180  0.33050  0.23235  Biso   1.000  O
  O47      1.0000 0.26360  0.59708  0.83781  Biso   1.000  O
  O48      1.0000 0.49870  0.46958  0.20828  Biso   1.000  O
  N8       1.0000 0.57460  0.58242  0.06010  Biso   1.000  N
  C71      1.0000 0.90370  0.33219  0.29160  Biso   1.000  C
  C72      1.0000 0.33980  0.56078  0.97210  Biso   1.000  C
  C73      1.0000 0.47580  0.58790  0.99040  Biso   1.000  C
  H29      1.0000 0.49980  0.61150  0.95140  Biso   1.000  H
  C74      1.0000 0.38090  0.47985  0.15840  Biso   1.000  C
  C75      1.0000 0.23390  0.56641  0.89270  Biso   1.000  C
  C76      1.0000 0.54150  0.54793  0.11230  Biso   1.000  C
  H30      1.0000 0.61390  0.54270  0.16020  Biso   1.000  H
  C77      1.0000 0.85180  0.28958  0.33280  Biso   1.000  C
  C78      1.0000 0.40750  0.51942  0.10030  Biso   1.000  C
  C79      1.0000 0.75760  0.28794  0.40890  Biso   1.000  C
  H31      1.0000 0.72350  0.31500  0.43470  Biso   1.000  H
  C80      1.0000 0.30410  0.52656  0.02980  Biso   1.000  C
  H32      1.0000 0.20940  0.50830  0.02070  Biso   1.000  H
  N9       1.0000 0.78750  0.75000  0.94780  Biso   1.000  N
  C81      1.0000 0.59860  0.75000  0.79450  Biso   1.000  C
  H33      1.0000 0.53220  0.75000  0.74320  Biso   1.000  H
  N10      1.0000 0.71250  0.25000  0.44780  Biso   1.000  N
  C82      1.0000 0.90140  0.25000  0.29450  Biso   1.000  C
  H34      1.0000 0.96780  0.25000  0.24320  Biso   1.000  H
  N11      1.0000 0.21250  0.25000  0.05220  Biso   1.000  N
  C83      1.0000 0.40140  0.25000  0.20550  Biso   1.000  C
  H35      1.0000 0.46780  0.25000  0.25680  Biso   1.000  H
  N12      1.0000 0.28750  0.75000  0.55220  Biso   1.000  N
  C84      1.0000 0.09860  0.75000  0.70550  Biso   1.000  C
  H36      1.0000 0.03220  0.75000  0.75680  Biso   1.000  H
