data_BIYXUE_charged
_audit_creation_date              2015-10-16
_audit_creation_method            'Materials Studio'
_symmetry_space_group_name_H-M    'P1'
_symmetry_Int_Tables_number       1
_symmetry_cell_setting            triclinic
loop_
_symmetry_equiv_pos_as_xyz
  x,y,z
_cell_length_a                    24.0500
_cell_length_b                    24.1042
_cell_length_c                    24.6219
_cell_angle_alpha                 86.0880
_cell_angle_beta                  61.6130
_cell_angle_gamma                 61.3930
loop_
_atom_site_label
_atom_site_type_symbol
_atom_site_fract_x
_atom_site_fract_y
_atom_site_fract_z
_atom_site_U_iso_or_equiv
_atom_site_adp_type
_atom_site_occupancy
Dy1    Dy    0.36773   0.20258   0.84447   0.01267  Uiso   1.00
Dy2    Dy    0.85975   0.35600   0.70394   0.01267  Uiso   1.00
Dy3    Dy    0.63227   0.79742   0.15553   0.01267  Uiso   1.00
Dy4    Dy    0.14025   0.64400   0.29606   0.01267  Uiso   1.00
Dy5    Dy    0.76211   0.22432   0.25564   0.01267  Uiso   1.00
Dy6    Dy    0.23789   0.77568   0.74436   0.01267  Uiso   1.00
H1     H     0.60610   0.57640   0.24540   0.01267  Uiso   1.00
H2     H     0.58070   0.99430   0.90080   0.01267  Uiso   1.00
H3     H     0.39800   0.87140   0.53430   0.01267  Uiso   1.00
H4     H     0.96430   0.80890   0.41120   0.01267  Uiso   1.00
H5     H     0.56050   0.69320   0.39100   0.01267  Uiso   1.00
H6     H     0.34020   0.21840   0.69610   0.01267  Uiso   1.00
H7     H     0.77160   0.00310   0.14740   0.01267  Uiso   1.00
H8     H     0.05910   0.68030   0.18710   0.01267  Uiso   1.00
H9     H     0.07810   0.96910   0.81630   0.01267  Uiso   1.00
H10    H     0.25640   0.22440   0.67180   0.01267  Uiso   1.00
H11    H     0.74990   0.34900   0.04610   0.01267  Uiso   1.00
H12    H     0.28920   0.52680   0.10300   0.01267  Uiso   1.00
H13    H     0.47890   0.68320   0.47900   0.01267  Uiso   1.00
H14    H     0.35540   0.49210   0.69960   0.01267  Uiso   1.00
H15    H     0.78720   0.60060   0.07820   0.01267  Uiso   1.00
H16    H     0.13620   0.68000   0.82530   0.01267  Uiso   1.00
H17    H     0.00100   0.94730   0.20820   0.01267  Uiso   1.00
H18    H     0.23900   0.57840   0.39280   0.01267  Uiso   1.00
H19    H     0.65390   0.29710   0.16840   0.01267  Uiso   1.00
H20    H     0.60200   0.12860   0.46570   0.01267  Uiso   1.00
H21    H     0.06340   0.76380   0.54660   0.01267  Uiso   1.00
H22    H     0.51070   0.98570   0.26290   0.01267  Uiso   1.00
H23    H     0.59060   0.11750   0.56060   0.01267  Uiso   1.00
H24    H     0.10570   0.85640   0.93600   0.01267  Uiso   1.00
H25    H     0.06940   0.39110   0.47560   0.01267  Uiso   1.00
H26    H     0.73230   0.38730   0.54460   0.01267  Uiso   1.00
H27    H     0.89200   0.90310   0.38980   0.01267  Uiso   1.00
H28    H     0.67430   0.41170   0.33370   0.01267  Uiso   1.00
H29    H     0.95960   0.66010   0.44160   0.01267  Uiso   1.00
H30    H     0.81710   0.68400   0.98240   0.01267  Uiso   1.00
H31    H     0.04700   0.28720   0.04850   0.01267  Uiso   1.00
H32    H     0.45920   0.65710   0.82580   0.01267  Uiso   1.00
H33    H     0.41120   0.87320   0.22140   0.01267  Uiso   1.00
H34    H     0.81600   0.90600   0.00140   0.01267  Uiso   1.00
H35    H     0.84210   0.01150   0.39270   0.01267  Uiso   1.00
H36    H     0.43950   0.60210   0.66150   0.01267  Uiso   1.00
H37    H     0.91020   0.56090   0.59690   0.01267  Uiso   1.00
H38    H     0.50460   0.32820   0.87940   0.01267  Uiso   1.00
H39    H     0.43020   0.67240   0.58130   0.01267  Uiso   1.00
H40    H     0.62210   0.95220   0.95610   0.01267  Uiso   1.00
H41    H     0.33370   0.83150   0.25830   0.01267  Uiso   1.00
H42    H     0.89430   0.14360   0.06400   0.01267  Uiso   1.00
H43    H     0.86620   0.16480   0.35080   0.01267  Uiso   1.00
H44    H     0.93060   0.60890   0.52440   0.01267  Uiso   1.00
H45    H     0.86970   0.55080   0.81990   0.01267  Uiso   1.00
H46    H     0.68100   0.33080   0.42100   0.01267  Uiso   1.00
H47    H     0.32960   0.09780   0.98070   0.01267  Uiso   1.00
H48    H     0.44880   0.88220   0.33490   0.01267  Uiso   1.00
H49    H     0.15090   0.40300   0.08250   0.01267  Uiso   1.00
H50    H     0.74360   0.77560   0.32820   0.01267  Uiso   1.00
H51    H     0.34610   0.42450   0.35890   0.01267  Uiso   1.00
H52    H     0.53000   0.04360   0.83770   0.01267  Uiso   1.00
H53    H     0.90390   0.45250   0.76990   0.01267  Uiso   1.00
H54    H     0.55120   0.11780   0.66510   0.01267  Uiso   1.00
H55    H     0.90780   0.63950   0.16980   0.01267  Uiso   1.00
H56    H     0.98590   0.74170   0.84740   0.01267  Uiso   1.00
H57    H     0.32550   0.42810   0.05160   0.01267  Uiso   1.00
H58    H     0.55580   0.56250   0.64870   0.01267  Uiso   1.00
H59    H     0.85560   0.19020   0.71730   0.01267  Uiso   1.00
H60    H     0.82060   0.50930   0.11960   0.01267  Uiso   1.00
H61    H     0.64450   0.69020   0.94400   0.01267  Uiso   1.00
H62    H     0.26900   0.10740   0.90870   0.01267  Uiso   1.00
H63    H     0.13030   0.44920   0.18010   0.01267  Uiso   1.00
H64    H     0.86380   0.32000   0.17470   0.01267  Uiso   1.00
H65    H     0.73100   0.89260   0.09130   0.01267  Uiso   1.00
H66    H     0.71080   0.47320   0.89700   0.01267  Uiso   1.00
H67    H     0.08670   0.78590   0.21130   0.01267  Uiso   1.00
H68    H     0.71460   0.85660   0.22570   0.01267  Uiso   1.00
H69    H     0.28680   0.77580   0.30480   0.01267  Uiso   1.00
H70    H     0.25010   0.65100   0.95390   0.01267  Uiso   1.00
H71    H     0.94090   0.31970   0.81290   0.01267  Uiso   1.00
H72    H     0.56980   0.32760   0.41870   0.01267  Uiso   1.00
H73    H     0.21950   0.72150   0.34610   0.01267  Uiso   1.00
H74    H     0.46180   0.93350   0.75290   0.01267  Uiso   1.00
H75    H     0.76840   0.51530   0.63390   0.01267  Uiso   1.00
H76    H     0.59710   0.69860   0.28640   0.01267  Uiso   1.00
H77    H     0.18400   0.09400   0.99860   0.01267  Uiso   1.00
H78    H     0.21280   0.39940   0.92180   0.01267  Uiso   1.00
H79    H     0.10800   0.09690   0.61020   0.01267  Uiso   1.00
H80    H     0.82620   0.74510   0.35780   0.01267  Uiso   1.00
H81    H     0.70810   0.35980   0.88740   0.01267  Uiso   1.00
H82    H     0.35730   0.58830   0.18550   0.01267  Uiso   1.00
H83    H     0.76620   0.09840   0.36480   0.01267  Uiso   1.00
H84    H     0.08980   0.43910   0.40310   0.01267  Uiso   1.00
H85    H     0.06920   0.10020   0.04720   0.01267  Uiso   1.00
H86    H     0.92900   0.24300   0.23870   0.01267  Uiso   1.00
H87    H     0.83790   0.41530   0.13560   0.01267  Uiso   1.00
H88    H     0.56900   0.71740   0.08440   0.01267  Uiso   1.00
H89    H     0.07100   0.75700   0.76130   0.01267  Uiso   1.00
H90    H     0.25700   0.06100   0.78910   0.01267  Uiso   1.00
H91    H     0.14440   0.80980   0.28270   0.01267  Uiso   1.00
H92    H     0.66830   0.50910   0.81660   0.01267  Uiso   1.00
H93    H     0.55620   0.56090   0.82190   0.01267  Uiso   1.00
H94    H     0.67040   0.90220   0.01930   0.01267  Uiso   1.00
H95    H     0.96650   0.27250   0.51460   0.01267  Uiso   1.00
H96    H     0.52110   0.31680   0.52100   0.01267  Uiso   1.00
H97    H     0.26770   0.61270   0.45540   0.01267  Uiso   1.00
H98    H     0.71320   0.22420   0.69520   0.01267  Uiso   1.00
H99    H     0.65390   0.57550   0.64110   0.01267  Uiso   1.00
H100   H     0.42480   0.33240   0.79710   0.01267  Uiso   1.00
H101   H     0.97590   0.67320   0.17050   0.01267  Uiso   1.00
H102   H     0.82240   0.64950   0.14580   0.01267  Uiso   1.00
H103   H     0.84910   0.59700   0.91750   0.01267  Uiso   1.00
H104   H     0.93080   0.89980   0.95280   0.01267  Uiso   1.00
H105   H     0.17760   0.35050   0.85420   0.01267  Uiso   1.00
H106   H     0.11670   0.84350   0.02540   0.01267  Uiso   1.00
H107   H     0.78050   0.27850   0.65390   0.01267  Uiso   1.00
H108   H     0.39390   0.42360   0.75460   0.01267  Uiso   1.00
H109   H     0.99900   0.05270   0.79180   0.01267  Uiso   1.00
H110   H     0.38180   0.22270   0.99680   0.01267  Uiso   1.00
H111   H     0.31900   0.66920   0.57900   0.01267  Uiso   1.00
H112   H     0.18290   0.31600   0.01760   0.01267  Uiso   1.00
H113   H     0.15790   0.98850   0.60730   0.01267  Uiso   1.00
H114   H     0.88600   0.50610   0.67830   0.01267  Uiso   1.00
H115   H     0.64460   0.50790   0.30040   0.01267  Uiso   1.00
H116   H     0.91330   0.21410   0.78870   0.01267  Uiso   1.00
H117   H     0.02770   0.90630   0.86710   0.01267  Uiso   1.00
H118   H     0.13240   0.29830   0.95620   0.01267  Uiso   1.00
H119   H     0.29190   0.64020   0.11260   0.01267  Uiso   1.00
H120   H     0.09610   0.54750   0.23010   0.01267  Uiso   1.00
H121   H     0.01410   0.25830   0.15260   0.01267  Uiso   1.00
H122   H     0.23160   0.48470   0.36610   0.01267  Uiso   1.00
H123   H     0.76550   0.33280   0.13290   0.01267  Uiso   1.00
H124   H     0.34610   0.70290   0.83160   0.01267  Uiso   1.00
H125   H     0.80810   0.07990   0.13400   0.01267  Uiso   1.00
H126   H     0.49540   0.67180   0.12060   0.01267  Uiso   1.00
H127   H     0.95300   0.71280   0.95150   0.01267  Uiso   1.00
H128   H     0.41930   0.00570   0.09920   0.01267  Uiso   1.00
H129   H     0.23380   0.90160   0.63520   0.01267  Uiso   1.00
H130   H     0.07570   0.90370   0.26250   0.01267  Uiso   1.00
H131   H     0.67450   0.57190   0.94840   0.01267  Uiso   1.00
H132   H     0.04040   0.33990   0.55840   0.01267  Uiso   1.00
H133   H     0.43100   0.28260   0.91560   0.01267  Uiso   1.00
H134   H     0.71260   0.36650   0.48010   0.01267  Uiso   1.00
H135   H     0.16210   0.58470   0.86440   0.01267  Uiso   1.00
H136   H     0.60140   0.21460   0.25620   0.01267  Uiso   1.00
H137   H     0.92190   0.03090   0.18370   0.01267  Uiso   1.00
H138   H     0.03570   0.19110   0.58880   0.01267  Uiso   1.00
H139   H     0.58880   0.12680   0.77860   0.01267  Uiso   1.00
H140   H     0.11400   0.49390   0.32170   0.01267  Uiso   1.00
H141   H     0.40290   0.30140   0.71360   0.01267  Uiso   1.00
H142   H     0.88330   0.15650   0.97460   0.01267  Uiso   1.00
H143   H     0.17380   0.25490   0.64220   0.01267  Uiso   1.00
H144   H     0.64820   0.14160   0.36170   0.01267  Uiso   1.00
H145   H     0.33170   0.49090   0.18340   0.01267  Uiso   1.00
H146   H     0.22840   0.99690   0.85260   0.01267  Uiso   1.00
H147   H     0.76100   0.42160   0.60720   0.01267  Uiso   1.00
H148   H     0.43950   0.30680   0.60900   0.01267  Uiso   1.00
H149   H     0.70880   0.34160   0.98070   0.01267  Uiso   1.00
H150   H     0.97230   0.09370   0.13290   0.01267  Uiso   1.00
H151   H     0.93660   0.23620   0.45340   0.01267  Uiso   1.00
H152   H     0.54080   0.34290   0.17420   0.01267  Uiso   1.00
H153   H     0.02410   0.32680   0.82950   0.01267  Uiso   1.00
H154   H     0.29120   0.65840   0.01930   0.01267  Uiso   1.00
H155   H     0.86760   0.70170   0.04380   0.01267  Uiso   1.00
H156   H     0.57540   0.35960   0.85600   0.01267  Uiso   1.00
H157   H     0.66630   0.16850   0.74170   0.01267  Uiso   1.00
H158   H     0.53820   0.06650   0.24710   0.01267  Uiso   1.00
H159   H     0.92430   0.09630   0.73750   0.01267  Uiso   1.00
H160   H     0.03350   0.72750   0.48540   0.01267  Uiso   1.00
H161   H     0.57520   0.66760   0.20290   0.01267  Uiso   1.00
H162   H     0.42460   0.64040   0.14400   0.01267  Uiso   1.00
H163   H     0.91360   0.75070   0.37020   0.01267  Uiso   1.00
H164   H     0.37790   0.04780   0.04390   0.01267  Uiso   1.00
H165   H     0.91800   0.19420   0.88060   0.01267  Uiso   1.00
H166   H     0.13380   0.83520   0.64920   0.01267  Uiso   1.00
H167   H     0.44420   0.43750   0.35130   0.01267  Uiso   1.00
H168   H     0.43610   0.86090   0.72870   0.01267  Uiso   1.00
H169   H     0.56390   0.13910   0.27130   0.01267  Uiso   1.00
H170   H     0.09600   0.80100   0.59270   0.01267  Uiso   1.00
H171   H     0.23450   0.66720   0.86710   0.01267  Uiso   1.00
H172   H     0.90400   0.19900   0.40730   0.01267  Uiso   1.00
H173   H     0.56050   0.39790   0.33850   0.01267  Uiso   1.00
H174   H     0.64270   0.41170   0.81450   0.01267  Uiso   1.00
H175   H     0.08200   0.80580   0.11940   0.01267  Uiso   1.00
H176   H     0.32570   0.58830   0.66630   0.01267  Uiso   1.00
H177   H     0.61820   0.77730   0.00320   0.01267  Uiso   1.00
H178   H     0.35550   0.30980   0.05600   0.01267  Uiso   1.00
H179   H     0.40940   0.88250   0.43940   0.01267  Uiso   1.00
H180   H     0.47000   0.95640   0.16230   0.01267  Uiso   1.00
H181   H     0.08640   0.24930   0.62980   0.01267  Uiso   1.00
H182   H     0.35180   0.85840   0.63830   0.01267  Uiso   1.00
H183   H     0.44380   0.43910   0.17810   0.01267  Uiso   1.00
H184   H     0.48930   0.01430   0.73710   0.01267  Uiso   1.00
H185   H     0.19190   0.92010   0.86600   0.01267  Uiso   1.00
H186   H     0.17940   0.49070   0.88040   0.01267  Uiso   1.00
H187   H     0.09220   0.36050   0.83020   0.01267  Uiso   1.00
H188   H     0.28540   0.14340   0.77430   0.01267  Uiso   1.00
H189   H     0.65980   0.78160   0.30390   0.01267  Uiso   1.00
H190   H     0.74300   0.93900   0.21090   0.01267  Uiso   1.00
H191   H     0.39860   0.78540   0.74380   0.01267  Uiso   1.00
H192   H     0.28740   0.63350   0.51990   0.01267  Uiso   1.00
C1     C     0.10930   0.29110   0.73870   0.01267  Uiso   1.00
C2     C     0.19340   0.32470   0.81680   0.01267  Uiso   1.00
C3     C     0.40650   0.82990   0.54290   0.01267  Uiso   1.00
C4     C     0.09260   0.82890   0.30400   0.01267  Uiso   1.00
C5     C     0.23910   0.25020   0.70990   0.01267  Uiso   1.00
C6     C     0.55590   0.73550   0.31840   0.01267  Uiso   1.00
C7     C     0.48690   0.41090   0.31230   0.01267  Uiso   1.00
C8     C     0.29270   0.58730   0.70730   0.01267  Uiso   1.00
C9     C     0.47090   0.98520   0.08200   0.01267  Uiso   1.00
C10    C     0.61080   0.32810   0.20480   0.01267  Uiso   1.00
C11    C     0.93070   0.96790   0.30350   0.01267  Uiso   1.00
C12    C     0.12660   0.26810   0.67770   0.01267  Uiso   1.00
C13    C     0.55600   0.38620   0.30530   0.01267  Uiso   1.00
C14    C     0.35610   0.41900   0.78870   0.01267  Uiso   1.00
C15    C     0.76090   0.74980   0.29010   0.01267  Uiso   1.00
C16    C     0.25100   0.36820   0.07410   0.01267  Uiso   1.00
C17    C     0.96170   0.68950   0.21180   0.01267  Uiso   1.00
C18    C     0.36330   0.71270   0.22150   0.01267  Uiso   1.00
C19    C     0.36360   0.82920   0.76500   0.01267  Uiso   1.00
C20    C     0.03100   0.41600   0.51680   0.01267  Uiso   1.00
C21    C     0.40740   0.42670   0.26790   0.01267  Uiso   1.00
C22    C     0.92330   0.48280   0.63630   0.01267  Uiso   1.00
C23    C     0.49890   0.04410   0.88020   0.01267  Uiso   1.00
C24    C     0.14260   0.52340   0.19290   0.01267  Uiso   1.00
C25    C     0.75140   0.31510   0.94170   0.01267  Uiso   1.00
C26    C     0.14040   0.98530   0.65030   0.01267  Uiso   1.00
C27    C     0.68940   0.46980   0.27320   0.01267  Uiso   1.00
C28    C     0.31060   0.53020   0.72680   0.01267  Uiso   1.00
C29    C     0.33490   0.93830   0.78580   0.01267  Uiso   1.00
C30    C     0.67930   0.89930   0.22850   0.01267  Uiso   1.00
C31    C     0.77020   0.54130   0.13730   0.01267  Uiso   1.00
C32    C     0.52130   0.74000   0.12070   0.01267  Uiso   1.00
C33    C     0.09970   0.72480   0.51580   0.01267  Uiso   1.00
C34    C     0.06190   0.48500   0.41200   0.01267  Uiso   1.00
C35    C     0.55900   0.97600   0.25020   0.01267  Uiso   1.00
C36    C     0.18330   0.74530   0.00110   0.01267  Uiso   1.00
C37    C     0.89070   0.70890   0.26130   0.01267  Uiso   1.00
C38    C     0.81670   0.25470   0.99890   0.01267  Uiso   1.00
C39    C     0.23040   0.42860   0.10920   0.01267  Uiso   1.00
C40    C     0.78050   0.30660   0.04850   0.01267  Uiso   1.00
C41    C     0.03830   0.31050   0.78820   0.01267  Uiso   1.00
C42    C     0.37470   0.36470   0.81340   0.01267  Uiso   1.00
C43    C     0.42520   0.97630   0.75790   0.01267  Uiso   1.00
C44    C     0.81380   0.06640   0.33300   0.01267  Uiso   1.00
C45    C     0.05200   0.88370   0.29180   0.01267  Uiso   1.00
C46    C     0.99330   0.48200   0.52600   0.01267  Uiso   1.00
C47    C     0.94800   0.11630   0.70820   0.01267  Uiso   1.00
C48    C     0.64390   0.58100   0.21130   0.01267  Uiso   1.00
C49    C     0.35440   0.98940   0.77390   0.01267  Uiso   1.00
C50    C     0.72210   0.54770   0.91250   0.01267  Uiso   1.00
C51    C     0.61420   0.12590   0.24430   0.01267  Uiso   1.00
C52    C     0.16590   0.79410   0.62140   0.01267  Uiso   1.00
C53    C     0.76960   0.57140   0.89080   0.01267  Uiso   1.00
C54    C     0.94390   0.88380   0.36690   0.01267  Uiso   1.00
C55    C     0.14320   0.77340   0.58770   0.01267  Uiso   1.00
C56    C     0.18620   0.93360   0.66700   0.01267  Uiso   1.00
C57    C     0.81200   0.28590   0.45200   0.01267  Uiso   1.00
C58    C     0.81840   0.35860   0.19950   0.01267  Uiso   1.00
C59    C     0.73690   0.47250   0.21310   0.01267  Uiso   1.00
C60    C     0.41020   0.04650   0.00160   0.01267  Uiso   1.00
C61    C     0.99270   0.77650   0.85190   0.01267  Uiso   1.00
C62    C     0.21840   0.31540   0.02530   0.01267  Uiso   1.00
C63    C     0.21920   0.63670   0.46230   0.01267  Uiso   1.00
C64    C     0.01420   0.38580   0.56580   0.01267  Uiso   1.00
C65    C     0.73830   0.29500   0.69500   0.01267  Uiso   1.00
C66    C     0.98870   0.30650   0.77850   0.01267  Uiso   1.00
C67    C     0.90030   0.27520   0.48420   0.01267  Uiso   1.00
C68    C     0.94960   0.81860   0.90950   0.01267  Uiso   1.00
C69    C     0.20240   0.61620   0.42520   0.01267  Uiso   1.00
C70    C     0.53020   0.15790   0.65340   0.01267  Uiso   1.00
C71    C     0.66470   0.73900   0.98750   0.01267  Uiso   1.00
C72    C     0.14120   0.80680   0.99350   0.01267  Uiso   1.00
C73    C     0.87180   0.24040   0.82830   0.01267  Uiso   1.00
C74    C     0.38580   0.87410   0.75570   0.01267  Uiso   1.00
C75    C     0.19960   0.36710   0.06320   0.01267  Uiso   1.00
C76    C     0.81420   0.26500   0.94090   0.01267  Uiso   1.00
C77    C     0.59260   0.57330   0.73210   0.01267  Uiso   1.00
C78    C     0.24860   0.68490   0.05830   0.01267  Uiso   1.00
C79    C     0.90780   0.75000   0.97980   0.01267  Uiso   1.00
C80    C     0.40840   0.74390   0.19500   0.01267  Uiso   1.00
C81    C     0.33420   0.47920   0.22010   0.01267  Uiso   1.00
C82    C     0.83190   0.30870   0.49040   0.01267  Uiso   1.00
C83    C     0.44410   0.26450   0.68160   0.01267  Uiso   1.00
C84    C     0.44100   0.02400   0.74980   0.01267  Uiso   1.00
C85    C     0.55470   0.15700   0.59080   0.01267  Uiso   1.00
C86    C     0.01130   0.69350   0.22150   0.01267  Uiso   1.00
C87    C     0.65670   0.56020   0.67680   0.01267  Uiso   1.00
C88    C     0.24890   0.67400   0.11380   0.01267  Uiso   1.00
C89    C     0.75860   0.09140   0.16270   0.01267  Uiso   1.00
C90    C     0.10650   0.19000   0.03370   0.01267  Uiso   1.00
C91    C     0.48510   0.01510   0.97990   0.01267  Uiso   1.00
C92    C     0.78870   0.29700   0.10040   0.01267  Uiso   1.00
C93    C     0.71080   0.75340   0.27600   0.01267  Uiso   1.00
C94    C     0.73660   0.04600   0.17140   0.01267  Uiso   1.00
C95    C     0.26170   0.70500   0.30500   0.01267  Uiso   1.00
C96    C     0.07670   0.51720   0.36370   0.01267  Uiso   1.00
C97    C     0.52260   0.28700   0.85750   0.01267  Uiso   1.00
C98    C     0.87340   0.73190   0.32230   0.01267  Uiso   1.00
C99    C     0.96140   0.86860   0.91450   0.01267  Uiso   1.00
C100   C     0.27520   0.47450   0.32750   0.01267  Uiso   1.00
C101   C     0.34320   0.62630   0.21010   0.01267  Uiso   1.00
C102   C     0.13500   0.81450   0.94040   0.01267  Uiso   1.00
C103   C     0.85710   0.74310   0.03410   0.01267  Uiso   1.00
C104   C     0.47870   0.26000   0.87930   0.01267  Uiso   1.00
C105   C     0.82670   0.86390   0.00910   0.01267  Uiso   1.00
C106   C     0.98580   0.61420   0.43420   0.01267  Uiso   1.00
C107   C     0.86500   0.18550   0.05960   0.01267  Uiso   1.00
C108   C     0.87440   0.22830   0.88300   0.01267  Uiso   1.00
C109   C     0.16330   0.46500   0.16300   0.01267  Uiso   1.00
C110   C     0.53400   0.73220   0.38060   0.01267  Uiso   1.00
C111   C     0.59890   0.55280   0.78330   0.01267  Uiso   1.00
C112   C     0.85680   0.22660   0.41230   0.01267  Uiso   1.00
C113   C     0.01330   0.17210   0.62060   0.01267  Uiso   1.00
C114   C     0.80660   0.67530   0.18320   0.01267  Uiso   1.00
C115   C     0.05610   0.11620   0.63310   0.01267  Uiso   1.00
C116   C     0.07450   0.26500   0.67040   0.01267  Uiso   1.00
C117   C     0.40110   0.44720   0.21670   0.01267  Uiso   1.00
C118   C     0.55330   0.22150   0.50600   0.01267  Uiso   1.00
C119   C     0.57480   0.02370   0.24210   0.01267  Uiso   1.00
C120   C     0.45640   0.64580   0.79130   0.01267  Uiso   1.00
C121   C     0.83670   0.53500   0.83700   0.01267  Uiso   1.00
C122   C     0.89350   0.81000   0.96630   0.01267  Uiso   1.00
C123   C     0.00730   0.22350   0.14810   0.01267  Uiso   1.00
C124   C     0.78080   0.36330   0.53770   0.01267  Uiso   1.00
C125   C     0.18160   0.64140   0.80050   0.01267  Uiso   1.00
C126   C     0.50110   0.95590   0.11980   0.01267  Uiso   1.00
C127   C     0.32070   0.10070   0.77150   0.01267  Uiso   1.00
C128   C     0.12820   0.75960   0.17170   0.01267  Uiso   1.00
C129   C     0.63640   0.17080   0.23500   0.01267  Uiso   1.00
C130   C     0.69560   0.94890   0.22050   0.01267  Uiso   1.00
C131   C     0.00670   0.51800   0.47400   0.01267  Uiso   1.00
C132   C     0.12560   0.77170   0.11700   0.01267  Uiso   1.00
C133   C     0.47950   0.39730   0.26380   0.01267  Uiso   1.00
C134   C     0.74530   0.32440   0.45430   0.01267  Uiso   1.00
C135   C     0.97690   0.91240   0.32010   0.01267  Uiso   1.00
C136   C     0.59160   0.25610   0.80500   0.01267  Uiso   1.00
C137   C     0.28340   0.46750   0.81210   0.01267  Uiso   1.00
C138   C     0.66510   0.06170   0.21420   0.01267  Uiso   1.00
C139   C     0.33530   0.26100   0.01250   0.01267  Uiso   1.00
C140   C     0.57550   0.28700   0.42850   0.01267  Uiso   1.00
C141   C     0.22980   0.45870   0.86270   0.01267  Uiso   1.00
C142   C     0.38330   0.65720   0.18560   0.01267  Uiso   1.00
C143   C     0.69780   0.26290   0.71960   0.01267  Uiso   1.00
C144   C     0.26340   0.95400   0.82860   0.01267  Uiso   1.00
C145   C     0.51490   0.98490   0.02010   0.01267  Uiso   1.00
C146   C     0.80320   0.41540   0.17630   0.01267  Uiso   1.00
C147   C     0.44670   0.77850   0.49400   0.01267  Uiso   1.00
C148   C     0.96900   0.58400   0.48320   0.01267  Uiso   1.00
C149   C     0.21130   0.70300   0.89960   0.01267  Uiso   1.00
C150   C     0.46600   0.26780   0.61940   0.01267  Uiso   1.00
C151   C     0.18800   0.71410   0.54800   0.01267  Uiso   1.00
C152   C     0.85740   0.47660   0.80710   0.01267  Uiso   1.00
C153   C     0.25610   0.51110   0.11810   0.01267  Uiso   1.00
C154   C     0.16430   0.29020   0.74910   0.01267  Uiso   1.00
C155   C     0.98190   0.12670   0.13670   0.01267  Uiso   1.00
C156   C     0.68060   0.68790   0.95170   0.01267  Uiso   1.00
C157   C     0.38110   0.07580   0.96400   0.01267  Uiso   1.00
C158   C     0.77650   0.85600   0.06230   0.01267  Uiso   1.00
C159   C     0.92550   0.73500   0.32960   0.01267  Uiso   1.00
C160   C     0.85730   0.67020   0.19690   0.01267  Uiso   1.00
C161   C     0.52910   0.01480   0.91800   0.01267  Uiso   1.00
C162   C     0.90590   0.02690   0.22650   0.01267  Uiso   1.00
C163   C     0.54360   0.35420   0.20870   0.01267  Uiso   1.00
C164   C     0.57160   0.16840   0.79900   0.01267  Uiso   1.00
C165   C     0.59350   0.17010   0.45710   0.01267  Uiso   1.00
C166   C     0.21950   0.69340   0.95150   0.01267  Uiso   1.00
C167   C     0.90740   0.17110   0.69600   0.01267  Uiso   1.00
C168   C     0.44400   0.61380   0.69470   0.01267  Uiso   1.00
C169   C     0.85880   0.19320   0.00650   0.01267  Uiso   1.00
C170   C     0.24140   0.90860   0.83730   0.01267  Uiso   1.00
C171   C     0.01810   0.87330   0.86330   0.01267  Uiso   1.00
C172   C     0.14270   0.32980   0.80310   0.01267  Uiso   1.00
C173   C     0.72590   0.30270   0.42010   0.01267  Uiso   1.00
C174   C     0.34330   0.43980   0.32320   0.01267  Uiso   1.00
C175   C     0.75040   0.59570   0.11320   0.01267  Uiso   1.00
C176   C     0.52050   0.60270   0.73620   0.01267  Uiso   1.00
C177   C     0.62530   0.63530   0.18660   0.01267  Uiso   1.00
C178   C     0.08170   0.70380   0.47910   0.01267  Uiso   1.00
C179   C     0.83410   0.20590   0.37860   0.01267  Uiso   1.00
C180   C     0.44530   0.84300   0.40920   0.01267  Uiso   1.00
C181   C     0.63670   0.28730   0.77850   0.01267  Uiso   1.00
C182   C     0.25470   0.67560   0.54570   0.01267  Uiso   1.00
C183   C     0.83570   0.70980   0.25090   0.01267  Uiso   1.00
C184   C     0.42450   0.71300   0.57150   0.01267  Uiso   1.00
C185   C     0.71660   0.53250   0.18790   0.01267  Uiso   1.00
C186   C     0.38240   0.80670   0.22370   0.01267  Uiso   1.00
C187   C     0.04470   0.78410   0.80150   0.01267  Uiso   1.00
C188   C     0.27790   0.45230   0.08750   0.01267  Uiso   1.00
C189   C     0.22350   0.14400   0.93770   0.01267  Uiso   1.00
C190   C     0.16810   0.69130   0.50960   0.01267  Uiso   1.00
C191   C     0.62200   0.17760   0.39500   0.01267  Uiso   1.00
C192   C     0.05040   0.18140   0.09050   0.01267  Uiso   1.00
C193   C     0.79760   0.38380   0.57480   0.01267  Uiso   1.00
C194   C     0.95270   0.97670   0.24100   0.01267  Uiso   1.00
C195   C     0.26310   0.52750   0.78690   0.01267  Uiso   1.00
C196   C     0.47740   0.71300   0.14250   0.01267  Uiso   1.00
C197   C     0.52600   0.21510   0.57170   0.01267  Uiso   1.00
C198   C     0.93810   0.51500   0.58800   0.01267  Uiso   1.00
C199   C     0.27410   0.69730   0.57990   0.01267  Uiso   1.00
C200   C     0.75110   0.32600   0.88620   0.01267  Uiso   1.00
C201   C     0.85960   0.01470   0.34970   0.01267  Uiso   1.00
C202   C     0.30440   0.05110   0.77950   0.01267  Uiso   1.00
C203   C     0.74390   0.48890   0.88190   0.01267  Uiso   1.00
C204   C     0.54690   0.28020   0.48860   0.01267  Uiso   1.00
C205   C     0.06930   0.03210   0.69650   0.01267  Uiso   1.00
C206   C     0.95530   0.21590   0.19850   0.01267  Uiso   1.00
C207   C     0.02310   0.08760   0.67990   0.01267  Uiso   1.00
C208   C     0.72480   0.52550   0.67250   0.01267  Uiso   1.00
C209   C     0.61890   0.92420   0.03600   0.01267  Uiso   1.00
C210   C     0.47400   0.78490   0.42830   0.01267  Uiso   1.00
C211   C     0.38920   0.67190   0.79520   0.01267  Uiso   1.00
C212   C     0.37800   0.82240   0.60500   0.01267  Uiso   1.00
C213   C     0.64560   0.01060   0.22610   0.01267  Uiso   1.00
C214   C     0.28920   0.24660   0.72400   0.01267  Uiso   1.00
C215   C     0.09410   0.97310   0.77350   0.01267  Uiso   1.00
C216   C     0.09220   0.25000   0.02020   0.01267  Uiso   1.00
C217   C     0.04730   0.02330   0.75900   0.01267  Uiso   1.00
C218   C     0.24960   0.40430   0.88680   0.01267  Uiso   1.00
C219   C     0.80040   0.63290   0.93680   0.01267  Uiso   1.00
C220   C     0.58980   0.95350   0.99840   0.01267  Uiso   1.00
C221   C     0.61760   0.19330   0.77630   0.01267  Uiso   1.00
C222   C     0.19680   0.58460   0.82370   0.01267  Uiso   1.00
C223   C     0.70730   0.41270   0.29270   0.01267  Uiso   1.00
C224   C     0.61670   0.34280   0.81440   0.01267  Uiso   1.00
C225   C     0.31940   0.31210   0.04830   0.01267  Uiso   1.00
C226   C     0.46980   0.84210   0.34660   0.01267  Uiso   1.00
C227   C     0.45310   0.71980   0.51140   0.01267  Uiso   1.00
C228   C     0.18580   0.73500   0.05910   0.01267  Uiso   1.00
C229   C     0.51310   0.58910   0.68770   0.01267  Uiso   1.00
C230   C     0.91830   0.29620   0.52090   0.01267  Uiso   1.00
C231   C     0.17330   0.13610   0.99090   0.01267  Uiso   1.00
C232   C     0.66580   0.52080   0.77990   0.01267  Uiso   1.00
C233   C     0.14290   0.25690   0.96590   0.01267  Uiso   1.00
C234   C     0.78160   0.68460   0.97470   0.01267  Uiso   1.00
C235   C     0.74900   0.63180   0.92590   0.01267  Uiso   1.00
C236   C     0.42840   0.83160   0.20100   0.01267  Uiso   1.00
C237   C     0.30220   0.73710   0.28040   0.01267  Uiso   1.00
C238   C     0.03860   0.13140   0.08550   0.01267  Uiso   1.00
C239   C     0.65680   0.37370   0.78990   0.01267  Uiso   1.00
C240   C     0.98670   0.82790   0.37940   0.01267  Uiso   1.00
N1     N     0.28450   0.65020   0.26860   0.01267  Uiso   1.00
N2     N     0.38740   0.08650   0.75990   0.01267  Uiso   1.00
N3     N     0.67970   0.64260   0.13810   0.01267  Uiso   1.00
N4     N     0.18950   0.71030   0.16920   0.01267  Uiso   1.00
N5     N     0.03870   0.58020   0.37610   0.01267  Uiso   1.00
N6     N     0.05910   0.80040   0.34750   0.01267  Uiso   1.00
N7     N     0.16280   0.92930   0.72790   0.01267  Uiso   1.00
N8     N     0.79220   0.79640   0.07310   0.01267  Uiso   1.00
N9     N     0.94090   0.16960   0.19160   0.01267  Uiso   1.00
N10    N     0.81040   0.45390   0.83160   0.01267  Uiso   1.00
N11    N     0.42610   0.07310   0.90330   0.01267  Uiso   1.00
N12    N     0.76880   0.24320   0.38550   0.01267  Uiso   1.00
N13    N     0.48070   0.20880   0.69850   0.01267  Uiso   1.00
N14    N     0.72730   0.50610   0.72570   0.01267  Uiso   1.00
N15    N     0.00800   0.28370   0.71950   0.01267  Uiso   1.00
N16    N     0.23040   0.64190   0.74380   0.01267  Uiso   1.00
N17    N     0.32030   0.35740   0.86190   0.01267  Uiso   1.00
N18    N     0.83720   0.07070   0.27210   0.01267  Uiso   1.00
N19    N     0.51930   0.79120   0.30150   0.01267  Uiso   1.00
N20    N     0.96130   0.41980   0.62390   0.01267  Uiso   1.00
N21    N     0.71380   0.73650   0.00140   0.01267  Uiso   1.00
N22    N     0.38710   0.76530   0.61840   0.01267  Uiso   1.00
N23    N     0.81050   0.28970   0.83080   0.01267  Uiso   1.00
N24    N     0.94090   0.19960   0.65250   0.01267  Uiso   1.00
N25    N     0.73460   0.71650   0.22190   0.01267  Uiso   1.00
N26    N     0.99200   0.71630   0.28050   0.01267  Uiso   1.00
N27    N     0.70690   0.15290   0.19640   0.01267  Uiso   1.00
N28    N     0.61290   0.23470   0.38160   0.01267  Uiso   1.00
N29    N     0.28620   0.26350   0.99860   0.01267  Uiso   1.00
N30    N     0.18960   0.54610   0.16840   0.01267  Uiso   1.00
N31    N     0.20780   0.20360   0.92690   0.01267  Uiso   1.00
N32    N     0.38380   0.65410   0.74830   0.01267  Uiso   1.00
N33    N     0.17070   0.76260   0.89470   0.01267  Uiso   1.00
N34    N     0.05910   0.83040   0.80840   0.01267  Uiso   1.00
N35    N     0.57390   0.92690   0.09670   0.01267  Uiso   1.00
N36    N     0.49590   0.79950   0.15160   0.01267  Uiso   1.00
N37    N     0.82930   0.23740   0.10530   0.01267  Uiso   1.00
N38    N     0.13340   0.64950   0.43430   0.01267  Uiso   1.00
N39    N     0.50410   0.20050   0.84840   0.01267  Uiso   1.00
N40    N     0.26540   0.28350   0.77810   0.01267  Uiso   1.00
N41    N     0.71550   0.34980   0.73140   0.01267  Uiso   1.00
N42    N     0.27270   0.49390   0.27430   0.01267  Uiso   1.00
N43    N     0.86660   0.35050   0.56570   0.01267  Uiso   1.00
N44    N     0.76960   0.35810   0.25620   0.01267  Uiso   1.00
N45    N     0.29310   0.84710   0.80360   0.01267  Uiso   1.00
N46    N     0.61260   0.91350   0.24010   0.01267  Uiso   1.00
N47    N     0.23120   0.75680   0.61450   0.01267  Uiso   1.00
N48    N     0.61620   0.34590   0.25170   0.01267  Uiso   1.00
O1     O     0.19040   0.69840   0.22210   0.01267  Uiso   1.00
O2     O     0.25440   0.77800   0.64290   0.01267  Uiso   1.00
O3     O     0.35730   0.75850   0.67830   0.01267  Uiso   1.00
O4     O     0.05310   0.61240   0.33030   0.01267  Uiso   1.00
O5     O     0.59890   0.86520   0.24390   0.01267  Uiso   1.00
O6     O     0.78520   0.30330   0.27610   0.01267  Uiso   1.00
O7     O     0.53620   0.79240   0.24250   0.01267  Uiso   1.00
O8     O     0.64270   0.24150   0.32170   0.01267  Uiso   1.00
O9     O     0.09970   0.74270   0.35690   0.01267  Uiso   1.00
O10    O     0.96050   0.27680   0.71160   0.01267  Uiso   1.00
O11    O     0.03950   0.72320   0.28840   0.01267  Uiso   1.00
O12    O     0.39900   0.09950   0.86620   0.01267  Uiso   1.00
O13    O     0.60100   0.90050   0.13380   0.01267  Uiso   1.00
O14    O     0.74560   0.22200   0.35710   0.01267  Uiso   1.00
O15    O     0.46380   0.20760   0.75750   0.01267  Uiso   1.00
O16    O     0.83880   0.22930   0.15480   0.01267  Uiso   1.00
O17    O     0.16970   0.60320   0.19460   0.01267  Uiso   1.00
O18    O     0.74420   0.78930   0.12710   0.01267  Uiso   1.00
O19    O     0.90030   0.25730   0.64310   0.01267  Uiso   1.00
O20    O     0.94690   0.38760   0.66970   0.01267  Uiso   1.00
O21    O     0.79090   0.11740   0.25740   0.01267  Uiso   1.00
O22    O     0.83030   0.39680   0.80540   0.01267  Uiso   1.00
O23    O     0.24910   0.61880   0.29150   0.01267  Uiso   1.00
O24    O     0.88250   0.37170   0.60160   0.01267  Uiso   1.00
O25    O     0.21480   0.69670   0.72390   0.01267  Uiso   1.00
O26    O     0.75090   0.38120   0.70850   0.01267  Uiso   1.00
O27    O     0.25580   0.21070   0.87290   0.01267  Uiso   1.00
O28    O     0.40110   0.13480   0.75610   0.01267  Uiso   1.00
O29    O     0.68710   0.72080   0.20630   0.01267  Uiso   1.00
O30    O     0.72860   0.19590   0.18950   0.01267  Uiso   1.00
O31    O     0.20810   0.52830   0.27860   0.01267  Uiso   1.00
O32    O     0.20910   0.88260   0.74260   0.01267  Uiso   1.00
O33    O     0.45970   0.17680   0.86950   0.01267  Uiso   1.00
O34    O     0.68210   0.32410   0.24450   0.01267  Uiso   1.00
O35    O     0.79190   0.47170   0.72140   0.01267  Uiso   1.00
O36    O     0.16120   0.77070   0.84520   0.01267  Uiso   1.00
O37    O     0.80960   0.30160   0.77790   0.01267  Uiso   1.00
O38    O     0.69530   0.78450   0.04150   0.01267  Uiso   1.00
O39    O     0.11370   0.83540   0.76160   0.01267  Uiso   1.00
O40    O     0.54030   0.82320   0.13050   0.01267  Uiso   1.00
O41    O     0.66210   0.69570   0.11370   0.01267  Uiso   1.00
O42    O     0.31290   0.27920   0.79370   0.01267  Uiso   1.00
O43    O     0.30470   0.21550   0.95850   0.01267  Uiso   1.00
O44    O     0.31790   0.67590   0.75550   0.01267  Uiso   1.00
O45    O     0.33790   0.30430   0.88630   0.01267  Uiso   1.00
O46    O     0.27140   0.80410   0.81050   0.01267  Uiso   1.00
O47    O     0.88630   0.16460   0.23840   0.01267  Uiso   1.00
O48    O     0.11750   0.62830   0.39840   0.01267  Uiso   1.00
C241   C     0.12990   0.58380   0.02760   0.01267  Uiso   1.00
S1     S     0.05720   0.62770   0.00640   0.01267  Uiso   1.00
O49    O     0.99140   0.65590   0.06590   0.01267  Uiso   1.00
O50    O     0.07900   0.67040   0.96980   0.01267  Uiso   1.00
O51    O     0.06570   0.57990   0.96820   0.01267  Uiso   1.00
F1     F     0.12600   0.62330   0.06350   0.01267  Uiso   1.00
F2     F     0.12060   0.54330   0.05880   0.01267  Uiso   1.00
F3     F     0.19430   0.55670   0.97740   0.01267  Uiso   1.00
C242   C     0.87010   0.41620   0.97240   0.01267  Uiso   1.00
S2     S     0.94280   0.37230   0.99360   0.01267  Uiso   1.00
O52    O     0.92100   0.32960   0.03020   0.01267  Uiso   1.00
O53    O     0.00860   0.34410   0.93410   0.01267  Uiso   1.00
O54    O     0.93430   0.42010   0.03180   0.01267  Uiso   1.00
F4     F     0.87400   0.37670   0.93650   0.01267  Uiso   1.00
F5     F     0.80570   0.44330   0.02260   0.01267  Uiso   1.00
F6     F     0.87940   0.45670   0.94120   0.01267  Uiso   1.00
