data_image0
_cell_length_a       24.0921
_cell_length_b       24.1914
_cell_length_c       24.3992
_cell_angle_alpha    85.807
_cell_angle_beta     61.404
_cell_angle_gamma    61.029

_symmetry_space_group_name_H-M    "P 1"
_symmetry_int_tables_number       1

loop_
  _symmetry_equiv_pos_as_xyz
  'x, y, z'

loop_
  _atom_site_label
  _atom_site_occupancy
  _atom_site_fract_x
  _atom_site_fract_y
  _atom_site_fract_z
  _atom_site_thermal_displace_type
  _atom_site_B_iso_or_equiv
  _atom_site_type_symbol
  Tb1      1.0000 0.36467  0.84485  0.19740  Biso   1.000  Tb
  O1       1.0000 0.25550  0.87210  0.20050  Biso   1.000  O
  O2       1.0000 0.29690  0.96080  0.22080  Biso   1.000  O
  O3       1.0000 0.38550  0.86880  0.09540  Biso   1.000  O
  O4       1.0000 0.45440  0.87410  0.16130  Biso   1.000  O
  O5       1.0000 0.40530  0.74970  0.13040  Biso   1.000  O
  O6       1.0000 0.34260  0.88000  0.29790  Biso   1.000  O
  O7       1.0000 0.46650  0.76060  0.20340  Biso   1.000  O
  O8       1.0000 0.31140  0.79060  0.27100  Biso   1.000  O
  N1       1.0000 0.21570  0.84430  0.22500  Biso   1.000  N
  N2       1.0000 0.23160  0.99900  0.22430  Biso   1.000  N
  N3       1.0000 0.37040  0.84790  0.05810  Biso   1.000  N
  N4       1.0000 0.46680  0.90890  0.11730  Biso   1.000  N
  N5       1.0000 0.44910  0.69070  0.13430  Biso   1.000  N
  C1       1.0000 0.23490  0.79040  0.19090  Biso   1.000  C
  C2       1.0000 0.15590  0.87050  0.28480  Biso   1.000  C
  C3       1.0000 0.22970  0.01860  0.17230  Biso   1.000  C
  C4       1.0000 0.16930  0.01540  0.28050  Biso   1.000  C
  C5       1.0000 0.29900  0.88010  0.07060  Biso   1.000  C
  C6       1.0000 0.42300  0.79590  0.01100  Biso   1.000  C
  C7       1.0000 0.42750  0.97360  0.13430  Biso   1.000  C
  C8       1.0000 0.51850  0.87820  0.05690  Biso   1.000  C
  C9       1.0000 0.41920  0.65990  0.17640  Biso   1.000  C
  C10      1.0000 0.52260  0.66410  0.09840  Biso   1.000  C
  H1       1.0000 0.27720  0.77240  0.14930  Biso   1.000  H
  C11      1.0000 0.19350  0.76100  0.21600  Biso   1.000  C
  C12      1.0000 0.11340  0.84250  0.31160  Biso   1.000  C
  H2       1.0000 0.14330  0.90840  0.30840  Biso   1.000  H
  H3       1.0000 0.27420  0.00820  0.13400  Biso   1.000  H
  C13      1.0000 0.16320  0.05410  0.17400  Biso   1.000  C
  C14      1.0000 0.10110  0.05250  0.28490  Biso   1.000  C
  H4       1.0000 0.17210  0.00160  0.31710  Biso   1.000  H
  H5       1.0000 0.26210  0.91660  0.10470  Biso   1.000  H
  C15      1.0000 0.28120  0.85930  0.03370  Biso   1.000  C
  C16      1.0000 0.40530  0.77440  0.97380  Biso   1.000  C
  H6       1.0000 0.47200  0.77380  0.00300  Biso   1.000  H
  H7       1.0000 0.39120  0.99410  0.17770  Biso   1.000  H
  C17      1.0000 0.43960  0.01100  0.08840  Biso   1.000  C
  C18      1.0000 0.53220  0.91390  0.00980  Biso   1.000  C
  H8       1.0000 0.54580  0.83240  0.04600  Biso   1.000  H
  H9       1.0000 0.36750  0.67740  0.19880  Biso   1.000  H
  C19      1.0000 0.46420  0.60330  0.18640  Biso   1.000  C
  C20      1.0000 0.57000  0.60640  0.10610  Biso   1.000  C
  H10      1.0000 0.54220  0.68530  0.06710  Biso   1.000  H
  H11      1.0000 0.20730  0.72320  0.19130  Biso   1.000  H
  C21      1.0000 0.13140  0.78640  0.27740  Biso   1.000  C
  H12      1.0000 0.07170  0.86120  0.35340  Biso   1.000  H
  H13      1.0000 0.16230  0.06730  0.13670  Biso   1.000  H
  C22      1.0000 0.09740  0.07050  0.23050  Biso   1.000  C
  H14      1.0000 0.05720  0.06560  0.32490  Biso   1.000  H
  H15      1.0000 0.23230  0.88270  0.04150  Biso   1.000  H
  C23      1.0000 0.33450  0.80410  0.98480  Biso   1.000  C
  H16      1.0000 0.44330  0.73810  0.93970  Biso   1.000  H
  H17      1.0000 0.41180  0.05670  0.10060  Biso   1.000  H
  C24      1.0000 0.49250  0.98100  0.02470  Biso   1.000  C
  H18      1.0000 0.56930  0.89200  0.96690  Biso   1.000  H
  H19      1.0000 0.44300  0.58200  0.21640  Biso   1.000  H
  C25      1.0000 0.54050  0.57610  0.15350  Biso   1.000  C
  H20      1.0000 0.62180  0.58740  0.07960  Biso   1.000  H
  C26      1.0000 0.08420  0.75740  0.30590  Biso   1.000  C
  C27      1.0000 0.02610  0.10430  0.23320  Biso   1.000  C
  C28      1.0000 0.31280  0.78050  0.94870  Biso   1.000  C
  C29      1.0000 0.58790  0.52150  0.17100  Biso   1.000  C
  C30      1.0000 0.10540  0.69740  0.27790  Biso   1.000  C
  C31      1.0000 0.01630  0.79000  0.36100  Biso   1.000  C
  C32      1.0000 0.01710  0.08910  0.18560  Biso   1.000  C
  C33      1.0000 0.96240  0.15060  0.28810  Biso   1.000  C
  C34      1.0000 0.24450  0.81990  0.95320  Biso   1.000  C
  C35      1.0000 0.35780  0.71910  0.91010  Biso   1.000  C
  C36      1.0000 0.65850  0.47480  0.12630  Biso   1.000  C
  C37      1.0000 0.56600  0.51900  0.23480  Biso   1.000  C
  C38      1.0000 0.05860  0.67340  0.30320  Biso   1.000  C
  H21      1.0000 0.15260  0.67260  0.24090  Biso   1.000  H
  H22      1.0000 0.00120  0.83050  0.38180  Biso   1.000  H
  C39      1.0000 0.97010  0.76620  0.38680  Biso   1.000  C
  C40      1.0000 0.94860  0.11640  0.19320  Biso   1.000  C
  H23      1.0000 0.05900  0.05940  0.14730  Biso   1.000  H
  H24      1.0000 0.96660  0.16360  0.32100  Biso   1.000  H
  C41      1.0000 0.89350  0.17720  0.29420  Biso   1.000  C
  C42      1.0000 0.22180  0.79700  0.92220  Biso   1.000  C
  H25      1.0000 0.21330  0.86280  0.97770  Biso   1.000  H
  H26      1.0000 0.40560  0.69200  0.90430  Biso   1.000  H
  C43      1.0000 0.33360  0.69690  0.87990  Biso   1.000  C
  C44      1.0000 0.70480  0.42810  0.14510  Biso   1.000  C
  H27      1.0000 0.67560  0.47450  0.08220  Biso   1.000  H
  H28      1.0000 0.51780  0.55040  0.26700  Biso   1.000  H
  C45      1.0000 0.61270  0.47180  0.25220  Biso   1.000  C
  N6       1.0000 0.99200  0.70750  0.35660  Biso   1.000  N
  H29      1.0000 0.07330  0.63270  0.28310  Biso   1.000  H
  H30      1.0000 0.92370  0.78980  0.42480  Biso   1.000  H
  N7       1.0000 0.88810  0.15830  0.24730  Biso   1.000  N
  H31      1.0000 0.94360  0.10570  0.15980  Biso   1.000  H
  H32      1.0000 0.85060  0.20840  0.33120  Biso   1.000  H
  N8       1.0000 0.26610  0.73610  0.88720  Biso   1.000  N
  H33      1.0000 0.17520  0.82400  0.92560  Biso   1.000  H
  H34      1.0000 0.36430  0.65460  0.85440  Biso   1.000  H
  N9       1.0000 0.68110  0.42740  0.20780  Biso   1.000  N
  H35      1.0000 0.75330  0.39630  0.11380  Biso   1.000  H
  H36      1.0000 0.59630  0.47070  0.29600  Biso   1.000  H
  O9       1.0000 0.94600  0.68520  0.37980  Biso   1.000  O
  O10      1.0000 0.82130  0.18110  0.25540  Biso   1.000  O
  O11      1.0000 0.24170  0.71460  0.86050  Biso   1.000  O
  O12      1.0000 0.72680  0.38440  0.22460  Biso   1.000  O
  Tb2      1.0000 0.85268  0.71394  0.35427  Biso   1.000  Tb
  Tb3      1.0000 0.74307  0.28141  0.24174  Biso   1.000  Tb
  O13      1.0000 0.88380  0.61070  0.37810  Biso   1.000  O
  O14      1.0000 0.78220  0.73340  0.46930  Biso   1.000  O
  O15      1.0000 0.79410  0.79110  0.30440  Biso   1.000  O
  O16      1.0000 0.82470  0.81640  0.39340  Biso   1.000  O
  O17      1.0000 0.74850  0.70880  0.37960  Biso   1.000  O
  O18      1.0000 0.94930  0.71970  0.26790  Biso   1.000  O
  O19      1.0000 0.89010  0.64750  0.26130  Biso   1.000  O
  O20      1.0000 0.71750  0.20400  0.22040  Biso   1.000  O
  O21      1.0000 0.77170  0.31180  0.31070  Biso   1.000  O
  O22      1.0000 0.66510  0.27650  0.34500  Biso   1.000  O
  O23      1.0000 0.61940  0.34730  0.26190  Biso   1.000  O
  O24      1.0000 0.86530  0.26020  0.17540  Biso   1.000  O
  N10      1.0000 0.91550  0.58200  0.41200  Biso   1.000  N
  N11      1.0000 0.76420  0.78250  0.50790  Biso   1.000  N
  N12      1.0000 0.74940  0.79170  0.28710  Biso   1.000  N
  N13      1.0000 0.80900  0.86920  0.36930  Biso   1.000  N
  N14      1.0000 0.70440  0.69760  0.43150  Biso   1.000  N
  N15      1.0000 0.96820  0.71780  0.20650  Biso   1.000  N
  N16      1.0000 0.73030  0.14980  0.24200  Biso   1.000  N
  N17      1.0000 0.79170  0.35570  0.30340  Biso   1.000  N
  N18      1.0000 0.67420  0.26930  0.39550  Biso   1.000  N
  N19      1.0000 0.56190  0.34480  0.30820  Biso   1.000  N
  N20      1.0000 0.10510  0.73420  0.88480  Biso   1.000  N
  C46      1.0000 0.98880  0.54210  0.38190  Biso   1.000  C
  C47      1.0000 0.87390  0.59300  0.47600  Biso   1.000  C
  C48      1.0000 0.81280  0.77850  0.52340  Biso   1.000  C
  C49      1.0000 0.69580  0.83640  0.53230  Biso   1.000  C
  C50      1.0000 0.67580  0.82570  0.32780  Biso   1.000  C
  C51      1.0000 0.77850  0.75760  0.22860  Biso   1.000  C
  C52      1.0000 0.86420  0.87600  0.32160  Biso   1.000  C
  C53      1.0000 0.73880  0.91490  0.39010  Biso   1.000  C
  C54      1.0000 0.63820  0.74950  0.47510  Biso   1.000  C
  C55      1.0000 0.72380  0.63640  0.43990  Biso   1.000  C
  C56      1.0000 0.93290  0.77230  0.18910  Biso   1.000  C
  C57      1.0000 0.02390  0.66170  0.16270  Biso   1.000  C
  C58      1.0000 0.68020  0.15070  0.30070  Biso   1.000  C
  C59      1.0000 0.79370  0.09390  0.20550  Biso   1.000  C
  C60      1.0000 0.86380  0.33730  0.26520  Biso   1.000  C
  C61      1.0000 0.73950  0.41720  0.33350  Biso   1.000  C
  C62      1.0000 0.71570  0.20870  0.40080  Biso   1.000  C
  C63      1.0000 0.64280  0.32070  0.43900  Biso   1.000  C
  C64      1.0000 0.54660  0.30170  0.29720  Biso   1.000  C
  C65      1.0000 0.51940  0.38610  0.36600  Biso   1.000  C
  C66      1.0000 0.10890  0.67810  0.89870  Biso   1.000  C
  C67      1.0000 0.07250  0.78510  0.93070  Biso   1.000  C
  H37      1.0000 0.01750  0.53670  0.33710  Biso   1.000  H
  C68      1.0000 0.02250  0.50930  0.41510  Biso   1.000  C
  C69      1.0000 0.90800  0.56110  0.51070  Biso   1.000  C
  H38      1.0000 0.82220  0.62210  0.49710  Biso   1.000  H
  H39      1.0000 0.85830  0.73910  0.50950  Biso   1.000  H
  C70      1.0000 0.79640  0.83160  0.55950  Biso   1.000  C
  C71      1.0000 0.67870  0.88910  0.56890  Biso   1.000  C
  H40      1.0000 0.66050  0.83760  0.52410  Biso   1.000  H
  H41      1.0000 0.65630  0.85080  0.36750  Biso   1.000  H
  C72      1.0000 0.62890  0.82390  0.31170  Biso   1.000  C
  C73      1.0000 0.73200  0.75550  0.21160  Biso   1.000  C
  H42      1.0000 0.83010  0.73550  0.19960  Biso   1.000  H
  H43      1.0000 0.91400  0.84300  0.30640  Biso   1.000  H
  C74      1.0000 0.84940  0.92950  0.29540  Biso   1.000  C
  C75      1.0000 0.72090  0.97030  0.36590  Biso   1.000  C
  H44      1.0000 0.70050  0.90910  0.42230  Biso   1.000  H
  H45      1.0000 0.62580  0.79210  0.46830  Biso   1.000  H
  C76      1.0000 0.58980  0.73950  0.52910  Biso   1.000  C
  C77      1.0000 0.67510  0.62460  0.49190  Biso   1.000  C
  H46      1.0000 0.77080  0.60140  0.41000  Biso   1.000  H
  H47      1.0000 0.89220  0.81000  0.22080  Biso   1.000  H
  C78      1.0000 0.95600  0.77340  0.12530  Biso   1.000  C
  C79      1.0000 0.04780  0.66230  0.09940  Biso   1.000  C
  H48      1.0000 0.04570  0.62290  0.17590  Biso   1.000  H
  H49      1.0000 0.63510  0.18990  0.32560  Biso   1.000  H
  C80      1.0000 0.69450  0.09480  0.32420  Biso   1.000  C
  C81      1.0000 0.80900  0.03710  0.22850  Biso   1.000  C
  H50      1.0000 0.82800  0.09340  0.16390  Biso   1.000  H
  H51      1.0000 0.89990  0.29330  0.24470  Biso   1.000  H
  C82      1.0000 0.88440  0.38340  0.25630  Biso   1.000  C
  C83      1.0000 0.75880  0.46360  0.32520  Biso   1.000  C
  H52      1.0000 0.68950  0.42870  0.36040  Biso   1.000  H
  H53      1.0000 0.74010  0.17270  0.36790  Biso   1.000  H
  C84      1.0000 0.72250  0.19950  0.45460  Biso   1.000  C
  C85      1.0000 0.64730  0.31420  0.49440  Biso   1.000  C
  H54      1.0000 0.61680  0.36260  0.43250  Biso   1.000  H
  H55      1.0000 0.57370  0.27620  0.25560  Biso   1.000  H
  C86      1.0000 0.49050  0.29450  0.34740  Biso   1.000  C
  C87      1.0000 0.46280  0.38080  0.41600  Biso   1.000  C
  H56      1.0000 0.52880  0.41840  0.37200  Biso   1.000  H
  H57      1.0000 0.13220  0.64290  0.86530  Biso   1.000  H
  C88      1.0000 0.07880  0.67160  0.96150  Biso   1.000  C
  C89      1.0000 0.04230  0.77980  0.99390  Biso   1.000  C
  H58      1.0000 0.07020  0.82430  0.91980  Biso   1.000  H
  H59      1.0000 0.07430  0.48050  0.39280  Biso   1.000  H
  C90      1.0000 0.98200  0.51730  0.48130  Biso   1.000  C
  H60      1.0000 0.87920  0.57000  0.55600  Biso   1.000  H
  H61      1.0000 0.83150  0.82910  0.56880  Biso   1.000  H
  C91      1.0000 0.72880  0.88840  0.58200  Biso   1.000  C
  H62      1.0000 0.63130  0.92680  0.58550  Biso   1.000  H
  H63      1.0000 0.57730  0.84790  0.34080  Biso   1.000  H
  C92      1.0000 0.65570  0.78750  0.25360  Biso   1.000  C
  H64      1.0000 0.75230  0.73200  0.17080  Biso   1.000  H
  H65      1.0000 0.88910  0.93340  0.26270  Biso   1.000  H
  C93      1.0000 0.77770  0.97820  0.31550  Biso   1.000  C
  H66      1.0000 0.67070  0.00310  0.38270  Biso   1.000  H
  H67      1.0000 0.54480  0.77550  0.56010  Biso   1.000  H
  C94      1.0000 0.60630  0.67640  0.53860  Biso   1.000  C
  H68      1.0000 0.68800  0.58140  0.49640  Biso   1.000  H
  H69      1.0000 0.93090  0.81180  0.11320  Biso   1.000  H
  C95      1.0000 0.01570  0.71860  0.07900  Biso   1.000  C
  H70      1.0000 0.08720  0.62350  0.06860  Biso   1.000  H
  H71      1.0000 0.65870  0.09600  0.36530  Biso   1.000  H
  C96      1.0000 0.76010  0.03660  0.28910  Biso   1.000  C
  H72      1.0000 0.85360  0.99810  0.20230  Biso   1.000  H
  H73      1.0000 0.93470  0.37090  0.22990  Biso   1.000  H
  C97      1.0000 0.83140  0.44810  0.28590  Biso   1.000  C
  H74      1.0000 0.72170  0.50710  0.34680  Biso   1.000  H
  H75      1.0000 0.75080  0.15720  0.45890  Biso   1.000  H
  C98      1.0000 0.68790  0.25220  0.50230  Biso   1.000  C
  H76      1.0000 0.62330  0.35110  0.52600  Biso   1.000  H
  H77      1.0000 0.48130  0.26250  0.34020  Biso   1.000  H
  C99      1.0000 0.44910  0.33300  0.40640  Biso   1.000  C
  H78      1.0000 0.43340  0.40910  0.45630  Biso   1.000  H
  H79      1.0000 0.08050  0.63220  0.97130  Biso   1.000  H
  C100     1.0000 0.04560  0.72290  0.01080  Biso   1.000  C
  H80      1.0000 0.01880  0.81590  0.02630  Biso   1.000  H
  C101     1.0000 0.71040  0.94900  0.61670  Biso   1.000  C
  C102     1.0000 0.60670  0.78120  0.23880  Biso   1.000  C
  C103     1.0000 0.85120  0.49830  0.27510  Biso   1.000  C
  C104     1.0000 0.69020  0.24230  0.56180  Biso   1.000  C
  C105     1.0000 0.64220  0.98710  0.66930  Biso   1.000  C
  C106     1.0000 0.76190  0.96780  0.59530  Biso   1.000  C
  C107     1.0000 0.62610  0.76190  0.17630  Biso   1.000  C
  C108     1.0000 0.53810  0.79460  0.28820  Biso   1.000  C
  C109     1.0000 0.91820  0.48770  0.26290  Biso   1.000  C
  C110     1.0000 0.79840  0.56090  0.27910  Biso   1.000  C
  C111     1.0000 0.63030  0.28450  0.61920  Biso   1.000  C
  C112     1.0000 0.74990  0.19010  0.56310  Biso   1.000  C
  C113     1.0000 0.62470  0.04530  0.69860  Biso   1.000  C
  H81      1.0000 0.60690  0.97400  0.68580  Biso   1.000  H
  H82      1.0000 0.81010  0.94110  0.56020  Biso   1.000  H
  C114     1.0000 0.74300  0.02590  0.62510  Biso   1.000  C
  C115     1.0000 0.57690  0.75630  0.16600  Biso   1.000  C
  H83      1.0000 0.67260  0.75260  0.14140  Biso   1.000  H
  H84      1.0000 0.52280  0.81000  0.33060  Biso   1.000  H
  C116     1.0000 0.49050  0.78580  0.27650  Biso   1.000  C
  C117     1.0000 0.93150  0.53830  0.25760  Biso   1.000  C
  H85      1.0000 0.95570  0.44530  0.25820  Biso   1.000  H
  H86      1.0000 0.75250  0.56940  0.28570  Biso   1.000  H
  C118     1.0000 0.81300  0.61030  0.27350  Biso   1.000  C
  C119     1.0000 0.63080  0.27200  0.67550  Biso   1.000  C
  H87      1.0000 0.58940  0.32150  0.61990  Biso   1.000  H
  H88      1.0000 0.79190  0.16120  0.52430  Biso   1.000  H
  C120     1.0000 0.74870  0.18010  0.61940  Biso   1.000  C
  N21      1.0000 0.67550  0.06340  0.67540  Biso   1.000  N
  H89      1.0000 0.57730  0.07200  0.73460  Biso   1.000  H
  H90      1.0000 0.77810  0.03920  0.60980  Biso   1.000  H
  N22      1.0000 0.51190  0.76760  0.21460  Biso   1.000  N
  H91      1.0000 0.58970  0.74440  0.12360  Biso   1.000  H
  H92      1.0000 0.44480  0.79240  0.31070  Biso   1.000  H
  N23      1.0000 0.87910  0.59880  0.26300  Biso   1.000  N
  H93      1.0000 0.97740  0.53030  0.25010  Biso   1.000  H
  H94      1.0000 0.77660  0.65290  0.27700  Biso   1.000  H
  N24      1.0000 0.68960  0.22020  0.67450  Biso   1.000  N
  H95      1.0000 0.58960  0.30010  0.71500  Biso   1.000  H
  H96      1.0000 0.79000  0.14450  0.61950  Biso   1.000  H
  Tb4      1.0000 0.63533  0.15515  0.80260  Biso   1.000  Tb
  O25      1.0000 0.74450  0.12790  0.79950  Biso   1.000  O
  O26      1.0000 0.70310  0.03920  0.77920  Biso   1.000  O
  O27      1.0000 0.61450  0.13120  0.90460  Biso   1.000  O
  O28      1.0000 0.54560  0.12590  0.83870  Biso   1.000  O
  O29      1.0000 0.59470  0.25030  0.86960  Biso   1.000  O
  O30      1.0000 0.65740  0.12000  0.70210  Biso   1.000  O
  O31      1.0000 0.53350  0.23940  0.79660  Biso   1.000  O
  O32      1.0000 0.68860  0.20940  0.72900  Biso   1.000  O
  N25      1.0000 0.78430  0.15570  0.77500  Biso   1.000  N
  N26      1.0000 0.76840  0.00100  0.77570  Biso   1.000  N
  N27      1.0000 0.62960  0.15210  0.94190  Biso   1.000  N
  N28      1.0000 0.53320  0.09110  0.88270  Biso   1.000  N
  N29      1.0000 0.55090  0.30930  0.86570  Biso   1.000  N
  C121     1.0000 0.76510  0.20960  0.80910  Biso   1.000  C
  C122     1.0000 0.84410  0.12950  0.71520  Biso   1.000  C
  C123     1.0000 0.77030  0.98140  0.82770  Biso   1.000  C
  C124     1.0000 0.83070  0.98460  0.71950  Biso   1.000  C
  C125     1.0000 0.70100  0.11990  0.92940  Biso   1.000  C
  C126     1.0000 0.57700  0.20410  0.98900  Biso   1.000  C
  C127     1.0000 0.57250  0.02640  0.86570  Biso   1.000  C
  C128     1.0000 0.48150  0.12180  0.94310  Biso   1.000  C
  C129     1.0000 0.58080  0.34010  0.82360  Biso   1.000  C
  C130     1.0000 0.47740  0.33590  0.90160  Biso   1.000  C
  H97      1.0000 0.72280  0.22760  0.85070  Biso   1.000  H
  C131     1.0000 0.80650  0.23900  0.78400  Biso   1.000  C
  C132     1.0000 0.88660  0.15750  0.68840  Biso   1.000  C
  H98      1.0000 0.85670  0.09160  0.69160  Biso   1.000  H
  H99      1.0000 0.72580  0.99180  0.86600  Biso   1.000  H
  C133     1.0000 0.83680  0.94590  0.82600  Biso   1.000  C
  C134     1.0000 0.89890  0.94750  0.71510  Biso   1.000  C
  H100     1.0000 0.82790  0.99840  0.68290  Biso   1.000  H
  H101     1.0000 0.73790  0.08340  0.89530  Biso   1.000  H
  C135     1.0000 0.71880  0.14070  0.96630  Biso   1.000  C
  C136     1.0000 0.59470  0.22560  0.02620  Biso   1.000  C
  H102     1.0000 0.52800  0.22620  0.99700  Biso   1.000  H
  H103     1.0000 0.60880  0.00590  0.82230  Biso   1.000  H
  C137     1.0000 0.56040  0.98900  0.91160  Biso   1.000  C
  C138     1.0000 0.46780  0.08610  0.99020  Biso   1.000  C
  H104     1.0000 0.45420  0.16760  0.95400  Biso   1.000  H
  H105     1.0000 0.63250  0.32260  0.80120  Biso   1.000  H
  C139     1.0000 0.53580  0.39670  0.81360  Biso   1.000  C
  C140     1.0000 0.43000  0.39360  0.89390  Biso   1.000  C
  H106     1.0000 0.45780  0.31470  0.93290  Biso   1.000  H
  H107     1.0000 0.79270  0.27680  0.80870  Biso   1.000  H
  C141     1.0000 0.86860  0.21360  0.72260  Biso   1.000  C
  H108     1.0000 0.92830  0.13880  0.64660  Biso   1.000  H
  H109     1.0000 0.83770  0.93270  0.86330  Biso   1.000  H
  C142     1.0000 0.90260  0.92950  0.76950  Biso   1.000  C
  H110     1.0000 0.94280  0.93440  0.67510  Biso   1.000  H
  H111     1.0000 0.76770  0.11730  0.95850  Biso   1.000  H
  C143     1.0000 0.66550  0.19590  0.01520  Biso   1.000  C
  H112     1.0000 0.55670  0.26190  0.06030  Biso   1.000  H
  H113     1.0000 0.58820  0.94330  0.89940  Biso   1.000  H
  C144     1.0000 0.50750  0.01900  0.97530  Biso   1.000  C
  H114     1.0000 0.43070  0.10800  0.03310  Biso   1.000  H
  H115     1.0000 0.55700  0.41800  0.78360  Biso   1.000  H
  C145     1.0000 0.45950  0.42390  0.84650  Biso   1.000  C
  H116     1.0000 0.37820  0.41260  0.92040  Biso   1.000  H
  C146     1.0000 0.91580  0.24260  0.69410  Biso   1.000  C
  C147     1.0000 0.97390  0.89570  0.76680  Biso   1.000  C
  C148     1.0000 0.68720  0.21950  0.05130  Biso   1.000  C
  C149     1.0000 0.41210  0.47850  0.82900  Biso   1.000  C
  C150     1.0000 0.89460  0.30260  0.72210  Biso   1.000  C
  C151     1.0000 0.98370  0.21000  0.63900  Biso   1.000  C
  C152     1.0000 0.98290  0.91090  0.81440  Biso   1.000  C
  C153     1.0000 0.03760  0.84940  0.71190  Biso   1.000  C
  C154     1.0000 0.75550  0.18010  0.04680  Biso   1.000  C
  C155     1.0000 0.64220  0.28090  0.08990  Biso   1.000  C
  C156     1.0000 0.34150  0.52520  0.87370  Biso   1.000  C
  C157     1.0000 0.43400  0.48100  0.76520  Biso   1.000  C
  C158     1.0000 0.94140  0.32660  0.69680  Biso   1.000  C
  H117     1.0000 0.84740  0.32740  0.75910  Biso   1.000  H
  H118     1.0000 0.99880  0.16950  0.61820  Biso   1.000  H
  C159     1.0000 0.02990  0.23380  0.61320  Biso   1.000  C
  C160     1.0000 0.05140  0.88360  0.80680  Biso   1.000  C
  H119     1.0000 0.94100  0.94060  0.85270  Biso   1.000  H
  H120     1.0000 0.03340  0.83640  0.67900  Biso   1.000  H
  C161     1.0000 0.10650  0.82280  0.70580  Biso   1.000  C
  C162     1.0000 0.77820  0.20300  0.07780  Biso   1.000  C
  H121     1.0000 0.78670  0.13720  0.02230  Biso   1.000  H
  H122     1.0000 0.59440  0.30800  0.09570  Biso   1.000  H
  C163     1.0000 0.66640  0.30310  0.12010  Biso   1.000  C
  C164     1.0000 0.29520  0.57190  0.85490  Biso   1.000  C
  H123     1.0000 0.32440  0.52550  0.91780  Biso   1.000  H
  H124     1.0000 0.48220  0.44960  0.73300  Biso   1.000  H
  C165     1.0000 0.38730  0.52820  0.74780  Biso   1.000  C
  N30      1.0000 0.00800  0.29250  0.64340  Biso   1.000  N
  H125     1.0000 0.92670  0.36730  0.71690  Biso   1.000  H
  H126     1.0000 0.07630  0.21020  0.57520  Biso   1.000  H
  N31      1.0000 0.11190  0.84170  0.75270  Biso   1.000  N
  H127     1.0000 0.05640  0.89430  0.84020  Biso   1.000  H
  H128     1.0000 0.14940  0.79160  0.66880  Biso   1.000  H
  N32      1.0000 0.73390  0.26390  0.11280  Biso   1.000  N
  H129     1.0000 0.82480  0.17600  0.07440  Biso   1.000  H
  H130     1.0000 0.63570  0.34540  0.14560  Biso   1.000  H
  N33      1.0000 0.31890  0.57260  0.79220  Biso   1.000  N
  H131     1.0000 0.24670  0.60370  0.88620  Biso   1.000  H
  H132     1.0000 0.40370  0.52930  0.70400  Biso   1.000  H
  O33      1.0000 0.05400  0.31480  0.62020  Biso   1.000  O
  O34      1.0000 0.17870  0.81890  0.74460  Biso   1.000  O
  O35      1.0000 0.75830  0.28540  0.13950  Biso   1.000  O
  O36      1.0000 0.27320  0.61560  0.77540  Biso   1.000  O
  Tb5      1.0000 0.14732  0.28605  0.64573  Biso   1.000  Tb
  Tb6      1.0000 0.25693  0.71859  0.75826  Biso   1.000  Tb
  O37      1.0000 0.11620  0.38930  0.62190  Biso   1.000  O
  O38      1.0000 0.21780  0.26660  0.53070  Biso   1.000  O
  O39      1.0000 0.20590  0.20890  0.69560  Biso   1.000  O
  O40      1.0000 0.17530  0.18360  0.60660  Biso   1.000  O
  O41      1.0000 0.25150  0.29120  0.62040  Biso   1.000  O
  O42      1.0000 0.05070  0.28030  0.73210  Biso   1.000  O
  O43      1.0000 0.10990  0.35250  0.73870  Biso   1.000  O
  O44      1.0000 0.28250  0.79600  0.77960  Biso   1.000  O
  O45      1.0000 0.22830  0.68820  0.68930  Biso   1.000  O
  O46      1.0000 0.33490  0.72350  0.65500  Biso   1.000  O
  O47      1.0000 0.38060  0.65270  0.73810  Biso   1.000  O
  O48      1.0000 0.13470  0.73980  0.82460  Biso   1.000  O
  N34      1.0000 0.08450  0.41800  0.58800  Biso   1.000  N
  N35      1.0000 0.23580  0.21750  0.49210  Biso   1.000  N
  N36      1.0000 0.25060  0.20830  0.71290  Biso   1.000  N
  N37      1.0000 0.19100  0.13080  0.63070  Biso   1.000  N
  N38      1.0000 0.29560  0.30240  0.56850  Biso   1.000  N
  N39      1.0000 0.03180  0.28220  0.79350  Biso   1.000  N
  N40      1.0000 0.26970  0.85020  0.75800  Biso   1.000  N
  N41      1.0000 0.20830  0.64430  0.69660  Biso   1.000  N
  N42      1.0000 0.32580  0.73070  0.60450  Biso   1.000  N
  N43      1.0000 0.43810  0.65520  0.69180  Biso   1.000  N
  N44      1.0000 0.89490  0.26580  0.11520  Biso   1.000  N
  C166     1.0000 0.01120  0.45790  0.61810  Biso   1.000  C
  C167     1.0000 0.12610  0.40700  0.52400  Biso   1.000  C
  C168     1.0000 0.18720  0.22150  0.47660  Biso   1.000  C
  C169     1.0000 0.30420  0.16360  0.46770  Biso   1.000  C
  C170     1.0000 0.32420  0.17430  0.67220  Biso   1.000  C
  C171     1.0000 0.22150  0.24240  0.77140  Biso   1.000  C
  C172     1.0000 0.13580  0.12400  0.67840  Biso   1.000  C
  C173     1.0000 0.26120  0.08510  0.60990  Biso   1.000  C
  C174     1.0000 0.36180  0.25050  0.52490  Biso   1.000  C
  C175     1.0000 0.27620  0.36360  0.56010  Biso   1.000  C
  C176     1.0000 0.06710  0.22770  0.81090  Biso   1.000  C
  C177     1.0000 0.97610  0.33830  0.83730  Biso   1.000  C
  C178     1.0000 0.31980  0.84930  0.69930  Biso   1.000  C
  C179     1.0000 0.20630  0.90610  0.79450  Biso   1.000  C
  C180     1.0000 0.13620  0.66270  0.73480  Biso   1.000  C
  C181     1.0000 0.26050  0.58280  0.66650  Biso   1.000  C
  C182     1.0000 0.28430  0.79130  0.59920  Biso   1.000  C
  C183     1.0000 0.35720  0.67930  0.56100  Biso   1.000  C
  C184     1.0000 0.45340  0.69830  0.70280  Biso   1.000  C
  C185     1.0000 0.48060  0.61390  0.63400  Biso   1.000  C
  C186     1.0000 0.89110  0.32190  0.10130  Biso   1.000  C
  C187     1.0000 0.92750  0.21490  0.06930  Biso   1.000  C
  H133     1.0000 0.98250  0.46330  0.66290  Biso   1.000  H
  C188     1.0000 0.97750  0.49070  0.58490  Biso   1.000  C
  C189     1.0000 0.09200  0.43890  0.48930  Biso   1.000  C
  H134     1.0000 0.17780  0.37790  0.50290  Biso   1.000  H
  H135     1.0000 0.14170  0.26090  0.49050  Biso   1.000  H
  C190     1.0000 0.20360  0.16840  0.44050  Biso   1.000  C
  C191     1.0000 0.32130  0.11090  0.43110  Biso   1.000  C
  H136     1.0000 0.33950  0.16240  0.47590  Biso   1.000  H
  H137     1.0000 0.34370  0.14920  0.63250  Biso   1.000  H
  C192     1.0000 0.37110  0.17610  0.68830  Biso   1.000  C
  C193     1.0000 0.26800  0.24450  0.78840  Biso   1.000  C
  H138     1.0000 0.16990  0.26450  0.80040  Biso   1.000  H
  H139     1.0000 0.08600  0.15700  0.69360  Biso   1.000  H
  C194     1.0000 0.15060  0.07050  0.70460  Biso   1.000  C
  C195     1.0000 0.27910  0.02970  0.63410  Biso   1.000  C
  H140     1.0000 0.29950  0.09090  0.57770  Biso   1.000  H
  H141     1.0000 0.37420  0.20790  0.53170  Biso   1.000  H
  C196     1.0000 0.41020  0.26050  0.47090  Biso   1.000  C
  C197     1.0000 0.32490  0.37540  0.50810  Biso   1.000  C
  H142     1.0000 0.22920  0.39860  0.59000  Biso   1.000  H
  H143     1.0000 0.10780  0.19000  0.77920  Biso   1.000  H
  C198     1.0000 0.04400  0.22660  0.87470  Biso   1.000  C
  C199     1.0000 0.95220  0.33770  0.90060  Biso   1.000  C
  H144     1.0000 0.95430  0.37710  0.82410  Biso   1.000  H
  H145     1.0000 0.36490  0.81010  0.67440  Biso   1.000  H
  C200     1.0000 0.30550  0.90520  0.67580  Biso   1.000  C
  C201     1.0000 0.19100  0.96290  0.77150  Biso   1.000  C
  H146     1.0000 0.17200  0.90660  0.83610  Biso   1.000  H
  H147     1.0000 0.10010  0.70670  0.75530  Biso   1.000  H
  C202     1.0000 0.11560  0.61660  0.74370  Biso   1.000  C
  C203     1.0000 0.24120  0.53640  0.67480  Biso   1.000  C
  H148     1.0000 0.31050  0.57130  0.63960  Biso   1.000  H
  H149     1.0000 0.25990  0.82730  0.63210  Biso   1.000  H
  C204     1.0000 0.27750  0.80050  0.54540  Biso   1.000  C
  C205     1.0000 0.35270  0.68580  0.50560  Biso   1.000  C
  H150     1.0000 0.38320  0.63740  0.56750  Biso   1.000  H
  H151     1.0000 0.42630  0.72380  0.74440  Biso   1.000  H
  C206     1.0000 0.50950  0.70550  0.65260  Biso   1.000  C
  C207     1.0000 0.53720  0.61920  0.58400  Biso   1.000  C
  H152     1.0000 0.47120  0.58160  0.62800  Biso   1.000  H
  H153     1.0000 0.86780  0.35710  0.13470  Biso   1.000  H
  C208     1.0000 0.92120  0.32840  0.03850  Biso   1.000  C
  C209     1.0000 0.95770  0.22020  0.00610  Biso   1.000  C
  H154     1.0000 0.92980  0.17570  0.08020  Biso   1.000  H
  H155     1.0000 0.92570  0.51950  0.60720  Biso   1.000  H
  C210     1.0000 0.01800  0.48270  0.51870  Biso   1.000  C
  H156     1.0000 0.12080  0.43000  0.44400  Biso   1.000  H
  H157     1.0000 0.16850  0.17090  0.43120  Biso   1.000  H
  C211     1.0000 0.27120  0.11160  0.41800  Biso   1.000  C
  H158     1.0000 0.36870  0.07320  0.41450  Biso   1.000  H
  H159     1.0000 0.42270  0.15210  0.65920  Biso   1.000  H
  C212     1.0000 0.34430  0.21250  0.74640  Biso   1.000  C
  H160     1.0000 0.24770  0.26800  0.82920  Biso   1.000  H
  H161     1.0000 0.11090  0.06660  0.73730  Biso   1.000  H
  C213     1.0000 0.22230  0.02180  0.68450  Biso   1.000  C
  H162     1.0000 0.32930  0.99690  0.61730  Biso   1.000  H
  H163     1.0000 0.45520  0.22450  0.43990  Biso   1.000  H
  C214     1.0000 0.39370  0.32360  0.46140  Biso   1.000  C
  H164     1.0000 0.31200  0.41860  0.50360  Biso   1.000  H
  H165     1.0000 0.06910  0.18820  0.88680  Biso   1.000  H
  C215     1.0000 0.98430  0.28140  0.92100  Biso   1.000  C
  H166     1.0000 0.91280  0.37650  0.93140  Biso   1.000  H
  H167     1.0000 0.34130  0.90400  0.63470  Biso   1.000  H
  C216     1.0000 0.23990  0.96340  0.71090  Biso   1.000  C
  H168     1.0000 0.14640  0.00190  0.79770  Biso   1.000  H
  H169     1.0000 0.06530  0.62910  0.77010  Biso   1.000  H
  C217     1.0000 0.16860  0.55190  0.71410  Biso   1.000  C
  H170     1.0000 0.27830  0.49290  0.65320  Biso   1.000  H
  H171     1.0000 0.24920  0.84280  0.54110  Biso   1.000  H
  C218     1.0000 0.31210  0.74780  0.49770  Biso   1.000  C
  H172     1.0000 0.37670  0.64890  0.47400  Biso   1.000  H
  H173     1.0000 0.51870  0.73750  0.65980  Biso   1.000  H
  C219     1.0000 0.55090  0.66700  0.59360  Biso   1.000  C
  H174     1.0000 0.56660  0.59090  0.54370  Biso   1.000  H
  H175     1.0000 0.91950  0.36780  0.02870  Biso   1.000  H
  C220     1.0000 0.95440  0.27710  0.98920  Biso   1.000  C
  H176     1.0000 0.98120  0.18410  0.97370  Biso   1.000  H
  C221     1.0000 0.28960  0.05100  0.38330  Biso   1.000  C
  C222     1.0000 0.39330  0.21880  0.76120  Biso   1.000  C
  C223     1.0000 0.14880  0.50170  0.72490  Biso   1.000  C
  C224     1.0000 0.30980  0.75770  0.43820  Biso   1.000  C
  C225     1.0000 0.35780  0.01290  0.33070  Biso   1.000  C
  C226     1.0000 0.23810  0.03220  0.40470  Biso   1.000  C
  C227     1.0000 0.37390  0.23810  0.82370  Biso   1.000  C
  C228     1.0000 0.46190  0.20540  0.71180  Biso   1.000  C
  C229     1.0000 0.08180  0.51230  0.73710  Biso   1.000  C
  C230     1.0000 0.20160  0.43910  0.72090  Biso   1.000  C
  C231     1.0000 0.36970  0.71550  0.38080  Biso   1.000  C
  C232     1.0000 0.25010  0.80990  0.43690  Biso   1.000  C
  C233     1.0000 0.37530  0.95470  0.30140  Biso   1.000  C
  H177     1.0000 0.39310  0.02600  0.31420  Biso   1.000  H
  H178     1.0000 0.18990  0.05890  0.43980  Biso   1.000  H
  C234     1.0000 0.25700  0.97410  0.37490  Biso   1.000  C
  C235     1.0000 0.42310  0.24370  0.83400  Biso   1.000  C
  H179     1.0000 0.32740  0.24740  0.85860  Biso   1.000  H
  H180     1.0000 0.47720  0.19000  0.66940  Biso   1.000  H
  C236     1.0000 0.50950  0.21420  0.72350  Biso   1.000  C
  C237     1.0000 0.06850  0.46170  0.74240  Biso   1.000  C
  H181     1.0000 0.04430  0.55470  0.74180  Biso   1.000  H
  H182     1.0000 0.24750  0.43060  0.71430  Biso   1.000  H
  C238     1.0000 0.18700  0.38970  0.72650  Biso   1.000  C
  C239     1.0000 0.36920  0.72800  0.32450  Biso   1.000  C
  H183     1.0000 0.41060  0.67850  0.38010  Biso   1.000  H
  H184     1.0000 0.20810  0.83880  0.47570  Biso   1.000  H
  C240     1.0000 0.25130  0.81990  0.38060  Biso   1.000  C
  N45      1.0000 0.32450  0.93660  0.32460  Biso   1.000  N
  H185     1.0000 0.42270  0.92800  0.26540  Biso   1.000  H
  H186     1.0000 0.22190  0.96080  0.39020  Biso   1.000  H
  N46      1.0000 0.48810  0.23240  0.78540  Biso   1.000  N
  H187     1.0000 0.41030  0.25560  0.87640  Biso   1.000  H
  H188     1.0000 0.55520  0.20760  0.68930  Biso   1.000  H
  N47      1.0000 0.12090  0.40120  0.73700  Biso   1.000  N
  H189     1.0000 0.02260  0.46970  0.74990  Biso   1.000  H
  H190     1.0000 0.22340  0.34710  0.72300  Biso   1.000  H
  N48      1.0000 0.31040  0.77980  0.32550  Biso   1.000  N
  H191     1.0000 0.41040  0.69990  0.28500  Biso   1.000  H
  H192     1.0000 0.21000  0.85550  0.38050  Biso   1.000  H
