data_image0
_cell_length_a       24.001
_cell_length_b       24.1423
_cell_length_c       24.3564
_cell_angle_alpha    85.626
_cell_angle_beta     61.319
_cell_angle_gamma    60.944

_symmetry_space_group_name_H-M    "P 1"
_symmetry_int_tables_number       1

loop_
  _symmetry_equiv_pos_as_xyz
  'x, y, z'

loop_
  _atom_site_label
  _atom_site_occupancy
  _atom_site_fract_x
  _atom_site_fract_y
  _atom_site_fract_z
  _atom_site_thermal_displace_type
  _atom_site_B_iso_or_equiv
  _atom_site_type_symbol
  Er1      1.0000 0.36359  0.84524  0.19891  Biso   1.000  Er
  O1       1.0000 0.25290  0.87420  0.20550  Biso   1.000  O
  O2       1.0000 0.29720  0.95930  0.22010  Biso   1.000  O
  O3       1.0000 0.38230  0.86990  0.09810  Biso   1.000  O
  O4       1.0000 0.45440  0.87230  0.16080  Biso   1.000  O
  O5       1.0000 0.40320  0.75200  0.13320  Biso   1.000  O
  O6       1.0000 0.34210  0.87970  0.29720  Biso   1.000  O
  O7       1.0000 0.46420  0.76160  0.20500  Biso   1.000  O
  O8       1.0000 0.31160  0.79090  0.27220  Biso   1.000  O
  N1       1.0000 0.21370  0.84500  0.22860  Biso   1.000  N
  N2       1.0000 0.23260  0.99740  0.22350  Biso   1.000  N
  N3       1.0000 0.36690  0.84920  0.06040  Biso   1.000  N
  N4       1.0000 0.46670  0.90710  0.11670  Biso   1.000  N
  N5       1.0000 0.44730  0.69180  0.13760  Biso   1.000  N
  C1       1.0000 0.23330  0.79180  0.19350  Biso   1.000  C
  C2       1.0000 0.15510  0.87100  0.28890  Biso   1.000  C
  C3       1.0000 0.23220  0.01730  0.17170  Biso   1.000  C
  C4       1.0000 0.17140  0.01390  0.27920  Biso   1.000  C
  C5       1.0000 0.29670  0.87950  0.07350  Biso   1.000  C
  C6       1.0000 0.42060  0.79790  0.01340  Biso   1.000  C
  C7       1.0000 0.42770  0.97450  0.13500  Biso   1.000  C
  C8       1.0000 0.51660  0.87730  0.05780  Biso   1.000  C
  C9       1.0000 0.41710  0.66170  0.17830  Biso   1.000  C
  C10      1.0000 0.52090  0.66500  0.10010  Biso   1.000  C
  H1       1.0000 0.27600  0.77380  0.15190  Biso   1.000  H
  C11      1.0000 0.19020  0.76310  0.21860  Biso   1.000  C
  C12      1.0000 0.11320  0.84310  0.31450  Biso   1.000  C
  H2       1.0000 0.14350  0.90800  0.31300  Biso   1.000  H
  H3       1.0000 0.27730  0.00560  0.13320  Biso   1.000  H
  C13      1.0000 0.16590  0.05500  0.17400  Biso   1.000  C
  C14      1.0000 0.10250  0.05250  0.28380  Biso   1.000  C
  H4       1.0000 0.17430  0.99970  0.31570  Biso   1.000  H
  H5       1.0000 0.25920  0.91510  0.10860  Biso   1.000  H
  C15      1.0000 0.27910  0.85930  0.03640  Biso   1.000  C
  C16      1.0000 0.40360  0.77620  0.97540  Biso   1.000  C
  H6       1.0000 0.46970  0.77640  0.00560  Biso   1.000  H
  H7       1.0000 0.39290  0.99560  0.17860  Biso   1.000  H
  C17      1.0000 0.44140  0.00920  0.08790  Biso   1.000  C
  C18      1.0000 0.53240  0.91280  0.00780  Biso   1.000  C
  H8       1.0000 0.54330  0.83140  0.04750  Biso   1.000  H
  H9       1.0000 0.36500  0.68000  0.20120  Biso   1.000  H
  C19      1.0000 0.46170  0.60410  0.18700  Biso   1.000  C
  C20      1.0000 0.56660  0.60910  0.10730  Biso   1.000  C
  H10      1.0000 0.54040  0.68610  0.06830  Biso   1.000  H
  H11      1.0000 0.20230  0.72680  0.19300  Biso   1.000  H
  C21      1.0000 0.12930  0.78700  0.28100  Biso   1.000  C
  H12      1.0000 0.07140  0.86190  0.35650  Biso   1.000  H
  H13      1.0000 0.16590  0.06980  0.13670  Biso   1.000  H
  C22      1.0000 0.09830  0.07240  0.22940  Biso   1.000  C
  H14      1.0000 0.05840  0.06530  0.32380  Biso   1.000  H
  H15      1.0000 0.22960  0.88290  0.04500  Biso   1.000  H
  C23      1.0000 0.33070  0.80570  0.98690  Biso   1.000  C
  H16      1.0000 0.44230  0.74040  0.94070  Biso   1.000  H
  H17      1.0000 0.41500  0.05500  0.09990  Biso   1.000  H
  C24      1.0000 0.49190  0.98060  0.02360  Biso   1.000  C
  H18      1.0000 0.56960  0.89060  0.96490  Biso   1.000  H
  H19      1.0000 0.43990  0.58230  0.21580  Biso   1.000  H
  C25      1.0000 0.53870  0.57600  0.15460  Biso   1.000  C
  H20      1.0000 0.61850  0.59090  0.08070  Biso   1.000  H
  C26      1.0000 0.08070  0.75810  0.30770  Biso   1.000  C
  C27      1.0000 0.02800  0.10570  0.23030  Biso   1.000  C
  C28      1.0000 0.31060  0.78180  0.95070  Biso   1.000  C
  C29      1.0000 0.58840  0.52050  0.17070  Biso   1.000  C
  C30      1.0000 0.10180  0.70010  0.28070  Biso   1.000  C
  C31      1.0000 0.00990  0.79310  0.36300  Biso   1.000  C
  C32      1.0000 0.01820  0.09010  0.18320  Biso   1.000  C
  C33      1.0000 0.96120  0.15210  0.28600  Biso   1.000  C
  C34      1.0000 0.24310  0.82230  0.95290  Biso   1.000  C
  C35      1.0000 0.35710  0.71610  0.91030  Biso   1.000  C
  C36      1.0000 0.65700  0.47580  0.12760  Biso   1.000  C
  C37      1.0000 0.56710  0.51830  0.23410  Biso   1.000  C
  C38      1.0000 0.05580  0.67570  0.30750  Biso   1.000  C
  H21      1.0000 0.14860  0.67580  0.24300  Biso   1.000  H
  H22      1.0000 0.99380  0.83470  0.38270  Biso   1.000  H
  C39      1.0000 0.96640  0.76950  0.38760  Biso   1.000  C
  C40      1.0000 0.95060  0.11760  0.19110  Biso   1.000  C
  H23      1.0000 0.05990  0.05960  0.14510  Biso   1.000  H
  H24      1.0000 0.96400  0.16530  0.32000  Biso   1.000  H
  C41      1.0000 0.89680  0.17630  0.29080  Biso   1.000  C
  C42      1.0000 0.22020  0.79910  0.92250  Biso   1.000  C
  H25      1.0000 0.21290  0.86600  0.97540  Biso   1.000  H
  H26      1.0000 0.40480  0.68720  0.90460  Biso   1.000  H
  C43      1.0000 0.33140  0.69840  0.88270  Biso   1.000  C
  C44      1.0000 0.70520  0.42650  0.14340  Biso   1.000  C
  H27      1.0000 0.67390  0.47770  0.08370  Biso   1.000  H
  H28      1.0000 0.51890  0.55030  0.26630  Biso   1.000  H
  C45      1.0000 0.61300  0.47160  0.25180  Biso   1.000  C
  N6       1.0000 0.98820  0.70940  0.35900  Biso   1.000  N
  H29      1.0000 0.07240  0.63360  0.28890  Biso   1.000  H
  H30      1.0000 0.91940  0.79360  0.42530  Biso   1.000  H
  N7       1.0000 0.89100  0.15780  0.24390  Biso   1.000  N
  H31      1.0000 0.94560  0.10770  0.15730  Biso   1.000  H
  H32      1.0000 0.85350  0.20740  0.32790  Biso   1.000  H
  N8       1.0000 0.26460  0.73700  0.88830  Biso   1.000  N
  H33      1.0000 0.17360  0.82630  0.92550  Biso   1.000  H
  H34      1.0000 0.36150  0.65600  0.85720  Biso   1.000  H
  N9       1.0000 0.68280  0.42620  0.20570  Biso   1.000  N
  H35      1.0000 0.75270  0.39390  0.11110  Biso   1.000  H
  H36      1.0000 0.59670  0.47050  0.29570  Biso   1.000  H
  O9       1.0000 0.94260  0.68650  0.38230  Biso   1.000  O
  O10      1.0000 0.82290  0.18130  0.25280  Biso   1.000  O
  O11      1.0000 0.23950  0.71600  0.86200  Biso   1.000  O
  O12      1.0000 0.72740  0.38310  0.22380  Biso   1.000  O
  Er2      1.0000 0.85074  0.71492  0.35619  Biso   1.000  Er
  Er3      1.0000 0.74470  0.28060  0.23961  Biso   1.000  Er
  O13      1.0000 0.88140  0.61280  0.37980  Biso   1.000  O
  O14      1.0000 0.78060  0.73390  0.47050  Biso   1.000  O
  O15      1.0000 0.79350  0.79040  0.30600  Biso   1.000  O
  O16      1.0000 0.82180  0.81720  0.39570  Biso   1.000  O
  O17      1.0000 0.74780  0.70980  0.38190  Biso   1.000  O
  O18      1.0000 0.94840  0.71870  0.27030  Biso   1.000  O
  O19      1.0000 0.88740  0.64950  0.26450  Biso   1.000  O
  O20      1.0000 0.72010  0.20440  0.21830  Biso   1.000  O
  O21      1.0000 0.77360  0.30980  0.30670  Biso   1.000  O
  O22      1.0000 0.66690  0.27650  0.34220  Biso   1.000  O
  O23      1.0000 0.62230  0.34530  0.25920  Biso   1.000  O
  O24      1.0000 0.86550  0.26070  0.17340  Biso   1.000  O
  N10      1.0000 0.91410  0.58380  0.41280  Biso   1.000  N
  N11      1.0000 0.76330  0.78330  0.50980  Biso   1.000  N
  N12      1.0000 0.74790  0.79070  0.28930  Biso   1.000  N
  N13      1.0000 0.80650  0.86960  0.36970  Biso   1.000  N
  N14      1.0000 0.70280  0.69930  0.43460  Biso   1.000  N
  N15      1.0000 0.96670  0.71800  0.20860  Biso   1.000  N
  N16      1.0000 0.73110  0.15000  0.24240  Biso   1.000  N
  N17      1.0000 0.79320  0.35470  0.30040  Biso   1.000  N
  N18      1.0000 0.67780  0.26750  0.39090  Biso   1.000  N
  N19      1.0000 0.56340  0.34460  0.30500  Biso   1.000  N
  N20      1.0000 0.10600  0.73280  0.88610  Biso   1.000  N
  C46      1.0000 0.98860  0.54350  0.38250  Biso   1.000  C
  C47      1.0000 0.87370  0.59310  0.47680  Biso   1.000  C
  C48      1.0000 0.81220  0.77900  0.52470  Biso   1.000  C
  C49      1.0000 0.69680  0.83630  0.53240  Biso   1.000  C
  C50      1.0000 0.67610  0.82410  0.32830  Biso   1.000  C
  C51      1.0000 0.77580  0.75830  0.23120  Biso   1.000  C
  C52      1.0000 0.86260  0.87550  0.32310  Biso   1.000  C
  C53      1.0000 0.73710  0.91590  0.39200  Biso   1.000  C
  C54      1.0000 0.63650  0.75120  0.47930  Biso   1.000  C
  C55      1.0000 0.72270  0.63750  0.44220  Biso   1.000  C
  C56      1.0000 0.93030  0.77100  0.19200  Biso   1.000  C
  C57      1.0000 0.02240  0.66240  0.16490  Biso   1.000  C
  C58      1.0000 0.68080  0.15240  0.29980  Biso   1.000  C
  C59      1.0000 0.79490  0.09380  0.20460  Biso   1.000  C
  C60      1.0000 0.86400  0.33760  0.26400  Biso   1.000  C
  C61      1.0000 0.73910  0.41540  0.33230  Biso   1.000  C
  C62      1.0000 0.72070  0.20550  0.39620  Biso   1.000  C
  C63      1.0000 0.64370  0.31990  0.43630  Biso   1.000  C
  C64      1.0000 0.54960  0.30150  0.29410  Biso   1.000  C
  C65      1.0000 0.52430  0.38310  0.36210  Biso   1.000  C
  C66      1.0000 0.10840  0.67640  0.90190  Biso   1.000  C
  C67      1.0000 0.07380  0.78400  0.93260  Biso   1.000  C
  H37      1.0000 0.01760  0.53750  0.33740  Biso   1.000  H
  C68      1.0000 0.02050  0.51290  0.41530  Biso   1.000  C
  C69      1.0000 0.90730  0.56100  0.51060  Biso   1.000  C
  H38      1.0000 0.82160  0.62190  0.49850  Biso   1.000  H
  H39      1.0000 0.85850  0.74010  0.51000  Biso   1.000  H
  C70      1.0000 0.79440  0.83060  0.56070  Biso   1.000  C
  C71      1.0000 0.68010  0.88740  0.56960  Biso   1.000  C
  H40      1.0000 0.66190  0.83850  0.52280  Biso   1.000  H
  H41      1.0000 0.65690  0.84930  0.36790  Biso   1.000  H
  C72      1.0000 0.62820  0.82340  0.31330  Biso   1.000  C
  C73      1.0000 0.73180  0.75540  0.21300  Biso   1.000  C
  H42      1.0000 0.82760  0.73700  0.20210  Biso   1.000  H
  H43      1.0000 0.91210  0.84210  0.30910  Biso   1.000  H
  C74      1.0000 0.84990  0.92830  0.29560  Biso   1.000  C
  C75      1.0000 0.71850  0.97150  0.36690  Biso   1.000  C
  H44      1.0000 0.69890  0.91120  0.42620  Biso   1.000  H
  H45      1.0000 0.62440  0.79420  0.47380  Biso   1.000  H
  C76      1.0000 0.58860  0.74050  0.53120  Biso   1.000  C
  C77      1.0000 0.67190  0.62760  0.49690  Biso   1.000  C
  H46      1.0000 0.76920  0.60210  0.41170  Biso   1.000  H
  H47      1.0000 0.88750  0.80810  0.22360  Biso   1.000  H
  C78      1.0000 0.95570  0.77200  0.12700  Biso   1.000  C
  C79      1.0000 0.04920  0.66060  0.10120  Biso   1.000  C
  H48      1.0000 0.04330  0.62380  0.17910  Biso   1.000  H
  H49      1.0000 0.63640  0.19250  0.32400  Biso   1.000  H
  C80      1.0000 0.69200  0.09730  0.32490  Biso   1.000  C
  C81      1.0000 0.80980  0.03770  0.22800  Biso   1.000  C
  H50      1.0000 0.82880  0.09330  0.16260  Biso   1.000  H
  H51      1.0000 0.90070  0.29330  0.24490  Biso   1.000  H
  C82      1.0000 0.88500  0.38370  0.25340  Biso   1.000  C
  C83      1.0000 0.75750  0.46490  0.32520  Biso   1.000  C
  H52      1.0000 0.68940  0.42550  0.35910  Biso   1.000  H
  H53      1.0000 0.74700  0.16920  0.36300  Biso   1.000  H
  C84      1.0000 0.72390  0.19820  0.45280  Biso   1.000  C
  C85      1.0000 0.64890  0.31300  0.49190  Biso   1.000  C
  H54      1.0000 0.61590  0.36190  0.43060  Biso   1.000  H
  H55      1.0000 0.57810  0.27490  0.25290  Biso   1.000  H
  C86      1.0000 0.49210  0.29530  0.34440  Biso   1.000  C
  C87      1.0000 0.46540  0.37800  0.41410  Biso   1.000  C
  H56      1.0000 0.53550  0.41400  0.36830  Biso   1.000  H
  H57      1.0000 0.12920  0.64130  0.86950  Biso   1.000  H
  C88      1.0000 0.08150  0.67060  0.96310  Biso   1.000  C
  C89      1.0000 0.04200  0.77930  0.99590  Biso   1.000  C
  H58      1.0000 0.07320  0.82280  0.92150  Biso   1.000  H
  H59      1.0000 0.07290  0.48680  0.39320  Biso   1.000  H
  C90      1.0000 0.98120  0.51690  0.48100  Biso   1.000  C
  H60      1.0000 0.87850  0.56970  0.55590  Biso   1.000  H
  H61      1.0000 0.82940  0.82730  0.57070  Biso   1.000  H
  C91      1.0000 0.72780  0.88830  0.58400  Biso   1.000  C
  H62      1.0000 0.63220  0.92480  0.58660  Biso   1.000  H
  H63      1.0000 0.57660  0.84810  0.34300  Biso   1.000  H
  C92      1.0000 0.65260  0.78800  0.25620  Biso   1.000  C
  H64      1.0000 0.75300  0.73200  0.17180  Biso   1.000  H
  H65      1.0000 0.89040  0.93070  0.26200  Biso   1.000  H
  C93      1.0000 0.77790  0.97860  0.31640  Biso   1.000  C
  H66      1.0000 0.66820  0.00390  0.38240  Biso   1.000  H
  H67      1.0000 0.54240  0.77630  0.56150  Biso   1.000  H
  C94      1.0000 0.60590  0.67710  0.54130  Biso   1.000  C
  H68      1.0000 0.68470  0.58460  0.50280  Biso   1.000  H
  H69      1.0000 0.93150  0.81060  0.11440  Biso   1.000  H
  C95      1.0000 0.01570  0.71700  0.08090  Biso   1.000  C
  H70      1.0000 0.09000  0.62170  0.07090  Biso   1.000  H
  H71      1.0000 0.65540  0.09960  0.36620  Biso   1.000  H
  C96      1.0000 0.75890  0.03680  0.28870  Biso   1.000  C
  H72      1.0000 0.85540  0.99880  0.20250  Biso   1.000  H
  H73      1.0000 0.93510  0.37160  0.22490  Biso   1.000  H
  C97      1.0000 0.83130  0.44800  0.28510  Biso   1.000  C
  H74      1.0000 0.72020  0.50830  0.34730  Biso   1.000  H
  H75      1.0000 0.75080  0.15610  0.45900  Biso   1.000  H
  C98      1.0000 0.68810  0.25210  0.49950  Biso   1.000  C
  H76      1.0000 0.62570  0.34990  0.52340  Biso   1.000  H
  H77      1.0000 0.48170  0.26470  0.33600  Biso   1.000  H
  C99      1.0000 0.45150  0.33090  0.40350  Biso   1.000  C
  H78      1.0000 0.43640  0.40590  0.45480  Biso   1.000  H
  H79      1.0000 0.08770  0.62990  0.97310  Biso   1.000  H
  C100     1.0000 0.04520  0.72190  0.01220  Biso   1.000  C
  H80      1.0000 0.01790  0.81550  0.02850  Biso   1.000  H
  C101     1.0000 0.70810  0.94860  0.61900  Biso   1.000  C
  C102     1.0000 0.60350  0.78270  0.24150  Biso   1.000  C
  C103     1.0000 0.84800  0.50020  0.27680  Biso   1.000  C
  C104     1.0000 0.68970  0.24210  0.56060  Biso   1.000  C
  C105     1.0000 0.64050  0.98860  0.67090  Biso   1.000  C
  C106     1.0000 0.76150  0.96770  0.59700  Biso   1.000  C
  C107     1.0000 0.62410  0.76200  0.17850  Biso   1.000  C
  C108     1.0000 0.53530  0.79500  0.29030  Biso   1.000  C
  C109     1.0000 0.91440  0.48990  0.26550  Biso   1.000  C
  C110     1.0000 0.79680  0.56160  0.28110  Biso   1.000  C
  C111     1.0000 0.63130  0.28400  0.61580  Biso   1.000  C
  C112     1.0000 0.74960  0.18980  0.56220  Biso   1.000  C
  C113     1.0000 0.62420  0.04420  0.69990  Biso   1.000  C
  H81      1.0000 0.60370  0.97700  0.68720  Biso   1.000  H
  H82      1.0000 0.81010  0.93980  0.56250  Biso   1.000  H
  C114     1.0000 0.74540  0.02340  0.62330  Biso   1.000  C
  C115     1.0000 0.57460  0.75930  0.16690  Biso   1.000  C
  H83      1.0000 0.67230  0.74980  0.14410  Biso   1.000  H
  H84      1.0000 0.52020  0.80950  0.33300  Biso   1.000  H
  C116     1.0000 0.48820  0.78680  0.27880  Biso   1.000  C
  C117     1.0000 0.92960  0.53960  0.25880  Biso   1.000  C
  H85      1.0000 0.95120  0.44740  0.26220  Biso   1.000  H
  H86      1.0000 0.75110  0.56990  0.28700  Biso   1.000  H
  C118     1.0000 0.80970  0.61240  0.27720  Biso   1.000  C
  C119     1.0000 0.63220  0.27060  0.67380  Biso   1.000  C
  H87      1.0000 0.59070  0.32140  0.61630  Biso   1.000  H
  H88      1.0000 0.79170  0.16050  0.52350  Biso   1.000  H
  C120     1.0000 0.74880  0.18020  0.61740  Biso   1.000  C
  N21      1.0000 0.67560  0.06270  0.67560  Biso   1.000  N
  H89      1.0000 0.57730  0.07030  0.73700  Biso   1.000  H
  H90      1.0000 0.78120  0.03620  0.60660  Biso   1.000  H
  N22      1.0000 0.50950  0.76910  0.21640  Biso   1.000  N
  H91      1.0000 0.58610  0.75060  0.12420  Biso   1.000  H
  H92      1.0000 0.44240  0.79330  0.31310  Biso   1.000  H
  N23      1.0000 0.87680  0.59970  0.26600  Biso   1.000  N
  H93      1.0000 0.97680  0.53090  0.24930  Biso   1.000  H
  H94      1.0000 0.77240  0.65530  0.28220  Biso   1.000  H
  N24      1.0000 0.68980  0.21940  0.67280  Biso   1.000  N
  H95      1.0000 0.59110  0.29880  0.71340  Biso   1.000  H
  H96      1.0000 0.79080  0.14490  0.61720  Biso   1.000  H
  Er4      1.0000 0.63641  0.15476  0.80109  Biso   1.000  Er
  O25      1.0000 0.74710  0.12580  0.79450  Biso   1.000  O
  O26      1.0000 0.70280  0.04070  0.77990  Biso   1.000  O
  O27      1.0000 0.61770  0.13010  0.90190  Biso   1.000  O
  O28      1.0000 0.54560  0.12770  0.83920  Biso   1.000  O
  O29      1.0000 0.59680  0.24800  0.86680  Biso   1.000  O
  O30      1.0000 0.65790  0.12030  0.70280  Biso   1.000  O
  O31      1.0000 0.53580  0.23840  0.79500  Biso   1.000  O
  O32      1.0000 0.68840  0.20910  0.72780  Biso   1.000  O
  N25      1.0000 0.78630  0.15500  0.77140  Biso   1.000  N
  N26      1.0000 0.76740  0.00260  0.77650  Biso   1.000  N
  N27      1.0000 0.63310  0.15080  0.93960  Biso   1.000  N
  N28      1.0000 0.53330  0.09290  0.88330  Biso   1.000  N
  N29      1.0000 0.55270  0.30820  0.86240  Biso   1.000  N
  C121     1.0000 0.76670  0.20820  0.80650  Biso   1.000  C
  C122     1.0000 0.84490  0.12900  0.71110  Biso   1.000  C
  C123     1.0000 0.76780  0.98270  0.82830  Biso   1.000  C
  C124     1.0000 0.82860  0.98610  0.72080  Biso   1.000  C
  C125     1.0000 0.70330  0.12050  0.92650  Biso   1.000  C
  C126     1.0000 0.57940  0.20210  0.98660  Biso   1.000  C
  C127     1.0000 0.57230  0.02550  0.86500  Biso   1.000  C
  C128     1.0000 0.48340  0.12270  0.94220  Biso   1.000  C
  C129     1.0000 0.58290  0.33830  0.82170  Biso   1.000  C
  C130     1.0000 0.47910  0.33500  0.89990  Biso   1.000  C
  H97      1.0000 0.72400  0.22620  0.84810  Biso   1.000  H
  C131     1.0000 0.80980  0.23690  0.78140  Biso   1.000  C
  C132     1.0000 0.88680  0.15690  0.68550  Biso   1.000  C
  H98      1.0000 0.85650  0.09200  0.68700  Biso   1.000  H
  H99      1.0000 0.72270  0.99440  0.86680  Biso   1.000  H
  C133     1.0000 0.83410  0.94500  0.82600  Biso   1.000  C
  C134     1.0000 0.89750  0.94750  0.71620  Biso   1.000  C
  H100     1.0000 0.82570  0.00030  0.68430  Biso   1.000  H
  H101     1.0000 0.74080  0.08490  0.89140  Biso   1.000  H
  C135     1.0000 0.72090  0.14070  0.96360  Biso   1.000  C
  C136     1.0000 0.59640  0.22380  0.02460  Biso   1.000  C
  H102     1.0000 0.53030  0.22360  0.99440  Biso   1.000  H
  H103     1.0000 0.60710  0.00440  0.82140  Biso   1.000  H
  C137     1.0000 0.55860  0.99080  0.91210  Biso   1.000  C
  C138     1.0000 0.46760  0.08720  0.99220  Biso   1.000  C
  H104     1.0000 0.45670  0.16860  0.95250  Biso   1.000  H
  H105     1.0000 0.63500  0.32000  0.79880  Biso   1.000  H
  C139     1.0000 0.53830  0.39590  0.81300  Biso   1.000  C
  C140     1.0000 0.43340  0.39090  0.89270  Biso   1.000  C
  H106     1.0000 0.45960  0.31390  0.93170  Biso   1.000  H
  H107     1.0000 0.79770  0.27320  0.80700  Biso   1.000  H
  C141     1.0000 0.87070  0.21300  0.71900  Biso   1.000  C
  H108     1.0000 0.92860  0.13810  0.64350  Biso   1.000  H
  H109     1.0000 0.83410  0.93020  0.86330  Biso   1.000  H
  C142     1.0000 0.90170  0.92760  0.77060  Biso   1.000  C
  H110     1.0000 0.94160  0.93470  0.67620  Biso   1.000  H
  H111     1.0000 0.77040  0.11710  0.95500  Biso   1.000  H
  C143     1.0000 0.66930  0.19430  0.01310  Biso   1.000  C
  H112     1.0000 0.55770  0.25960  0.05930  Biso   1.000  H
  H113     1.0000 0.58500  0.94500  0.90010  Biso   1.000  H
  C144     1.0000 0.50810  0.01940  0.97640  Biso   1.000  C
  H114     1.0000 0.43040  0.10940  0.03510  Biso   1.000  H
  H115     1.0000 0.56010  0.41770  0.78420  Biso   1.000  H
  C145     1.0000 0.46130  0.42400  0.84540  Biso   1.000  C
  H116     1.0000 0.38150  0.40910  0.91930  Biso   1.000  H
  C146     1.0000 0.91930  0.24190  0.69230  Biso   1.000  C
  C147     1.0000 0.97200  0.89430  0.76970  Biso   1.000  C
  C148     1.0000 0.68940  0.21820  0.04930  Biso   1.000  C
  C149     1.0000 0.41160  0.47950  0.82930  Biso   1.000  C
  C150     1.0000 0.89820  0.29990  0.71930  Biso   1.000  C
  C151     1.0000 0.99010  0.20690  0.63700  Biso   1.000  C
  C152     1.0000 0.98180  0.90990  0.81680  Biso   1.000  C
  C153     1.0000 0.03880  0.84790  0.71400  Biso   1.000  C
  C154     1.0000 0.75690  0.17770  0.04710  Biso   1.000  C
  C155     1.0000 0.64290  0.28390  0.08970  Biso   1.000  C
  C156     1.0000 0.34300  0.52420  0.87240  Biso   1.000  C
  C157     1.0000 0.43290  0.48170  0.76590  Biso   1.000  C
  C158     1.0000 0.94420  0.32430  0.69250  Biso   1.000  C
  H117     1.0000 0.85140  0.32420  0.75700  Biso   1.000  H
  H118     1.0000 0.00620  0.16530  0.61730  Biso   1.000  H
  C159     1.0000 0.03360  0.23050  0.61240  Biso   1.000  C
  C160     1.0000 0.04940  0.88240  0.80890  Biso   1.000  C
  H119     1.0000 0.94010  0.94040  0.85490  Biso   1.000  H
  H120     1.0000 0.03600  0.83470  0.68000  Biso   1.000  H
  C161     1.0000 0.10320  0.82370  0.70920  Biso   1.000  C
  C162     1.0000 0.77980  0.20090  0.07750  Biso   1.000  C
  H121     1.0000 0.78710  0.13400  0.02460  Biso   1.000  H
  H122     1.0000 0.59520  0.31280  0.09540  Biso   1.000  H
  C163     1.0000 0.66860  0.30160  0.11730  Biso   1.000  C
  C164     1.0000 0.29480  0.57350  0.85660  Biso   1.000  C
  H123     1.0000 0.32610  0.52230  0.91630  Biso   1.000  H
  H124     1.0000 0.48110  0.44970  0.73370  Biso   1.000  H
  C165     1.0000 0.38700  0.52840  0.74820  Biso   1.000  C
  N30      1.0000 0.01180  0.29060  0.64100  Biso   1.000  N
  H125     1.0000 0.92760  0.36640  0.71110  Biso   1.000  H
  H126     1.0000 0.08060  0.20640  0.57470  Biso   1.000  H
  N31      1.0000 0.10900  0.84220  0.75610  Biso   1.000  N
  H127     1.0000 0.05440  0.89230  0.84270  Biso   1.000  H
  H128     1.0000 0.14650  0.79260  0.67210  Biso   1.000  H
  N32      1.0000 0.73540  0.26300  0.11170  Biso   1.000  N
  H129     1.0000 0.82640  0.17370  0.07450  Biso   1.000  H
  H130     1.0000 0.63850  0.34400  0.14280  Biso   1.000  H
  N33      1.0000 0.31720  0.57380  0.79430  Biso   1.000  N
  H131     1.0000 0.24730  0.60610  0.88890  Biso   1.000  H
  H132     1.0000 0.40330  0.52950  0.70430  Biso   1.000  H
  O33      1.0000 0.05740  0.31350  0.61770  Biso   1.000  O
  O34      1.0000 0.17710  0.81870  0.74720  Biso   1.000  O
  O35      1.0000 0.76050  0.28400  0.13800  Biso   1.000  O
  O36      1.0000 0.27260  0.61690  0.77620  Biso   1.000  O
  Er5      1.0000 0.14926  0.28508  0.64381  Biso   1.000  Er
  Er6      1.0000 0.25530  0.71940  0.76039  Biso   1.000  Er
  O37      1.0000 0.11860  0.38720  0.62020  Biso   1.000  O
  O38      1.0000 0.21940  0.26610  0.52950  Biso   1.000  O
  O39      1.0000 0.20650  0.20960  0.69400  Biso   1.000  O
  O40      1.0000 0.17820  0.18280  0.60430  Biso   1.000  O
  O41      1.0000 0.25220  0.29020  0.61810  Biso   1.000  O
  O42      1.0000 0.05160  0.28130  0.72970  Biso   1.000  O
  O43      1.0000 0.11260  0.35050  0.73550  Biso   1.000  O
  O44      1.0000 0.27990  0.79560  0.78170  Biso   1.000  O
  O45      1.0000 0.22640  0.69020  0.69330  Biso   1.000  O
  O46      1.0000 0.33310  0.72350  0.65780  Biso   1.000  O
  O47      1.0000 0.37770  0.65470  0.74080  Biso   1.000  O
  O48      1.0000 0.13450  0.73930  0.82660  Biso   1.000  O
  N34      1.0000 0.08590  0.41620  0.58720  Biso   1.000  N
  N35      1.0000 0.23670  0.21670  0.49020  Biso   1.000  N
  N36      1.0000 0.25210  0.20930  0.71070  Biso   1.000  N
  N37      1.0000 0.19350  0.13040  0.63030  Biso   1.000  N
  N38      1.0000 0.29720  0.30070  0.56540  Biso   1.000  N
  N39      1.0000 0.03330  0.28200  0.79140  Biso   1.000  N
  N40      1.0000 0.26890  0.85000  0.75760  Biso   1.000  N
  N41      1.0000 0.20680  0.64530  0.69960  Biso   1.000  N
  N42      1.0000 0.32220  0.73250  0.60910  Biso   1.000  N
  N43      1.0000 0.43660  0.65540  0.69500  Biso   1.000  N
  N44      1.0000 0.89400  0.26720  0.11390  Biso   1.000  N
  C166     1.0000 0.01140  0.45650  0.61750  Biso   1.000  C
  C167     1.0000 0.12630  0.40690  0.52320  Biso   1.000  C
  C168     1.0000 0.18780  0.22100  0.47530  Biso   1.000  C
  C169     1.0000 0.30320  0.16370  0.46760  Biso   1.000  C
  C170     1.0000 0.32390  0.17590  0.67170  Biso   1.000  C
  C171     1.0000 0.22420  0.24170  0.76880  Biso   1.000  C
  C172     1.0000 0.13740  0.12450  0.67690  Biso   1.000  C
  C173     1.0000 0.26290  0.08410  0.60800  Biso   1.000  C
  C174     1.0000 0.36350  0.24880  0.52070  Biso   1.000  C
  C175     1.0000 0.27730  0.36250  0.55780  Biso   1.000  C
  C176     1.0000 0.06970  0.22900  0.80800  Biso   1.000  C
  C177     1.0000 0.97760  0.33760  0.83510  Biso   1.000  C
  C178     1.0000 0.31920  0.84760  0.70020  Biso   1.000  C
  C179     1.0000 0.20510  0.90620  0.79540  Biso   1.000  C
  C180     1.0000 0.13600  0.66240  0.73600  Biso   1.000  C
  C181     1.0000 0.26090  0.58460  0.66770  Biso   1.000  C
  C182     1.0000 0.27930  0.79450  0.60380  Biso   1.000  C
  C183     1.0000 0.35630  0.68010  0.56370  Biso   1.000  C
  C184     1.0000 0.45040  0.69850  0.70590  Biso   1.000  C
  C185     1.0000 0.47570  0.61690  0.63790  Biso   1.000  C
  C186     1.0000 0.89160  0.32360  0.09810  Biso   1.000  C
  C187     1.0000 0.92620  0.21600  0.06740  Biso   1.000  C
  H133     1.0000 0.98240  0.46250  0.66260  Biso   1.000  H
  C188     1.0000 0.97950  0.48710  0.58470  Biso   1.000  C
  C189     1.0000 0.09270  0.43900  0.48940  Biso   1.000  C
  H134     1.0000 0.17840  0.37810  0.50150  Biso   1.000  H
  H135     1.0000 0.14150  0.25990  0.49000  Biso   1.000  H
  C190     1.0000 0.20560  0.16940  0.43930  Biso   1.000  C
  C191     1.0000 0.31990  0.11260  0.43040  Biso   1.000  C
  H136     1.0000 0.33810  0.16150  0.47720  Biso   1.000  H
  H137     1.0000 0.34310  0.15070  0.63210  Biso   1.000  H
  C192     1.0000 0.37180  0.17660  0.68670  Biso   1.000  C
  C193     1.0000 0.26820  0.24460  0.78700  Biso   1.000  C
  H138     1.0000 0.17240  0.26300  0.79790  Biso   1.000  H
  H139     1.0000 0.08790  0.15790  0.69090  Biso   1.000  H
  C194     1.0000 0.15010  0.07170  0.70440  Biso   1.000  C
  C195     1.0000 0.28150  0.02850  0.63310  Biso   1.000  C
  H140     1.0000 0.30110  0.08880  0.57380  Biso   1.000  H
  H141     1.0000 0.37560  0.20580  0.52620  Biso   1.000  H
  C196     1.0000 0.41140  0.25950  0.46880  Biso   1.000  C
  C197     1.0000 0.32810  0.37240  0.50310  Biso   1.000  C
  H142     1.0000 0.23080  0.39790  0.58830  Biso   1.000  H
  H143     1.0000 0.11250  0.19190  0.77640  Biso   1.000  H
  C198     1.0000 0.04430  0.22800  0.87300  Biso   1.000  C
  C199     1.0000 0.95080  0.33940  0.89880  Biso   1.000  C
  H144     1.0000 0.95670  0.37620  0.82090  Biso   1.000  H
  H145     1.0000 0.36360  0.80750  0.67600  Biso   1.000  H
  C200     1.0000 0.30800  0.90270  0.67510  Biso   1.000  C
  C201     1.0000 0.19020  0.96230  0.77200  Biso   1.000  C
  H146     1.0000 0.17120  0.90670  0.83740  Biso   1.000  H
  H147     1.0000 0.09930  0.70670  0.75510  Biso   1.000  H
  C202     1.0000 0.11500  0.61630  0.74660  Biso   1.000  C
  C203     1.0000 0.24250  0.53510  0.67480  Biso   1.000  C
  H148     1.0000 0.31060  0.57450  0.64090  Biso   1.000  H
  H149     1.0000 0.25300  0.83080  0.63700  Biso   1.000  H
  C204     1.0000 0.27610  0.80180  0.54720  Biso   1.000  C
  C205     1.0000 0.35110  0.68700  0.50810  Biso   1.000  C
  H150     1.0000 0.38410  0.63810  0.56940  Biso   1.000  H
  H151     1.0000 0.42190  0.72510  0.74710  Biso   1.000  H
  C206     1.0000 0.50790  0.70470  0.65560  Biso   1.000  C
  C207     1.0000 0.53460  0.62200  0.58590  Biso   1.000  C
  H152     1.0000 0.46450  0.58600  0.63170  Biso   1.000  H
  H153     1.0000 0.87080  0.35870  0.13050  Biso   1.000  H
  C208     1.0000 0.91850  0.32940  0.03690  Biso   1.000  C
  C209     1.0000 0.95800  0.22070  0.00410  Biso   1.000  C
  H154     1.0000 0.92680  0.17720  0.07850  Biso   1.000  H
  H155     1.0000 0.92710  0.51320  0.60680  Biso   1.000  H
  C210     1.0000 0.01880  0.48310  0.51900  Biso   1.000  C
  H156     1.0000 0.12150  0.43030  0.44410  Biso   1.000  H
  H157     1.0000 0.17060  0.17270  0.42930  Biso   1.000  H
  C211     1.0000 0.27220  0.11170  0.41600  Biso   1.000  C
  H158     1.0000 0.36780  0.07520  0.41340  Biso   1.000  H
  H159     1.0000 0.42340  0.15190  0.65700  Biso   1.000  H
  C212     1.0000 0.34740  0.21200  0.74380  Biso   1.000  C
  H160     1.0000 0.24700  0.26800  0.82820  Biso   1.000  H
  H161     1.0000 0.10960  0.06930  0.73800  Biso   1.000  H
  C213     1.0000 0.22210  0.02140  0.68360  Biso   1.000  C
  H162     1.0000 0.33180  0.99610  0.61760  Biso   1.000  H
  H163     1.0000 0.45760  0.22370  0.43850  Biso   1.000  H
  C214     1.0000 0.39410  0.32290  0.45870  Biso   1.000  C
  H164     1.0000 0.31530  0.41540  0.49720  Biso   1.000  H
  H165     1.0000 0.06850  0.18940  0.88560  Biso   1.000  H
  C215     1.0000 0.98430  0.28300  0.91910  Biso   1.000  C
  H166     1.0000 0.91000  0.37830  0.92910  Biso   1.000  H
  H167     1.0000 0.34460  0.90040  0.63380  Biso   1.000  H
  C216     1.0000 0.24110  0.96320  0.71130  Biso   1.000  C
  H168     1.0000 0.14460  0.00120  0.79750  Biso   1.000  H
  H169     1.0000 0.06490  0.62840  0.77510  Biso   1.000  H
  C217     1.0000 0.16870  0.55200  0.71490  Biso   1.000  C
  H170     1.0000 0.27980  0.49170  0.65270  Biso   1.000  H
  H171     1.0000 0.24920  0.84390  0.54100  Biso   1.000  H
  C218     1.0000 0.31190  0.74790  0.50050  Biso   1.000  C
  H172     1.0000 0.37430  0.65010  0.47660  Biso   1.000  H
  H173     1.0000 0.51830  0.73530  0.66400  Biso   1.000  H
  C219     1.0000 0.54850  0.66910  0.59650  Biso   1.000  C
  H174     1.0000 0.56360  0.59410  0.54520  Biso   1.000  H
  H175     1.0000 0.91230  0.37010  0.02690  Biso   1.000  H
  C220     1.0000 0.95480  0.27810  0.98780  Biso   1.000  C
  H176     1.0000 0.98210  0.18450  0.97150  Biso   1.000  H
  C221     1.0000 0.29190  0.05140  0.38100  Biso   1.000  C
  C222     1.0000 0.39650  0.21730  0.75850  Biso   1.000  C
  C223     1.0000 0.15200  0.49980  0.72320  Biso   1.000  C
  C224     1.0000 0.31030  0.75790  0.43940  Biso   1.000  C
  C225     1.0000 0.35950  0.01140  0.32910  Biso   1.000  C
  C226     1.0000 0.23850  0.03230  0.40300  Biso   1.000  C
  C227     1.0000 0.37590  0.23800  0.82150  Biso   1.000  C
  C228     1.0000 0.46470  0.20500  0.70970  Biso   1.000  C
  C229     1.0000 0.08560  0.51010  0.73450  Biso   1.000  C
  C230     1.0000 0.20320  0.43840  0.71890  Biso   1.000  C
  C231     1.0000 0.36870  0.71600  0.38420  Biso   1.000  C
  C232     1.0000 0.25040  0.81020  0.43780  Biso   1.000  C
  C233     1.0000 0.37580  0.95580  0.30010  Biso   1.000  C
  H177     1.0000 0.39630  0.02300  0.31280  Biso   1.000  H
  H178     1.0000 0.18990  0.06020  0.43750  Biso   1.000  H
  C234     1.0000 0.25460  0.97660  0.37670  Biso   1.000  C
  C235     1.0000 0.42540  0.24070  0.83310  Biso   1.000  C
  H179     1.0000 0.32770  0.25020  0.85590  Biso   1.000  H
  H180     1.0000 0.47980  0.19050  0.66700  Biso   1.000  H
  C236     1.0000 0.51180  0.21320  0.72120  Biso   1.000  C
  C237     1.0000 0.07040  0.46040  0.74120  Biso   1.000  C
  H181     1.0000 0.04880  0.55260  0.73780  Biso   1.000  H
  H182     1.0000 0.24890  0.43010  0.71300  Biso   1.000  H
  C238     1.0000 0.19030  0.38760  0.72280  Biso   1.000  C
  C239     1.0000 0.36780  0.72940  0.32620  Biso   1.000  C
  H183     1.0000 0.40930  0.67860  0.38370  Biso   1.000  H
  H184     1.0000 0.20830  0.83950  0.47650  Biso   1.000  H
  C240     1.0000 0.25120  0.81980  0.38260  Biso   1.000  C
  N45      1.0000 0.32440  0.93730  0.32440  Biso   1.000  N
  H185     1.0000 0.42270  0.92970  0.26300  Biso   1.000  H
  H186     1.0000 0.21880  0.96380  0.39340  Biso   1.000  H
  N46      1.0000 0.49050  0.23090  0.78360  Biso   1.000  N
  H187     1.0000 0.41390  0.24940  0.87580  Biso   1.000  H
  H188     1.0000 0.55760  0.20670  0.68690  Biso   1.000  H
  N47      1.0000 0.12320  0.40030  0.73400  Biso   1.000  N
  H189     1.0000 0.02320  0.46910  0.75070  Biso   1.000  H
  H190     1.0000 0.22760  0.34470  0.71780  Biso   1.000  H
  N48      1.0000 0.31020  0.78060  0.32720  Biso   1.000  N
  H191     1.0000 0.40890  0.70120  0.28660  Biso   1.000  H
  H192     1.0000 0.20920  0.85510  0.38280  Biso   1.000  H
