data_BOCKOT_clean
_audit_creation_date              2014-07-02
_audit_creation_method            'Materials Studio'
_symmetry_space_group_name_H-M    'P1'
_symmetry_Int_Tables_number       1
_symmetry_cell_setting            triclinic
loop_
_symmetry_equiv_pos_as_xyz
  x,y,z
_cell_length_a                    10.5454
_cell_length_b                    17.5986
_cell_length_c                    19.9964
_cell_angle_alpha                 90.0000
_cell_angle_beta                  90.0000
_cell_angle_gamma                 91.2830
loop_
_atom_site_label
_atom_site_type_symbol
_atom_site_fract_x
_atom_site_fract_y
_atom_site_fract_z
_atom_site_U_iso_or_equiv
_atom_site_adp_type
_atom_site_occupancy
Tb1    Tb    0.32093   0.99996   0.26530   0.01267  Uiso   1.00
Tb2    Tb    0.25344   0.49220   0.01836   0.01267  Uiso   1.00
Tb3    Tb    0.17907   0.00004   0.76530   0.01267  Uiso   1.00
Tb4    Tb    0.24656   0.50780   0.51836   0.01267  Uiso   1.00
Tb5    Tb    0.67907   0.00004   0.73470   0.01267  Uiso   1.00
Tb6    Tb    0.74656   0.50780   0.98164   0.01267  Uiso   1.00
Tb7    Tb    0.82093   0.99996   0.23470   0.01267  Uiso   1.00
Tb8    Tb    0.75344   0.49220   0.48164   0.01267  Uiso   1.00
H1     H     0.36020   0.20140   0.17470   0.01267  Uiso   1.00
H2     H     0.34420   0.30100   0.10330   0.01267  Uiso   1.00
H3     H     0.71370   0.28340   0.05300   0.01267  Uiso   1.00
H4     H     0.72640   0.17770   0.12100   0.01267  Uiso   1.00
H5     H     0.21180   0.67030   0.10090   0.01267  Uiso   1.00
H6     H     0.24320   0.78680   0.15670   0.01267  Uiso   1.00
H7     H     0.86640   0.81440   0.17060   0.01267  Uiso   1.00
H8     H     0.83240   0.70400   0.10880   0.01267  Uiso   1.00
H9     H     0.13980   0.79860   0.67470   0.01267  Uiso   1.00
H10    H     0.15580   0.69900   0.60330   0.01267  Uiso   1.00
H11    H     0.78630   0.71660   0.55300   0.01267  Uiso   1.00
H12    H     0.77360   0.82230   0.62100   0.01267  Uiso   1.00
H13    H     0.28820   0.32970   0.60090   0.01267  Uiso   1.00
H14    H     0.25680   0.21320   0.65670   0.01267  Uiso   1.00
H15    H     0.63360   0.18560   0.67060   0.01267  Uiso   1.00
H16    H     0.66760   0.29600   0.60880   0.01267  Uiso   1.00
H17    H     0.63980   0.79860   0.82530   0.01267  Uiso   1.00
H18    H     0.65580   0.69900   0.89670   0.01267  Uiso   1.00
H19    H     0.28630   0.71660   0.94700   0.01267  Uiso   1.00
H20    H     0.27360   0.82230   0.87900   0.01267  Uiso   1.00
H21    H     0.78820   0.32970   0.89910   0.01267  Uiso   1.00
H22    H     0.75680   0.21320   0.84330   0.01267  Uiso   1.00
H23    H     0.13360   0.18560   0.82940   0.01267  Uiso   1.00
H24    H     0.16760   0.29600   0.89120   0.01267  Uiso   1.00
H25    H     0.86020   0.20140   0.32530   0.01267  Uiso   1.00
H26    H     0.84420   0.30100   0.39670   0.01267  Uiso   1.00
H27    H     0.21370   0.28340   0.44700   0.01267  Uiso   1.00
H28    H     0.22640   0.17770   0.37900   0.01267  Uiso   1.00
H29    H     0.71180   0.67030   0.39910   0.01267  Uiso   1.00
H30    H     0.74320   0.78680   0.34330   0.01267  Uiso   1.00
H31    H     0.36640   0.81440   0.32940   0.01267  Uiso   1.00
H32    H     0.33240   0.70400   0.39120   0.01267  Uiso   1.00
C1     C     0.55870   0.11460   0.20160   0.01267  Uiso   1.00
C2     C     0.54520   0.18010   0.15540   0.01267  Uiso   1.00
C3     C     0.43210   0.21800   0.14950   0.01267  Uiso   1.00
C4     C     0.42350   0.27710   0.10880   0.01267  Uiso   1.00
C5     C     0.53040   0.30530   0.07360   0.01267  Uiso   1.00
C6     C     0.64180   0.26670   0.07800   0.01267  Uiso   1.00
C7     C     0.64950   0.20450   0.11840   0.01267  Uiso   1.00
C8     C     0.51910   0.37680   0.03250   0.01267  Uiso   1.00
C9     C     0.99710   0.60580   0.05440   0.01267  Uiso   1.00
C10    C     0.01900   0.67790   0.09700   0.01267  Uiso   1.00
C11    C     0.14200   0.70030   0.11300   0.01267  Uiso   1.00
C12    C     0.15900   0.76880   0.14760   0.01267  Uiso   1.00
C13    C     0.06000   0.81020   0.16850   0.01267  Uiso   1.00
C14    C     0.93620   0.78600   0.15510   0.01267  Uiso   1.00
C15    C     0.91660   0.72060   0.11900   0.01267  Uiso   1.00
C16    C     0.08400   0.88700   0.20370   0.01267  Uiso   1.00
C17    C     0.94130   0.88540   0.70160   0.01267  Uiso   1.00
C18    C     0.95480   0.81990   0.65540   0.01267  Uiso   1.00
C19    C     0.06790   0.78200   0.64950   0.01267  Uiso   1.00
C20    C     0.07650   0.72290   0.60880   0.01267  Uiso   1.00
C21    C     0.96960   0.69470   0.57360   0.01267  Uiso   1.00
C22    C     0.85820   0.73330   0.57800   0.01267  Uiso   1.00
C23    C     0.85050   0.79550   0.61840   0.01267  Uiso   1.00
C24    C     0.98090   0.62320   0.53250   0.01267  Uiso   1.00
C25    C     0.50290   0.39420   0.55440   0.01267  Uiso   1.00
C26    C     0.48100   0.32210   0.59700   0.01267  Uiso   1.00
C27    C     0.35800   0.29970   0.61300   0.01267  Uiso   1.00
C28    C     0.34100   0.23120   0.64760   0.01267  Uiso   1.00
C29    C     0.44000   0.18980   0.66850   0.01267  Uiso   1.00
C30    C     0.56380   0.21400   0.65510   0.01267  Uiso   1.00
C31    C     0.58340   0.27940   0.61900   0.01267  Uiso   1.00
C32    C     0.41600   0.11300   0.70370   0.01267  Uiso   1.00
C33    C     0.44130   0.88540   0.79840   0.01267  Uiso   1.00
C34    C     0.45480   0.81990   0.84460   0.01267  Uiso   1.00
C35    C     0.56790   0.78200   0.85050   0.01267  Uiso   1.00
C36    C     0.57650   0.72290   0.89120   0.01267  Uiso   1.00
C37    C     0.46960   0.69470   0.92640   0.01267  Uiso   1.00
C38    C     0.35820   0.73330   0.92200   0.01267  Uiso   1.00
C39    C     0.35050   0.79550   0.88160   0.01267  Uiso   1.00
C40    C     0.48090   0.62320   0.96750   0.01267  Uiso   1.00
C41    C     0.00290   0.39420   0.94560   0.01267  Uiso   1.00
C42    C     0.98100   0.32210   0.90300   0.01267  Uiso   1.00
C43    C     0.85800   0.29970   0.88700   0.01267  Uiso   1.00
C44    C     0.84100   0.23120   0.85240   0.01267  Uiso   1.00
C45    C     0.94000   0.18980   0.83150   0.01267  Uiso   1.00
C46    C     0.06380   0.21400   0.84490   0.01267  Uiso   1.00
C47    C     0.08340   0.27940   0.88100   0.01267  Uiso   1.00
C48    C     0.91600   0.11300   0.79630   0.01267  Uiso   1.00
C49    C     0.05870   0.11460   0.29840   0.01267  Uiso   1.00
C50    C     0.04520   0.18010   0.34460   0.01267  Uiso   1.00
C51    C     0.93210   0.21800   0.35050   0.01267  Uiso   1.00
C52    C     0.92350   0.27710   0.39120   0.01267  Uiso   1.00
C53    C     0.03040   0.30530   0.42640   0.01267  Uiso   1.00
C54    C     0.14180   0.26670   0.42200   0.01267  Uiso   1.00
C55    C     0.14950   0.20450   0.38160   0.01267  Uiso   1.00
C56    C     0.01910   0.37680   0.46750   0.01267  Uiso   1.00
C57    C     0.49710   0.60580   0.44560   0.01267  Uiso   1.00
C58    C     0.51900   0.67790   0.40300   0.01267  Uiso   1.00
C59    C     0.64200   0.70030   0.38700   0.01267  Uiso   1.00
C60    C     0.65900   0.76880   0.35240   0.01267  Uiso   1.00
C61    C     0.56000   0.81020   0.33150   0.01267  Uiso   1.00
C62    C     0.43620   0.78600   0.34490   0.01267  Uiso   1.00
C63    C     0.41660   0.72060   0.38100   0.01267  Uiso   1.00
C64    C     0.58400   0.88700   0.29630   0.01267  Uiso   1.00
N1     N     0.31000   0.02310   0.12180   0.01267  Uiso   1.00
N2     N     0.26100   0.52280   0.87760   0.01267  Uiso   1.00
N3     N     0.19000   0.97690   0.62180   0.01267  Uiso   1.00
N4     N     0.23900   0.47720   0.37760   0.01267  Uiso   1.00
N5     N     0.69000   0.97690   0.87820   0.01267  Uiso   1.00
N6     N     0.73900   0.47720   0.12240   0.01267  Uiso   1.00
N7     N     0.81000   0.02310   0.37820   0.01267  Uiso   1.00
N8     N     0.76100   0.52280   0.62240   0.01267  Uiso   1.00
O1     O     0.39400   0.98480   0.14580   0.01267  Uiso   1.00
O2     O     0.24110   0.05930   0.16260   0.01267  Uiso   1.00
O3     O     0.29530   0.02980   0.06020   0.01267  Uiso   1.00
O4     O     0.46810   0.09800   0.24250   0.01267  Uiso   1.00
O5     O     0.66250   0.07800   0.20280   0.01267  Uiso   1.00
O6     O     0.41450   0.40940   0.02900   0.01267  Uiso   1.00
O7     O     0.61810   0.40050   0.00150   0.01267  Uiso   1.00
O8     O     0.33550   0.47810   0.90010   0.01267  Uiso   1.00
O9     O     0.17890   0.55230   0.91280   0.01267  Uiso   1.00
O10    O     0.26800   0.54270   0.81670   0.01267  Uiso   1.00
O11    O     0.88560   0.59560   0.03290   0.01267  Uiso   1.00
O12    O     0.08620   0.56290   0.04740   0.01267  Uiso   1.00
O13    O     0.98800   0.92040   0.22500   0.01267  Uiso   1.00
O14    O     0.19480   0.90850   0.21150   0.01267  Uiso   1.00
O15    O     0.10600   0.01520   0.64580   0.01267  Uiso   1.00
O16    O     0.25890   0.94070   0.66260   0.01267  Uiso   1.00
O17    O     0.20470   0.97020   0.56020   0.01267  Uiso   1.00
O18    O     0.03190   0.90200   0.74250   0.01267  Uiso   1.00
O19    O     0.83750   0.92200   0.70280   0.01267  Uiso   1.00
O20    O     0.08550   0.59060   0.52900   0.01267  Uiso   1.00
O21    O     0.88190   0.59950   0.50150   0.01267  Uiso   1.00
O22    O     0.16450   0.52190   0.40010   0.01267  Uiso   1.00
O23    O     0.32110   0.44770   0.41280   0.01267  Uiso   1.00
O24    O     0.23200   0.45730   0.31670   0.01267  Uiso   1.00
O25    O     0.61440   0.40440   0.53290   0.01267  Uiso   1.00
O26    O     0.41380   0.43710   0.54740   0.01267  Uiso   1.00
O27    O     0.51200   0.07960   0.72500   0.01267  Uiso   1.00
O28    O     0.30520   0.09150   0.71150   0.01267  Uiso   1.00
O29    O     0.60600   0.01520   0.85420   0.01267  Uiso   1.00
O30    O     0.75890   0.94070   0.83740   0.01267  Uiso   1.00
O31    O     0.70470   0.97020   0.93980   0.01267  Uiso   1.00
O32    O     0.53190   0.90200   0.75750   0.01267  Uiso   1.00
O33    O     0.33750   0.92200   0.79720   0.01267  Uiso   1.00
O34    O     0.58550   0.59060   0.97100   0.01267  Uiso   1.00
O35    O     0.38190   0.59950   0.99850   0.01267  Uiso   1.00
O36    O     0.66450   0.52190   0.09990   0.01267  Uiso   1.00
O37    O     0.82110   0.44770   0.08720   0.01267  Uiso   1.00
O38    O     0.73200   0.45730   0.18330   0.01267  Uiso   1.00
O39    O     0.11440   0.40440   0.96710   0.01267  Uiso   1.00
O40    O     0.91380   0.43710   0.95260   0.01267  Uiso   1.00
O41    O     0.01200   0.07960   0.77500   0.01267  Uiso   1.00
O42    O     0.80520   0.09150   0.78850   0.01267  Uiso   1.00
O43    O     0.89400   0.98480   0.35420   0.01267  Uiso   1.00
O44    O     0.74110   0.05930   0.33740   0.01267  Uiso   1.00
O45    O     0.79530   0.02980   0.43980   0.01267  Uiso   1.00
O46    O     0.96810   0.09800   0.25750   0.01267  Uiso   1.00
O47    O     0.16250   0.07800   0.29720   0.01267  Uiso   1.00
O48    O     0.91450   0.40940   0.47100   0.01267  Uiso   1.00
O49    O     0.11810   0.40050   0.49850   0.01267  Uiso   1.00
O50    O     0.83550   0.47810   0.59990   0.01267  Uiso   1.00
O51    O     0.67890   0.55230   0.58720   0.01267  Uiso   1.00
O52    O     0.76800   0.54270   0.68330   0.01267  Uiso   1.00
O53    O     0.38560   0.59560   0.46710   0.01267  Uiso   1.00
O54    O     0.58620   0.56290   0.45260   0.01267  Uiso   1.00
O55    O     0.48800   0.92040   0.27500   0.01267  Uiso   1.00
O56    O     0.69480   0.90850   0.28850   0.01267  Uiso   1.00
