data_image0
_cell_length_a       12.1491
_cell_length_b       12.284
_cell_length_c       12.216
_cell_angle_alpha    90
_cell_angle_beta     90
_cell_angle_gamma    90

_symmetry_space_group_name_H-M    "P 1"
_symmetry_int_tables_number       1

loop_
  _symmetry_equiv_pos_as_xyz
  'x, y, z'

loop_
  _atom_site_label
  _atom_site_occupancy
  _atom_site_fract_x
  _atom_site_fract_y
  _atom_site_fract_z
  _atom_site_thermal_displace_type
  _atom_site_B_iso_or_equiv
  _atom_site_type_symbol
  N1       1.0000 0.31850  0.31750  0.18600  Biso   1.000  N
  N2       1.0000 0.81850  0.81750  0.18600  Biso   1.000  N
  N3       1.0000 0.68150  0.18250  0.68600  Biso   1.000  N
  N4       1.0000 0.18150  0.68250  0.68600  Biso   1.000  N
  N5       1.0000 0.68150  0.81750  0.31400  Biso   1.000  N
  N6       1.0000 0.18150  0.31750  0.31400  Biso   1.000  N
  N7       1.0000 0.31850  0.68250  0.81400  Biso   1.000  N
  N8       1.0000 0.81850  0.18250  0.81400  Biso   1.000  N
  N9       1.0000 0.68150  0.68250  0.81400  Biso   1.000  N
  N10      1.0000 0.18150  0.18250  0.81400  Biso   1.000  N
  N11      1.0000 0.31850  0.81750  0.31400  Biso   1.000  N
  N12      1.0000 0.81850  0.31750  0.31400  Biso   1.000  N
  N13      1.0000 0.31850  0.18250  0.68600  Biso   1.000  N
  N14      1.0000 0.81850  0.68250  0.68600  Biso   1.000  N
  N15      1.0000 0.68150  0.31750  0.18600  Biso   1.000  N
  N16      1.0000 0.18150  0.81750  0.18600  Biso   1.000  N
  Mn1      1.0000 0.50000  0.30794  0.19456  Biso   1.000  Mn
  N17      1.0000 0.50000  0.32910  0.37520  Biso   1.000  N
  N18      1.0000 0.50000  0.26540  0.44550  Biso   1.000  N
  N19      1.0000 0.50000  0.20100  0.51470  Biso   1.000  N
  N20      1.0000 0.50000  0.48670  0.17010  Biso   1.000  N
  N21      1.0000 0.50000  0.55930  0.23020  Biso   1.000  N
  N22      1.0000 0.50000  0.63090  0.28950  Biso   1.000  N
  Mn2      1.0000 0.00000  0.80794  0.19456  Biso   1.000  Mn
  N23      1.0000 0.00000  0.82910  0.37520  Biso   1.000  N
  N24      1.0000 0.00000  0.76540  0.44550  Biso   1.000  N
  N25      1.0000 0.00000  0.70100  0.51470  Biso   1.000  N
  N26      1.0000 0.00000  0.98670  0.17010  Biso   1.000  N
  N27      1.0000 0.00000  0.05930  0.23020  Biso   1.000  N
  N28      1.0000 0.00000  0.13090  0.28950  Biso   1.000  N
  Mn3      1.0000 0.50000  0.19206  0.69456  Biso   1.000  Mn
  N29      1.0000 0.50000  0.17090  0.87520  Biso   1.000  N
  N30      1.0000 0.50000  0.23460  0.94550  Biso   1.000  N
  N31      1.0000 0.50000  0.29900  0.01470  Biso   1.000  N
  N32      1.0000 0.50000  0.01330  0.67010  Biso   1.000  N
  N33      1.0000 0.50000  0.94070  0.73020  Biso   1.000  N
  N34      1.0000 0.50000  0.86910  0.78950  Biso   1.000  N
  Mn4      1.0000 0.00000  0.69206  0.69456  Biso   1.000  Mn
  N35      1.0000 0.00000  0.67090  0.87520  Biso   1.000  N
  N36      1.0000 0.00000  0.73460  0.94550  Biso   1.000  N
  N37      1.0000 0.00000  0.79900  0.01470  Biso   1.000  N
  N38      1.0000 0.00000  0.51330  0.67010  Biso   1.000  N
  N39      1.0000 0.00000  0.44070  0.73020  Biso   1.000  N
  N40      1.0000 0.00000  0.36910  0.78950  Biso   1.000  N
  Mn5      1.0000 0.50000  0.80794  0.30544  Biso   1.000  Mn
  N41      1.0000 0.50000  0.82910  0.12480  Biso   1.000  N
  N42      1.0000 0.50000  0.76540  0.05450  Biso   1.000  N
  N43      1.0000 0.50000  0.70100  0.98530  Biso   1.000  N
  N44      1.0000 0.50000  0.98670  0.32990  Biso   1.000  N
  N45      1.0000 0.50000  0.05930  0.26980  Biso   1.000  N
  N46      1.0000 0.50000  0.13090  0.21050  Biso   1.000  N
  Mn6      1.0000 0.00000  0.30794  0.30544  Biso   1.000  Mn
  N47      1.0000 0.00000  0.32910  0.12480  Biso   1.000  N
  N48      1.0000 0.00000  0.26540  0.05450  Biso   1.000  N
  N49      1.0000 0.00000  0.20100  0.98530  Biso   1.000  N
  N50      1.0000 0.00000  0.48670  0.32990  Biso   1.000  N
  N51      1.0000 0.00000  0.55930  0.26980  Biso   1.000  N
  N52      1.0000 0.00000  0.63090  0.21050  Biso   1.000  N
  Mn7      1.0000 0.50000  0.69206  0.80544  Biso   1.000  Mn
  N53      1.0000 0.50000  0.67090  0.62480  Biso   1.000  N
  N54      1.0000 0.50000  0.73460  0.55450  Biso   1.000  N
  N55      1.0000 0.50000  0.79900  0.48530  Biso   1.000  N
  N56      1.0000 0.50000  0.51330  0.82990  Biso   1.000  N
  N57      1.0000 0.50000  0.44070  0.76980  Biso   1.000  N
  N58      1.0000 0.50000  0.36910  0.71050  Biso   1.000  N
  Mn8      1.0000 0.00000  0.19206  0.80544  Biso   1.000  Mn
  N59      1.0000 0.00000  0.17090  0.62480  Biso   1.000  N
  N60      1.0000 0.00000  0.23460  0.55450  Biso   1.000  N
  N61      1.0000 0.00000  0.29900  0.48530  Biso   1.000  N
  N62      1.0000 0.00000  0.01330  0.82990  Biso   1.000  N
  N63      1.0000 0.00000  0.94070  0.76980  Biso   1.000  N
  N64      1.0000 0.00000  0.86910  0.71050  Biso   1.000  N
  N65      1.0000 0.25000  0.31650  0.25000  Biso   1.000  N
  N66      1.0000 0.75000  0.18350  0.75000  Biso   1.000  N
  N67      1.0000 0.75000  0.81650  0.25000  Biso   1.000  N
  N68      1.0000 0.25000  0.68350  0.75000  Biso   1.000  N
  N69      1.0000 0.75000  0.68350  0.75000  Biso   1.000  N
  N70      1.0000 0.25000  0.81650  0.25000  Biso   1.000  N
  N71      1.0000 0.25000  0.18350  0.75000  Biso   1.000  N
  N72      1.0000 0.75000  0.31650  0.25000  Biso   1.000  N
