data_image0
_cell_length_a       8.4529
_cell_length_b       9.3581
_cell_length_c       12.884
_cell_angle_alpha    90
_cell_angle_beta     105.265
_cell_angle_gamma    90

_symmetry_space_group_name_H-M    "P 1"
_symmetry_int_tables_number       1

loop_
  _symmetry_equiv_pos_as_xyz
  'x, y, z'

loop_
  _atom_site_label
  _atom_site_occupancy
  _atom_site_fract_x
  _atom_site_fract_y
  _atom_site_fract_z
  _atom_site_thermal_displace_type
  _atom_site_B_iso_or_equiv
  _atom_site_type_symbol
  N1       1.0000 0.71860  0.12920  0.99750  Biso   1.000  N
  N2       1.0000 0.55100  0.04830  0.17521  Biso   1.000  N
  N3       1.0000 0.33780  0.19060  0.95940  Biso   1.000  N
  N4       1.0000 0.21860  0.62920  0.99750  Biso   1.000  N
  N5       1.0000 0.05100  0.54830  0.17521  Biso   1.000  N
  N6       1.0000 0.83780  0.69060  0.95940  Biso   1.000  N
  N7       1.0000 0.28140  0.12920  0.50250  Biso   1.000  N
  N8       1.0000 0.44900  0.04830  0.32479  Biso   1.000  N
  N9       1.0000 0.66220  0.19060  0.54060  Biso   1.000  N
  N10      1.0000 0.78140  0.62920  0.50250  Biso   1.000  N
  N11      1.0000 0.94900  0.54830  0.32479  Biso   1.000  N
  N12      1.0000 0.16220  0.69060  0.54060  Biso   1.000  N
  N13      1.0000 0.28140  0.87080  0.00250  Biso   1.000  N
  N14      1.0000 0.44900  0.95170  0.82479  Biso   1.000  N
  N15      1.0000 0.66220  0.80940  0.04060  Biso   1.000  N
  N16      1.0000 0.78140  0.37080  0.00250  Biso   1.000  N
  N17      1.0000 0.94900  0.45170  0.82479  Biso   1.000  N
  N18      1.0000 0.16220  0.30940  0.04060  Biso   1.000  N
  N19      1.0000 0.71860  0.87080  0.49750  Biso   1.000  N
  N20      1.0000 0.55100  0.95170  0.67521  Biso   1.000  N
  N21      1.0000 0.33780  0.80940  0.45940  Biso   1.000  N
  N22      1.0000 0.21860  0.37080  0.49750  Biso   1.000  N
  N23      1.0000 0.05100  0.45170  0.67521  Biso   1.000  N
  N24      1.0000 0.83780  0.30940  0.45940  Biso   1.000  N
  Mn1      1.0000 0.50000  0.00000  0.00000  Biso   1.000  Mn
  Mn2      1.0000 0.00000  0.50000  0.00000  Biso   1.000  Mn
  Mn3      1.0000 0.50000  0.00000  0.50000  Biso   1.000  Mn
  Mn4      1.0000 0.00000  0.50000  0.50000  Biso   1.000  Mn
  N25      1.0000 0.50000  0.04550  0.25000  Biso   1.000  N
  N26      1.0000 0.00000  0.54550  0.25000  Biso   1.000  N
  N27      1.0000 0.50000  0.95450  0.75000  Biso   1.000  N
  N28      1.0000 0.00000  0.45450  0.75000  Biso   1.000  N
  N29      1.0000 0.75000  0.25000  0.00000  Biso   1.000  N
  N30      1.0000 0.25000  0.25000  0.50000  Biso   1.000  N
  N31      1.0000 0.25000  0.75000  0.00000  Biso   1.000  N
  N32      1.0000 0.75000  0.75000  0.50000  Biso   1.000  N
  N33      1.0000 0.25000  0.25000  0.00000  Biso   1.000  N
  N34      1.0000 0.75000  0.25000  0.50000  Biso   1.000  N
  N35      1.0000 0.75000  0.75000  0.00000  Biso   1.000  N
  N36      1.0000 0.25000  0.75000  0.50000  Biso   1.000  N
