data_image0
_cell_length_a       8.4136
_cell_length_b       9.2474
_cell_length_c       12.8074
_cell_angle_alpha    90
_cell_angle_beta     105.969
_cell_angle_gamma    90

_symmetry_space_group_name_H-M    "P 1"
_symmetry_int_tables_number       1

loop_
  _symmetry_equiv_pos_as_xyz
  'x, y, z'

loop_
  _atom_site_label
  _atom_site_occupancy
  _atom_site_fract_x
  _atom_site_fract_y
  _atom_site_fract_z
  _atom_site_thermal_displace_type
  _atom_site_B_iso_or_equiv
  _atom_site_type_symbol
  Mn1      1.0000 0.25696  0.74836  0.01037  Biso   1.000  Mn
  N1       1.0000 0.32612  0.79887  0.18829  Biso   1.000  N
  N2       1.0000 0.26914  0.80173  0.26201  Biso   1.000  N
  N3       1.0000 0.21230  0.80815  0.33564  Biso   1.000  N
  N4       1.0000 0.04194  0.62059  0.01788  Biso   1.000  N
  N5       1.0000 0.10713  0.94709  0.97102  Biso   1.000  N
  N6       1.0000 0.48179  0.87458  0.00632  Biso   1.000  N
  N7       1.0000 0.42867  0.55836  0.05509  Biso   1.000  N
  Mn2      1.0000 0.74304  0.24836  0.48963  Biso   1.000  Mn
  N8       1.0000 0.67388  0.29887  0.31171  Biso   1.000  N
  N9       1.0000 0.73086  0.30173  0.23799  Biso   1.000  N
  N10      1.0000 0.78770  0.30815  0.16436  Biso   1.000  N
  N11      1.0000 0.95806  0.12059  0.48212  Biso   1.000  N
  N12      1.0000 0.89287  0.44709  0.52898  Biso   1.000  N
  N13      1.0000 0.51821  0.37458  0.49368  Biso   1.000  N
  N14      1.0000 0.57133  0.05836  0.44491  Biso   1.000  N
  Mn3      1.0000 0.74304  0.25164  0.98963  Biso   1.000  Mn
  N15      1.0000 0.67388  0.20113  0.81171  Biso   1.000  N
  N16      1.0000 0.73086  0.19827  0.73799  Biso   1.000  N
  N17      1.0000 0.78770  0.19185  0.66436  Biso   1.000  N
  N18      1.0000 0.95806  0.37941  0.98212  Biso   1.000  N
  N19      1.0000 0.89287  0.05291  0.02898  Biso   1.000  N
  N20      1.0000 0.51821  0.12542  0.99368  Biso   1.000  N
  N21      1.0000 0.57133  0.44164  0.94491  Biso   1.000  N
  Mn4      1.0000 0.25696  0.75164  0.51037  Biso   1.000  Mn
  N22      1.0000 0.32612  0.70113  0.68829  Biso   1.000  N
  N23      1.0000 0.26914  0.69827  0.76201  Biso   1.000  N
  N24      1.0000 0.21230  0.69185  0.83564  Biso   1.000  N
  N25      1.0000 0.04194  0.87941  0.51788  Biso   1.000  N
  N26      1.0000 0.10713  0.55291  0.47102  Biso   1.000  N
  N27      1.0000 0.48179  0.62542  0.50632  Biso   1.000  N
  N28      1.0000 0.42867  0.94164  0.55509  Biso   1.000  N
  N29      1.0000 0.00000  0.50000  0.00000  Biso   1.000  N
  N30      1.0000 0.00000  0.00000  0.50000  Biso   1.000  N
  N31      1.0000 0.00000  0.00000  0.00000  Biso   1.000  N
  N32      1.0000 0.00000  0.50000  0.50000  Biso   1.000  N
  N33      1.0000 0.50000  0.00000  0.00000  Biso   1.000  N
  N34      1.0000 0.50000  0.50000  0.50000  Biso   1.000  N
  N35      1.0000 0.50000  0.50000  0.00000  Biso   1.000  N
  N36      1.0000 0.50000  0.00000  0.50000  Biso   1.000  N
