data_image0
_cell_length_a       8.502
_cell_length_b       9.431
_cell_length_c       12.93
_cell_angle_alpha    90
_cell_angle_beta     104.77
_cell_angle_gamma    90

_symmetry_space_group_name_H-M    "P 1"
_symmetry_int_tables_number       1

loop_
  _symmetry_equiv_pos_as_xyz
  'x, y, z'

loop_
  _atom_site_label
  _atom_site_occupancy
  _atom_site_fract_x
  _atom_site_fract_y
  _atom_site_fract_z
  _atom_site_thermal_displace_type
  _atom_site_B_iso_or_equiv
  _atom_site_type_symbol
  N1       1.0000 0.71850  0.12950  0.99810  Biso   1.000  N
  N2       1.0000 0.55040  0.04630  0.17500  Biso   1.000  N
  N3       1.0000 0.33730  0.18980  0.95970  Biso   1.000  N
  N4       1.0000 0.21850  0.62950  0.99810  Biso   1.000  N
  N5       1.0000 0.05040  0.54630  0.17500  Biso   1.000  N
  N6       1.0000 0.83730  0.68980  0.95970  Biso   1.000  N
  N7       1.0000 0.28150  0.12950  0.50190  Biso   1.000  N
  N8       1.0000 0.44960  0.04630  0.32500  Biso   1.000  N
  N9       1.0000 0.66270  0.18980  0.54030  Biso   1.000  N
  N10      1.0000 0.78150  0.62950  0.50190  Biso   1.000  N
  N11      1.0000 0.94960  0.54630  0.32500  Biso   1.000  N
  N12      1.0000 0.16270  0.68980  0.54030  Biso   1.000  N
  N13      1.0000 0.28150  0.87050  0.00190  Biso   1.000  N
  N14      1.0000 0.44960  0.95370  0.82500  Biso   1.000  N
  N15      1.0000 0.66270  0.81020  0.04030  Biso   1.000  N
  N16      1.0000 0.78150  0.37050  0.00190  Biso   1.000  N
  N17      1.0000 0.94960  0.45370  0.82500  Biso   1.000  N
  N18      1.0000 0.16270  0.31020  0.04030  Biso   1.000  N
  N19      1.0000 0.71850  0.87050  0.49810  Biso   1.000  N
  N20      1.0000 0.55040  0.95370  0.67500  Biso   1.000  N
  N21      1.0000 0.33730  0.81020  0.45970  Biso   1.000  N
  N22      1.0000 0.21850  0.37050  0.49810  Biso   1.000  N
  N23      1.0000 0.05040  0.45370  0.67500  Biso   1.000  N
  N24      1.0000 0.83730  0.31020  0.45970  Biso   1.000  N
  Mn1      1.0000 0.50000  0.00000  0.00000  Biso   1.000  Mn
  Mn2      1.0000 0.00000  0.50000  0.00000  Biso   1.000  Mn
  Mn3      1.0000 0.50000  0.00000  0.50000  Biso   1.000  Mn
  Mn4      1.0000 0.00000  0.50000  0.50000  Biso   1.000  Mn
  N25      1.0000 0.50000  0.04360  0.25000  Biso   1.000  N
  N26      1.0000 0.00000  0.54360  0.25000  Biso   1.000  N
  N27      1.0000 0.50000  0.95640  0.75000  Biso   1.000  N
  N28      1.0000 0.00000  0.45640  0.75000  Biso   1.000  N
  N29      1.0000 0.75000  0.25000  0.00000  Biso   1.000  N
  N30      1.0000 0.25000  0.25000  0.50000  Biso   1.000  N
  N31      1.0000 0.25000  0.75000  0.00000  Biso   1.000  N
  N32      1.0000 0.75000  0.75000  0.50000  Biso   1.000  N
  N33      1.0000 0.25000  0.25000  0.00000  Biso   1.000  N
  N34      1.0000 0.75000  0.25000  0.50000  Biso   1.000  N
  N35      1.0000 0.75000  0.75000  0.00000  Biso   1.000  N
  N36      1.0000 0.25000  0.75000  0.50000  Biso   1.000  N
