data_image0
_cell_length_a       8.464
_cell_length_b       9.324
_cell_length_c       12.882
_cell_angle_alpha    90
_cell_angle_beta     105.466
_cell_angle_gamma    90

_symmetry_space_group_name_H-M    "P 1"
_symmetry_int_tables_number       1

loop_
  _symmetry_equiv_pos_as_xyz
  'x, y, z'

loop_
  _atom_site_label
  _atom_site_occupancy
  _atom_site_fract_x
  _atom_site_fract_y
  _atom_site_fract_z
  _atom_site_thermal_displace_type
  _atom_site_B_iso_or_equiv
  _atom_site_type_symbol
  Mn1      1.0000 0.25567  0.74878  0.00907  Biso   1.000  Mn
  N1       1.0000 0.31920  0.79650  0.18576  Biso   1.000  N
  N2       1.0000 0.26524  0.79781  0.26021  Biso   1.000  N
  N3       1.0000 0.21220  0.80390  0.33465  Biso   1.000  N
  N4       1.0000 0.04180  0.61941  0.01519  Biso   1.000  N
  N5       1.0000 0.10370  0.94455  0.97035  Biso   1.000  N
  N6       1.0000 0.47881  0.87657  0.00673  Biso   1.000  N
  N7       1.0000 0.42630  0.56029  0.05178  Biso   1.000  N
  Mn2      1.0000 0.74433  0.24878  0.49093  Biso   1.000  Mn
  N8       1.0000 0.68080  0.29650  0.31424  Biso   1.000  N
  N9       1.0000 0.73476  0.29781  0.23979  Biso   1.000  N
  N10      1.0000 0.78780  0.30390  0.16535  Biso   1.000  N
  N11      1.0000 0.95820  0.11941  0.48481  Biso   1.000  N
  N12      1.0000 0.89630  0.44455  0.52965  Biso   1.000  N
  N13      1.0000 0.52119  0.37657  0.49327  Biso   1.000  N
  N14      1.0000 0.57370  0.06029  0.44822  Biso   1.000  N
  Mn3      1.0000 0.74433  0.25122  0.99093  Biso   1.000  Mn
  N15      1.0000 0.68080  0.20350  0.81424  Biso   1.000  N
  N16      1.0000 0.73476  0.20219  0.73979  Biso   1.000  N
  N17      1.0000 0.78780  0.19610  0.66535  Biso   1.000  N
  N18      1.0000 0.95820  0.38059  0.98481  Biso   1.000  N
  N19      1.0000 0.89630  0.05545  0.02965  Biso   1.000  N
  N20      1.0000 0.52119  0.12343  0.99327  Biso   1.000  N
  N21      1.0000 0.57370  0.43971  0.94822  Biso   1.000  N
  Mn4      1.0000 0.25567  0.75122  0.50907  Biso   1.000  Mn
  N22      1.0000 0.31920  0.70350  0.68576  Biso   1.000  N
  N23      1.0000 0.26524  0.70219  0.76021  Biso   1.000  N
  N24      1.0000 0.21220  0.69610  0.83465  Biso   1.000  N
  N25      1.0000 0.04180  0.88059  0.51519  Biso   1.000  N
  N26      1.0000 0.10370  0.55545  0.47035  Biso   1.000  N
  N27      1.0000 0.47881  0.62343  0.50673  Biso   1.000  N
  N28      1.0000 0.42630  0.93971  0.55178  Biso   1.000  N
  N29      1.0000 0.00000  0.50000  0.00000  Biso   1.000  N
  N30      1.0000 0.00000  0.00000  0.50000  Biso   1.000  N
  N31      1.0000 0.00000  0.00000  0.00000  Biso   1.000  N
  N32      1.0000 0.00000  0.50000  0.50000  Biso   1.000  N
  N33      1.0000 0.50000  0.00000  0.00000  Biso   1.000  N
  N34      1.0000 0.50000  0.50000  0.50000  Biso   1.000  N
  N35      1.0000 0.50000  0.50000  0.00000  Biso   1.000  N
  N36      1.0000 0.50000  0.00000  0.50000  Biso   1.000  N
