data_image0
_cell_length_a       8.4258
_cell_length_b       9.271
_cell_length_c       12.824
_cell_angle_alpha    90
_cell_angle_beta     105.76
_cell_angle_gamma    90

_symmetry_space_group_name_H-M    "P 1"
_symmetry_int_tables_number       1

loop_
  _symmetry_equiv_pos_as_xyz
  'x, y, z'

loop_
  _atom_site_label
  _atom_site_occupancy
  _atom_site_fract_x
  _atom_site_fract_y
  _atom_site_fract_z
  _atom_site_thermal_displace_type
  _atom_site_B_iso_or_equiv
  _atom_site_type_symbol
  Mn1      1.0000 0.25702  0.74841  0.01078  Biso   1.000  Mn
  N1       1.0000 0.32562  0.79743  0.18860  Biso   1.000  N
  N2       1.0000 0.26937  0.80010  0.26239  Biso   1.000  N
  N3       1.0000 0.21348  0.80678  0.33612  Biso   1.000  N
  N4       1.0000 0.04300  0.61974  0.01824  Biso   1.000  N
  N5       1.0000 0.10732  0.94643  0.97211  Biso   1.000  N
  N6       1.0000 0.48162  0.87531  0.00742  Biso   1.000  N
  N7       1.0000 0.42938  0.55915  0.05486  Biso   1.000  N
  Mn2      1.0000 0.74298  0.24841  0.48922  Biso   1.000  Mn
  N8       1.0000 0.67438  0.29743  0.31140  Biso   1.000  N
  N9       1.0000 0.73063  0.30010  0.23761  Biso   1.000  N
  N10      1.0000 0.78652  0.30678  0.16388  Biso   1.000  N
  N11      1.0000 0.95700  0.11974  0.48176  Biso   1.000  N
  N12      1.0000 0.89268  0.44643  0.52789  Biso   1.000  N
  N13      1.0000 0.51838  0.37531  0.49258  Biso   1.000  N
  N14      1.0000 0.57062  0.05915  0.44514  Biso   1.000  N
  Mn3      1.0000 0.74298  0.25159  0.98922  Biso   1.000  Mn
  N15      1.0000 0.67438  0.20257  0.81140  Biso   1.000  N
  N16      1.0000 0.73063  0.19990  0.73761  Biso   1.000  N
  N17      1.0000 0.78652  0.19322  0.66388  Biso   1.000  N
  N18      1.0000 0.95700  0.38026  0.98176  Biso   1.000  N
  N19      1.0000 0.89268  0.05357  0.02789  Biso   1.000  N
  N20      1.0000 0.51838  0.12469  0.99258  Biso   1.000  N
  N21      1.0000 0.57062  0.44085  0.94514  Biso   1.000  N
  Mn4      1.0000 0.25702  0.75159  0.51078  Biso   1.000  Mn
  N22      1.0000 0.32562  0.70257  0.68860  Biso   1.000  N
  N23      1.0000 0.26937  0.69990  0.76239  Biso   1.000  N
  N24      1.0000 0.21348  0.69322  0.83612  Biso   1.000  N
  N25      1.0000 0.04300  0.88026  0.51824  Biso   1.000  N
  N26      1.0000 0.10732  0.55357  0.47211  Biso   1.000  N
  N27      1.0000 0.48162  0.62469  0.50742  Biso   1.000  N
  N28      1.0000 0.42938  0.94085  0.55486  Biso   1.000  N
  N29      1.0000 0.00000  0.50000  0.00000  Biso   1.000  N
  N30      1.0000 0.00000  0.00000  0.50000  Biso   1.000  N
  N31      1.0000 0.00000  0.00000  0.00000  Biso   1.000  N
  N32      1.0000 0.00000  0.50000  0.50000  Biso   1.000  N
  N33      1.0000 0.50000  0.00000  0.00000  Biso   1.000  N
  N34      1.0000 0.50000  0.50000  0.50000  Biso   1.000  N
  N35      1.0000 0.50000  0.50000  0.00000  Biso   1.000  N
  N36      1.0000 0.50000  0.00000  0.50000  Biso   1.000  N
