data_BOHGOU_clean
_audit_creation_date              2014-07-02
_audit_creation_method            'Materials Studio'
_symmetry_space_group_name_H-M    'P1'
_symmetry_Int_Tables_number       1
_symmetry_cell_setting            triclinic
loop_
_symmetry_equiv_pos_as_xyz
  x,y,z
_cell_length_a                    7.7310
_cell_length_b                    7.8455
_cell_length_c                    7.8455
_cell_angle_alpha                 116.4730
_cell_angle_beta                  103.0250
_cell_angle_gamma                 103.0250
loop_
_atom_site_label
_atom_site_type_symbol
_atom_site_fract_x
_atom_site_fract_y
_atom_site_fract_z
_atom_site_U_iso_or_equiv
_atom_site_adp_type
_atom_site_occupancy
Mn1    Mn    0.75000   0.14331   0.85669   0.01267  Uiso   1.00
Mn2    Mn    0.25000   0.85669   0.14331   0.01267  Uiso   1.00
H1     H     0.94700   0.31300   0.50100   0.01267  Uiso   1.00
H2     H     0.02500   0.61300   0.52300   0.01267  Uiso   1.00
H3     H     0.44700   0.50100   0.31300   0.01267  Uiso   1.00
H4     H     0.52500   0.52300   0.61300   0.01267  Uiso   1.00
C1     C     0.98120   0.11860   0.22680   0.01267  Uiso   1.00
C2     C     0.98300   0.31580   0.38800   0.01267  Uiso   1.00
C3     C     0.02760   0.49580   0.39920   0.01267  Uiso   1.00
C4     C     0.08030   0.53990   0.24630   0.01267  Uiso   1.00
C5     C     0.48120   0.22680   0.11860   0.01267  Uiso   1.00
C6     C     0.48300   0.38800   0.31580   0.01267  Uiso   1.00
C7     C     0.52760   0.39920   0.49580   0.01267  Uiso   1.00
C8     C     0.58030   0.24630   0.53990   0.01267  Uiso   1.00
O1     O     0.09140   0.04510   0.29190   0.01267  Uiso   1.00
O2     O     0.86810   0.02890   0.04470   0.01267  Uiso   1.00
O3     O     0.00900   0.41090   0.05970   0.01267  Uiso   1.00
O4     O     0.20080   0.71920   0.32240   0.01267  Uiso   1.00
O5     O     0.59140   0.29190   0.04510   0.01267  Uiso   1.00
O6     O     0.36810   0.04470   0.02890   0.01267  Uiso   1.00
O7     O     0.50900   0.05970   0.41090   0.01267  Uiso   1.00
O8     O     0.70080   0.32240   0.71920   0.01267  Uiso   1.00
