data_BOJCIN_clean
_audit_creation_date              2014-07-02
_audit_creation_method            'Materials Studio'
_symmetry_space_group_name_H-M    'P1'
_symmetry_Int_Tables_number       1
_symmetry_cell_setting            triclinic
loop_
_symmetry_equiv_pos_as_xyz
  x,y,z
_cell_length_a                    14.7031
_cell_length_b                    20.8379
_cell_length_c                    20.8379
_cell_angle_alpha                 82.8501
_cell_angle_beta                  69.3415
_cell_angle_gamma                 69.3416
loop_
_atom_site_label
_atom_site_type_symbol
_atom_site_fract_x
_atom_site_fract_y
_atom_site_fract_z
_atom_site_U_iso_or_equiv
_atom_site_adp_type
_atom_site_occupancy
Mo1    Mo    0.51022   0.94711   0.00341   0.01267  Uiso   1.00
Mo2    Mo    0.96074   0.55289   0.49659   0.01267  Uiso   1.00
Mo3    Mo    0.51363   0.99659   0.44711   0.01267  Uiso   1.00
Mo4    Mo    0.45733   0.50341   0.05289   0.01267  Uiso   1.00
Mo5    Mo    0.48978   0.05289   0.99659   0.01267  Uiso   1.00
Mo6    Mo    0.03926   0.44711   0.50341   0.01267  Uiso   1.00
Mo7    Mo    0.48637   0.00341   0.55289   0.01267  Uiso   1.00
Mo8    Mo    0.54267   0.49659   0.94711   0.01267  Uiso   1.00
H1     H     0.98670   0.93310   0.73730   0.01267  Uiso   1.00
H2     H     0.76710   0.04120   0.07220   0.01267  Uiso   1.00
H3     H     0.77480   0.94500   0.02040   0.01267  Uiso   1.00
H4     H     0.75740   0.06300   0.99780   0.01267  Uiso   1.00
H5     H     0.02780   0.93490   0.91810   0.01267  Uiso   1.00
H6     H     0.92830   0.86480   0.03220   0.01267  Uiso   1.00
H7     H     0.16900   0.91300   0.82000   0.01267  Uiso   1.00
H8     H     0.11960   0.00380   0.71980   0.01267  Uiso   1.00
H9     H     0.13180   0.01870   0.78930   0.01267  Uiso   1.00
H10    H     0.86420   0.04960   0.01000   0.01267  Uiso   1.00
H11    H     0.97620   0.92440   0.02540   0.01267  Uiso   1.00
H12    H     0.87980   0.92140   0.09120   0.01267  Uiso   1.00
H13    H     0.16570   0.85730   0.71290   0.01267  Uiso   1.00
H14    H     0.71710   0.94790   0.81410   0.01267  Uiso   1.00
H15    H     0.77300   0.89210   0.71450   0.01267  Uiso   1.00
H16    H     0.87100   0.91710   0.68250   0.01267  Uiso   1.00
H17    H     0.87040   0.85840   0.74000   0.01267  Uiso   1.00
H18    H     0.70870   0.03130   0.72010   0.01267  Uiso   1.00
H19    H     0.70120   0.06250   0.78890   0.01267  Uiso   1.00
H20    H     0.80730   0.04320   0.72580   0.01267  Uiso   1.00
H21    H     0.55470   0.89170   0.20970   0.01267  Uiso   1.00
H22    H     0.54140   0.08900   0.19040   0.01267  Uiso   1.00
H23    H     0.56770   0.89300   0.31720   0.01267  Uiso   1.00
H24    H     0.54460   0.08380   0.30040   0.01267  Uiso   1.00
H25    H     0.23080   0.97680   0.72860   0.01267  Uiso   1.00
H26    H     0.26540   0.85310   0.73010   0.01267  Uiso   1.00
H27    H     0.18160   0.82230   0.78270   0.01267  Uiso   1.00
H28    H     0.15710   0.56690   0.76270   0.01267  Uiso   1.00
H29    H     0.38050   0.45880   0.42780   0.01267  Uiso   1.00
H30    H     0.24020   0.55500   0.47960   0.01267  Uiso   1.00
H31    H     0.31820   0.43700   0.50220   0.01267  Uiso   1.00
H32    H     0.38080   0.56510   0.58190   0.01267  Uiso   1.00
H33    H     0.32530   0.63520   0.46780   0.01267  Uiso   1.00
H34    H     0.40200   0.58700   0.68000   0.01267  Uiso   1.00
H35    H     0.34320   0.49620   0.78020   0.01267  Uiso   1.00
H36    H     0.43980   0.48130   0.71070   0.01267  Uiso   1.00
H37    H     0.42380   0.45040   0.49000   0.01267  Uiso   1.00
H38    H     0.42600   0.57560   0.47460   0.01267  Uiso   1.00
H39    H     0.39240   0.57860   0.40880   0.01267  Uiso   1.00
H40    H     0.23590   0.64270   0.78710   0.01267  Uiso   1.00
H41    H     0.97910   0.55210   0.68590   0.01267  Uiso   1.00
H42    H     0.87960   0.60790   0.78550   0.01267  Uiso   1.00
H43    H     0.97060   0.58290   0.81750   0.01267  Uiso   1.00
H44    H     0.96880   0.64160   0.76000   0.01267  Uiso   1.00
H45    H     0.96010   0.46870   0.77990   0.01267  Uiso   1.00
H46    H     0.05260   0.43750   0.71110   0.01267  Uiso   1.00
H47    H     0.07630   0.45680   0.77420   0.01267  Uiso   1.00
H48    H     0.15610   0.60830   0.29030   0.01267  Uiso   1.00
H49    H     0.32080   0.41100   0.30960   0.01267  Uiso   1.00
H50    H     0.27790   0.60700   0.18280   0.01267  Uiso   1.00
H51    H     0.42880   0.41620   0.19960   0.01267  Uiso   1.00
H52    H     0.43620   0.52320   0.77140   0.01267  Uiso   1.00
H53    H     0.34860   0.64690   0.76990   0.01267  Uiso   1.00
H54    H     0.28660   0.67770   0.71730   0.01267  Uiso   1.00
H55    H     0.72400   0.26270   0.43310   0.01267  Uiso   1.00
H56    H     0.83930   0.92780   0.54120   0.01267  Uiso   1.00
H57    H     0.79520   0.97960   0.44500   0.01267  Uiso   1.00
H58    H     0.75520   0.00220   0.56300   0.01267  Uiso   1.00
H59    H     0.94590   0.08190   0.43490   0.01267  Uiso   1.00
H60    H     0.96050   0.96780   0.36480   0.01267  Uiso   1.00
H61    H     0.98900   0.18000   0.41300   0.01267  Uiso   1.00
H62    H     0.83940   0.28020   0.50380   0.01267  Uiso   1.00
H63    H     0.92110   0.21070   0.51870   0.01267  Uiso   1.00
H64    H     0.87420   0.99000   0.54960   0.01267  Uiso   1.00
H65    H     0.00160   0.97460   0.42440   0.01267  Uiso   1.00
H66    H     0.97100   0.90880   0.42140   0.01267  Uiso   1.00
H67    H     0.87860   0.28710   0.35730   0.01267  Uiso   1.00
H68    H     0.53120   0.18590   0.44790   0.01267  Uiso   1.00
H69    H     0.48750   0.28550   0.39210   0.01267  Uiso   1.00
H70    H     0.55350   0.31750   0.41710   0.01267  Uiso   1.00
H71    H     0.61040   0.26000   0.35840   0.01267  Uiso   1.00
H72    H     0.42880   0.27990   0.53130   0.01267  Uiso   1.00
H73    H     0.49010   0.21110   0.56250   0.01267  Uiso   1.00
H74    H     0.53310   0.27420   0.54320   0.01267  Uiso   1.00
H75    H     0.76440   0.79030   0.39170   0.01267  Uiso   1.00
H76    H     0.73180   0.80960   0.58900   0.01267  Uiso   1.00
H77    H     0.88490   0.68280   0.39300   0.01267  Uiso   1.00
H78    H     0.84500   0.69960   0.58380   0.01267  Uiso   1.00
H79    H     0.95940   0.27140   0.47680   0.01267  Uiso   1.00
H80    H     0.99550   0.26990   0.35310   0.01267  Uiso   1.00
H81    H     0.96430   0.21730   0.32230   0.01267  Uiso   1.00
H82    H     0.91980   0.23730   0.06690   0.01267  Uiso   1.00
H83    H     0.80830   0.57220   0.95880   0.01267  Uiso   1.00
H84    H     0.71980   0.52040   0.05500   0.01267  Uiso   1.00
H85    H     0.82040   0.49780   0.93700   0.01267  Uiso   1.00
H86    H     0.96270   0.41810   0.06510   0.01267  Uiso   1.00
H87    H     0.79310   0.53220   0.13520   0.01267  Uiso   1.00
H88    H     0.08200   0.32000   0.08700   0.01267  Uiso   1.00
H89    H     0.12340   0.21980   0.99620   0.01267  Uiso   1.00
H90    H     0.15050   0.28930   0.98130   0.01267  Uiso   1.00
H91    H     0.91380   0.51000   0.95040   0.01267  Uiso   1.00
H92    H     0.90060   0.52540   0.07560   0.01267  Uiso   1.00
H93    H     0.80120   0.59120   0.07860   0.01267  Uiso   1.00
H94    H     0.02300   0.21290   0.14270   0.01267  Uiso   1.00
H95    H     0.66500   0.31410   0.05210   0.01267  Uiso   1.00
H96    H     0.66510   0.21450   0.10790   0.01267  Uiso   1.00
H97    H     0.78810   0.18250   0.08290   0.01267  Uiso   1.00
H98    H     0.72880   0.24000   0.14160   0.01267  Uiso   1.00
H99    H     0.74000   0.22010   0.96870   0.01267  Uiso   1.00
H100   H     0.76370   0.28890   0.93750   0.01267  Uiso   1.00
H101   H     0.85050   0.22580   0.95680   0.01267  Uiso   1.00
H102   H     0.44640   0.70970   0.10830   0.01267  Uiso   1.00
H103   H     0.63040   0.69040   0.91100   0.01267  Uiso   1.00
H104   H     0.46070   0.81720   0.10700   0.01267  Uiso   1.00
H105   H     0.62840   0.80040   0.91620   0.01267  Uiso   1.00
H106   H     0.20760   0.22860   0.02320   0.01267  Uiso   1.00
H107   H     0.11850   0.23010   0.14690   0.01267  Uiso   1.00
H108   H     0.00390   0.28270   0.17770   0.01267  Uiso   1.00
H109   H     0.01330   0.06690   0.26270   0.01267  Uiso   1.00
H110   H     0.23290   0.95880   0.92780   0.01267  Uiso   1.00
H111   H     0.22520   0.05500   0.97960   0.01267  Uiso   1.00
H112   H     0.24260   0.93700   0.00220   0.01267  Uiso   1.00
H113   H     0.97220   0.06510   0.08190   0.01267  Uiso   1.00
H114   H     0.07170   0.13520   0.96780   0.01267  Uiso   1.00
H115   H     0.83100   0.08700   0.18000   0.01267  Uiso   1.00
H116   H     0.88040   0.99620   0.28020   0.01267  Uiso   1.00
H117   H     0.86820   0.98130   0.21070   0.01267  Uiso   1.00
H118   H     0.13580   0.95040   0.99000   0.01267  Uiso   1.00
H119   H     0.02380   0.07560   0.97460   0.01267  Uiso   1.00
H120   H     0.12020   0.07860   0.90880   0.01267  Uiso   1.00
H121   H     0.83430   0.14270   0.28710   0.01267  Uiso   1.00
H122   H     0.28290   0.05210   0.18590   0.01267  Uiso   1.00
H123   H     0.22700   0.10790   0.28550   0.01267  Uiso   1.00
H124   H     0.12900   0.08290   0.31750   0.01267  Uiso   1.00
H125   H     0.12960   0.14160   0.26000   0.01267  Uiso   1.00
H126   H     0.29130   0.96870   0.27990   0.01267  Uiso   1.00
H127   H     0.29880   0.93750   0.21110   0.01267  Uiso   1.00
H128   H     0.19270   0.95680   0.27420   0.01267  Uiso   1.00
H129   H     0.44530   0.10830   0.79030   0.01267  Uiso   1.00
H130   H     0.45860   0.91100   0.80960   0.01267  Uiso   1.00
H131   H     0.43230   0.10700   0.68280   0.01267  Uiso   1.00
H132   H     0.45540   0.91620   0.69960   0.01267  Uiso   1.00
H133   H     0.76920   0.02320   0.27140   0.01267  Uiso   1.00
H134   H     0.73460   0.14690   0.26990   0.01267  Uiso   1.00
H135   H     0.81840   0.17770   0.21730   0.01267  Uiso   1.00
H136   H     0.84290   0.43310   0.23730   0.01267  Uiso   1.00
H137   H     0.61950   0.54120   0.57220   0.01267  Uiso   1.00
H138   H     0.75980   0.44500   0.52040   0.01267  Uiso   1.00
H139   H     0.68180   0.56300   0.49780   0.01267  Uiso   1.00
H140   H     0.61920   0.43490   0.41810   0.01267  Uiso   1.00
H141   H     0.67470   0.36480   0.53220   0.01267  Uiso   1.00
H142   H     0.59800   0.41300   0.32000   0.01267  Uiso   1.00
H143   H     0.65680   0.50380   0.21980   0.01267  Uiso   1.00
H144   H     0.56020   0.51870   0.28930   0.01267  Uiso   1.00
H145   H     0.57620   0.54960   0.51000   0.01267  Uiso   1.00
H146   H     0.57400   0.42440   0.52540   0.01267  Uiso   1.00
H147   H     0.60760   0.42140   0.59120   0.01267  Uiso   1.00
H148   H     0.76410   0.35730   0.21290   0.01267  Uiso   1.00
H149   H     0.02090   0.44790   0.31410   0.01267  Uiso   1.00
H150   H     0.12040   0.39210   0.21450   0.01267  Uiso   1.00
H151   H     0.02940   0.41710   0.18250   0.01267  Uiso   1.00
H152   H     0.03120   0.35840   0.24000   0.01267  Uiso   1.00
H153   H     0.03990   0.53130   0.22010   0.01267  Uiso   1.00
H154   H     0.94740   0.56250   0.28890   0.01267  Uiso   1.00
H155   H     0.92370   0.54320   0.22580   0.01267  Uiso   1.00
H156   H     0.84390   0.39170   0.70970   0.01267  Uiso   1.00
H157   H     0.67920   0.58900   0.69040   0.01267  Uiso   1.00
H158   H     0.72210   0.39300   0.81720   0.01267  Uiso   1.00
H159   H     0.57120   0.58380   0.80040   0.01267  Uiso   1.00
H160   H     0.56380   0.47680   0.22860   0.01267  Uiso   1.00
H161   H     0.65140   0.35310   0.23010   0.01267  Uiso   1.00
H162   H     0.71340   0.32230   0.28270   0.01267  Uiso   1.00
H163   H     0.27600   0.73730   0.56690   0.01267  Uiso   1.00
H164   H     0.16070   0.07220   0.45880   0.01267  Uiso   1.00
H165   H     0.20480   0.02040   0.55500   0.01267  Uiso   1.00
H166   H     0.24480   0.99780   0.43700   0.01267  Uiso   1.00
H167   H     0.05410   0.91810   0.56510   0.01267  Uiso   1.00
H168   H     0.03950   0.03220   0.63520   0.01267  Uiso   1.00
H169   H     0.01100   0.82000   0.58700   0.01267  Uiso   1.00
H170   H     0.16060   0.71980   0.49620   0.01267  Uiso   1.00
H171   H     0.07890   0.78930   0.48130   0.01267  Uiso   1.00
H172   H     0.12580   0.01000   0.45040   0.01267  Uiso   1.00
H173   H     0.99840   0.02540   0.57560   0.01267  Uiso   1.00
H174   H     0.02900   0.09120   0.57860   0.01267  Uiso   1.00
H175   H     0.12140   0.71290   0.64270   0.01267  Uiso   1.00
H176   H     0.46880   0.81410   0.55210   0.01267  Uiso   1.00
H177   H     0.51250   0.71450   0.60790   0.01267  Uiso   1.00
H178   H     0.44650   0.68250   0.58290   0.01267  Uiso   1.00
H179   H     0.38960   0.74000   0.64160   0.01267  Uiso   1.00
H180   H     0.57120   0.72010   0.46870   0.01267  Uiso   1.00
H181   H     0.50990   0.78890   0.43750   0.01267  Uiso   1.00
H182   H     0.46690   0.72580   0.45680   0.01267  Uiso   1.00
H183   H     0.23560   0.20970   0.60830   0.01267  Uiso   1.00
H184   H     0.26820   0.19040   0.41100   0.01267  Uiso   1.00
H185   H     0.11510   0.31720   0.60700   0.01267  Uiso   1.00
H186   H     0.15500   0.30040   0.41620   0.01267  Uiso   1.00
H187   H     0.04060   0.72860   0.52320   0.01267  Uiso   1.00
H188   H     0.00450   0.73010   0.64690   0.01267  Uiso   1.00
H189   H     0.03570   0.78270   0.67770   0.01267  Uiso   1.00
H190   H     0.08020   0.76270   0.93310   0.01267  Uiso   1.00
H191   H     0.19170   0.42780   0.04120   0.01267  Uiso   1.00
H192   H     0.28020   0.47960   0.94500   0.01267  Uiso   1.00
H193   H     0.17960   0.50220   0.06300   0.01267  Uiso   1.00
H194   H     0.03730   0.58190   0.93490   0.01267  Uiso   1.00
H195   H     0.20690   0.46780   0.86480   0.01267  Uiso   1.00
H196   H     0.91800   0.68000   0.91300   0.01267  Uiso   1.00
H197   H     0.87660   0.78020   0.00380   0.01267  Uiso   1.00
H198   H     0.84950   0.71070   0.01870   0.01267  Uiso   1.00
H199   H     0.08620   0.49000   0.04960   0.01267  Uiso   1.00
H200   H     0.09940   0.47460   0.92440   0.01267  Uiso   1.00
H201   H     0.19880   0.40880   0.92140   0.01267  Uiso   1.00
H202   H     0.97700   0.78710   0.85730   0.01267  Uiso   1.00
H203   H     0.33500   0.68590   0.94790   0.01267  Uiso   1.00
H204   H     0.33490   0.78550   0.89210   0.01267  Uiso   1.00
H205   H     0.21190   0.81750   0.91710   0.01267  Uiso   1.00
H206   H     0.27120   0.76000   0.85840   0.01267  Uiso   1.00
H207   H     0.26000   0.77990   0.03130   0.01267  Uiso   1.00
H208   H     0.23630   0.71110   0.06250   0.01267  Uiso   1.00
H209   H     0.14950   0.77420   0.04320   0.01267  Uiso   1.00
H210   H     0.55360   0.29030   0.89170   0.01267  Uiso   1.00
H211   H     0.36960   0.30960   0.08900   0.01267  Uiso   1.00
H212   H     0.53930   0.18280   0.89300   0.01267  Uiso   1.00
H213   H     0.37160   0.19960   0.08380   0.01267  Uiso   1.00
H214   H     0.79240   0.77140   0.97680   0.01267  Uiso   1.00
H215   H     0.88150   0.76990   0.85310   0.01267  Uiso   1.00
H216   H     0.99610   0.71730   0.82230   0.01267  Uiso   1.00
C1     C     0.70300   0.97121   0.92779   0.01267  Uiso   1.00
C2     C     0.81581   0.95708   0.89030   0.01267  Uiso   1.00
C3     C     0.88176   0.95104   0.92664   0.01267  Uiso   1.00
C4     C     0.98340   0.93920   0.89280   0.01267  Uiso   1.00
C5     C     0.02370   0.93340   0.82300   0.01267  Uiso   1.00
C6     C     0.95900   0.93800   0.78580   0.01267  Uiso   1.00
C7     C     0.85310   0.95001   0.81959   0.01267  Uiso   1.00
C8     C     0.83778   0.95892   0.00412   0.01267  Uiso   1.00
C9     C     0.80350   0.03510   0.02270   0.01267  Uiso   1.00
C10    C     0.91230   0.91320   0.04180   0.01267  Uiso   1.00
C11    C     0.14030   0.92020   0.78180   0.01267  Uiso   1.00
C12    C     0.15710   0.98540   0.75240   0.01267  Uiso   1.00
C13    C     0.19170   0.85910   0.74970   0.01267  Uiso   1.00
C14    C     0.78020   0.95600   0.78060   0.01267  Uiso   1.00
C15    C     0.82800   0.90090   0.72430   0.01267  Uiso   1.00
C16    C     0.74620   0.03010   0.75110   0.01267  Uiso   1.00
C17    C     0.53355   0.99377   0.12053   0.01267  Uiso   1.00
C18    C     0.54373   0.99163   0.18831   0.01267  Uiso   1.00
C19    C     0.55272   0.93254   0.22682   0.01267  Uiso   1.00
C20    C     0.54367   0.04778   0.21608   0.01267  Uiso   1.00
C21    C     0.55880   0.93440   0.29160   0.01267  Uiso   1.00
C22    C     0.54700   0.04375   0.28145   0.01267  Uiso   1.00
C23    C     0.10200   0.52879   0.57221   0.01267  Uiso   1.00
C24    C     0.16319   0.54292   0.60970   0.01267  Uiso   1.00
C25    C     0.25944   0.54896   0.57336   0.01267  Uiso   1.00
C26    C     0.31540   0.56080   0.60720   0.01267  Uiso   1.00
C27    C     0.28010   0.56660   0.67700   0.01267  Uiso   1.00
C28    C     0.18280   0.56200   0.71420   0.01267  Uiso   1.00
C29    C     0.12270   0.54999   0.68041   0.01267  Uiso   1.00
C30    C     0.30082   0.54108   0.49588   0.01267  Uiso   1.00
C31    C     0.36130   0.46490   0.47730   0.01267  Uiso   1.00
C32    C     0.36730   0.58680   0.45820   0.01267  Uiso   1.00
C33    C     0.34230   0.57980   0.71820   0.01267  Uiso   1.00
C34    C     0.39490   0.51460   0.74760   0.01267  Uiso   1.00
C35    C     0.30050   0.64090   0.75030   0.01267  Uiso   1.00
C36    C     0.01680   0.54400   0.71940   0.01267  Uiso   1.00
C37    C     0.95320   0.59910   0.77570   0.01267  Uiso   1.00
C38    C     0.02740   0.46990   0.74890   0.01267  Uiso   1.00
C39    C     0.14785   0.50623   0.37947   0.01267  Uiso   1.00
C40    C     0.22367   0.50837   0.31169   0.01267  Uiso   1.00
C41    C     0.21208   0.56746   0.27318   0.01267  Uiso   1.00
C42    C     0.30753   0.45222   0.28392   0.01267  Uiso   1.00
C43    C     0.28480   0.56560   0.20840   0.01267  Uiso   1.00
C44    C     0.37220   0.45625   0.21855   0.01267  Uiso   1.00
C45    C     0.63079   0.07221   0.47121   0.01267  Uiso   1.00
C46    C     0.70611   0.10970   0.45708   0.01267  Uiso   1.00
C47    C     0.80840   0.07336   0.45104   0.01267  Uiso   1.00
C48    C     0.87620   0.10720   0.43920   0.01267  Uiso   1.00
C49    C     0.84670   0.17700   0.43340   0.01267  Uiso   1.00
C50    C     0.74480   0.21420   0.43800   0.01267  Uiso   1.00
C51    C     0.67269   0.18041   0.45001   0.01267  Uiso   1.00
C52    C     0.84190   0.99588   0.45892   0.01267  Uiso   1.00
C53    C     0.82620   0.97730   0.53510   0.01267  Uiso   1.00
C54    C     0.95410   0.95820   0.41320   0.01267  Uiso   1.00
C55    C     0.92210   0.21820   0.42020   0.01267  Uiso   1.00
C56    C     0.90950   0.24760   0.48540   0.01267  Uiso   1.00
C57    C     0.94140   0.25030   0.35910   0.01267  Uiso   1.00
C58    C     0.56080   0.21940   0.45600   0.01267  Uiso   1.00
C59    C     0.55230   0.27570   0.40090   0.01267  Uiso   1.00
C60    C     0.49730   0.24890   0.53010   0.01267  Uiso   1.00
C61    C     0.65408   0.87947   0.49377   0.01267  Uiso   1.00
C62    C     0.73204   0.81169   0.49163   0.01267  Uiso   1.00
C63    C     0.77954   0.77318   0.43254   0.01267  Uiso   1.00
C64    C     0.75975   0.78392   0.54778   0.01267  Uiso   1.00
C65    C     0.85040   0.70840   0.43440   0.01267  Uiso   1.00
C66    C     0.82845   0.71855   0.54375   0.01267  Uiso   1.00
C67    C     0.67421   0.42779   0.02879   0.01267  Uiso   1.00
C68    C     0.77289   0.39030   0.04292   0.01267  Uiso   1.00
C69    C     0.83280   0.42664   0.04896   0.01267  Uiso   1.00
C70    C     0.92260   0.39280   0.06080   0.01267  Uiso   1.00
C71    C     0.95710   0.32300   0.06660   0.01267  Uiso   1.00
C72    C     0.89700   0.28580   0.06200   0.01267  Uiso   1.00
C73    C     0.80311   0.31959   0.04999   0.01267  Uiso   1.00
C74    C     0.79670   0.50412   0.04108   0.01267  Uiso   1.00
C75    C     0.83860   0.52270   0.96490   0.01267  Uiso   1.00
C76    C     0.82550   0.54180   0.08680   0.01267  Uiso   1.00
C77    C     0.06050   0.28180   0.07980   0.01267  Uiso   1.00
C78    C     0.14250   0.25240   0.01460   0.01267  Uiso   1.00
C79    C     0.05080   0.24970   0.14090   0.01267  Uiso   1.00
C80    C     0.73620   0.28060   0.04400   0.01267  Uiso   1.00
C81    C     0.72890   0.22430   0.09910   0.01267  Uiso   1.00
C82    C     0.77630   0.25110   0.96990   0.01267  Uiso   1.00
C83    C     0.52732   0.62053   0.00623   0.01267  Uiso   1.00
C84    C     0.53536   0.68831   0.00837   0.01267  Uiso   1.00
C85    C     0.48526   0.72682   0.06746   0.01267  Uiso   1.00
C86    C     0.59145   0.71608   0.95222   0.01267  Uiso   1.00
C87    C     0.49320   0.79160   0.06560   0.01267  Uiso   1.00
C88    C     0.59075   0.78145   0.95625   0.01267  Uiso   1.00
C89    C     0.29700   0.02879   0.07221   0.01267  Uiso   1.00
C90    C     0.18419   0.04292   0.10970   0.01267  Uiso   1.00
C91    C     0.11824   0.04896   0.07336   0.01267  Uiso   1.00
C92    C     0.01660   0.06080   0.10720   0.01267  Uiso   1.00
C93    C     0.97630   0.06660   0.17700   0.01267  Uiso   1.00
C94    C     0.04100   0.06200   0.21420   0.01267  Uiso   1.00
C95    C     0.14690   0.04999   0.18041   0.01267  Uiso   1.00
C96    C     0.16222   0.04108   0.99588   0.01267  Uiso   1.00
C97    C     0.19650   0.96490   0.97730   0.01267  Uiso   1.00
C98    C     0.08770   0.08680   0.95820   0.01267  Uiso   1.00
C99    C     0.85970   0.07980   0.21820   0.01267  Uiso   1.00
C100   C     0.84290   0.01460   0.24760   0.01267  Uiso   1.00
C101   C     0.80830   0.14090   0.25030   0.01267  Uiso   1.00
C102   C     0.21980   0.04400   0.21940   0.01267  Uiso   1.00
C103   C     0.17200   0.09910   0.27570   0.01267  Uiso   1.00
C104   C     0.25380   0.96990   0.24890   0.01267  Uiso   1.00
C105   C     0.46645   0.00623   0.87947   0.01267  Uiso   1.00
C106   C     0.45627   0.00837   0.81169   0.01267  Uiso   1.00
C107   C     0.44728   0.06746   0.77318   0.01267  Uiso   1.00
C108   C     0.45633   0.95222   0.78392   0.01267  Uiso   1.00
C109   C     0.44120   0.06560   0.70840   0.01267  Uiso   1.00
C110   C     0.45300   0.95625   0.71855   0.01267  Uiso   1.00
C111   C     0.89800   0.47121   0.42779   0.01267  Uiso   1.00
C112   C     0.83681   0.45708   0.39030   0.01267  Uiso   1.00
C113   C     0.74056   0.45104   0.42664   0.01267  Uiso   1.00
C114   C     0.68460   0.43920   0.39280   0.01267  Uiso   1.00
C115   C     0.71990   0.43340   0.32300   0.01267  Uiso   1.00
C116   C     0.81720   0.43800   0.28580   0.01267  Uiso   1.00
C117   C     0.87730   0.45001   0.31959   0.01267  Uiso   1.00
C118   C     0.69918   0.45892   0.50412   0.01267  Uiso   1.00
C119   C     0.63870   0.53510   0.52270   0.01267  Uiso   1.00
C120   C     0.63270   0.41320   0.54180   0.01267  Uiso   1.00
C121   C     0.65770   0.42020   0.28180   0.01267  Uiso   1.00
C122   C     0.60510   0.48540   0.25240   0.01267  Uiso   1.00
C123   C     0.69950   0.35910   0.24970   0.01267  Uiso   1.00
C124   C     0.98320   0.45600   0.28060   0.01267  Uiso   1.00
C125   C     0.04680   0.40090   0.22430   0.01267  Uiso   1.00
C126   C     0.97260   0.53010   0.25110   0.01267  Uiso   1.00
C127   C     0.85215   0.49377   0.62053   0.01267  Uiso   1.00
C128   C     0.77633   0.49163   0.68831   0.01267  Uiso   1.00
C129   C     0.78792   0.43254   0.72682   0.01267  Uiso   1.00
C130   C     0.69247   0.54778   0.71608   0.01267  Uiso   1.00
C131   C     0.71520   0.43440   0.79160   0.01267  Uiso   1.00
C132   C     0.62780   0.54375   0.78145   0.01267  Uiso   1.00
C133   C     0.36921   0.92779   0.52879   0.01267  Uiso   1.00
C134   C     0.29389   0.89030   0.54292   0.01267  Uiso   1.00
C135   C     0.19160   0.92664   0.54896   0.01267  Uiso   1.00
C136   C     0.12380   0.89280   0.56080   0.01267  Uiso   1.00
C137   C     0.15330   0.82300   0.56660   0.01267  Uiso   1.00
C138   C     0.25520   0.78580   0.56200   0.01267  Uiso   1.00
C139   C     0.32731   0.81959   0.54999   0.01267  Uiso   1.00
C140   C     0.15810   0.00412   0.54108   0.01267  Uiso   1.00
C141   C     0.17380   0.02270   0.46490   0.01267  Uiso   1.00
C142   C     0.04590   0.04180   0.58680   0.01267  Uiso   1.00
C143   C     0.07790   0.78180   0.57980   0.01267  Uiso   1.00
C144   C     0.09050   0.75240   0.51460   0.01267  Uiso   1.00
C145   C     0.05860   0.74970   0.64090   0.01267  Uiso   1.00
C146   C     0.43920   0.78060   0.54400   0.01267  Uiso   1.00
C147   C     0.44770   0.72430   0.59910   0.01267  Uiso   1.00
C148   C     0.50270   0.75110   0.46990   0.01267  Uiso   1.00
C149   C     0.34592   0.12053   0.50623   0.01267  Uiso   1.00
C150   C     0.26796   0.18831   0.50837   0.01267  Uiso   1.00
C151   C     0.22046   0.22682   0.56746   0.01267  Uiso   1.00
C152   C     0.24025   0.21608   0.45222   0.01267  Uiso   1.00
C153   C     0.14960   0.29160   0.56560   0.01267  Uiso   1.00
C154   C     0.17155   0.28145   0.45625   0.01267  Uiso   1.00
C155   C     0.32579   0.57221   0.97121   0.01267  Uiso   1.00
C156   C     0.22711   0.60970   0.95708   0.01267  Uiso   1.00
C157   C     0.16720   0.57336   0.95104   0.01267  Uiso   1.00
C158   C     0.07740   0.60720   0.93920   0.01267  Uiso   1.00
C159   C     0.04290   0.67700   0.93340   0.01267  Uiso   1.00
C160   C     0.10300   0.71420   0.93800   0.01267  Uiso   1.00
C161   C     0.19689   0.68041   0.95001   0.01267  Uiso   1.00
C162   C     0.20330   0.49588   0.95892   0.01267  Uiso   1.00
C163   C     0.16140   0.47730   0.03510   0.01267  Uiso   1.00
C164   C     0.17450   0.45820   0.91320   0.01267  Uiso   1.00
C165   C     0.93950   0.71820   0.92020   0.01267  Uiso   1.00
C166   C     0.85750   0.74760   0.98540   0.01267  Uiso   1.00
C167   C     0.94920   0.75030   0.85910   0.01267  Uiso   1.00
C168   C     0.26380   0.71940   0.95600   0.01267  Uiso   1.00
C169   C     0.27110   0.77570   0.90090   0.01267  Uiso   1.00
C170   C     0.22370   0.74890   0.03010   0.01267  Uiso   1.00
C171   C     0.47268   0.37947   0.99377   0.01267  Uiso   1.00
C172   C     0.46464   0.31169   0.99163   0.01267  Uiso   1.00
C173   C     0.51474   0.27318   0.93254   0.01267  Uiso   1.00
C174   C     0.40855   0.28392   0.04778   0.01267  Uiso   1.00
C175   C     0.50680   0.20840   0.93440   0.01267  Uiso   1.00
C176   C     0.40925   0.21855   0.04375   0.01267  Uiso   1.00
N1     N     0.55338   0.98833   0.31971   0.01267  Uiso   1.00
N2     N     0.36142   0.51167   0.18029   0.01267  Uiso   1.00
N3     N     0.87309   0.68029   0.48833   0.01267  Uiso   1.00
N4     N     0.54171   0.81971   0.01167   0.01267  Uiso   1.00
N5     N     0.44662   0.01167   0.68029   0.01267  Uiso   1.00
N6     N     0.63858   0.48833   0.81971   0.01267  Uiso   1.00
N7     N     0.12691   0.31971   0.51167   0.01267  Uiso   1.00
N8     N     0.45829   0.18029   0.98833   0.01267  Uiso   1.00
O1     O     0.66822   0.92206   0.94706   0.01267  Uiso   1.00
O2     O     0.53837   0.93890   0.09652   0.01267  Uiso   1.00
O3     O     0.64678   0.03382   0.93990   0.01267  Uiso   1.00
O4     O     0.51674   0.05076   0.08934   0.01267  Uiso   1.00
O5     O     0.03734   0.57794   0.55294   0.01267  Uiso   1.00
O6     O     0.07379   0.56110   0.40348   0.01267  Uiso   1.00
O7     O     0.12050   0.46618   0.56010   0.01267  Uiso   1.00
O8     O     0.15684   0.44924   0.41066   0.01267  Uiso   1.00
O9     O     0.61528   0.05294   0.42206   0.01267  Uiso   1.00
O10    O     0.63489   0.90348   0.43890   0.01267  Uiso   1.00
O11    O     0.58668   0.06010   0.53382   0.01267  Uiso   1.00
O12    O     0.60608   0.91066   0.55076   0.01267  Uiso   1.00
O13    O     0.59028   0.44706   0.07794   0.01267  Uiso   1.00
O14    O     0.47727   0.59652   0.06110   0.01267  Uiso   1.00
O15    O     0.68060   0.43990   0.96618   0.01267  Uiso   1.00
O16    O     0.56750   0.58934   0.94924   0.01267  Uiso   1.00
O17    O     0.33178   0.07794   0.05294   0.01267  Uiso   1.00
O18    O     0.46163   0.06110   0.90348   0.01267  Uiso   1.00
O19    O     0.35322   0.96618   0.06010   0.01267  Uiso   1.00
O20    O     0.48326   0.94924   0.91066   0.01267  Uiso   1.00
O21    O     0.96266   0.42206   0.44706   0.01267  Uiso   1.00
O22    O     0.92621   0.43890   0.59652   0.01267  Uiso   1.00
O23    O     0.87950   0.53382   0.43990   0.01267  Uiso   1.00
O24    O     0.84316   0.55076   0.58934   0.01267  Uiso   1.00
O25    O     0.38472   0.94706   0.57794   0.01267  Uiso   1.00
O26    O     0.36511   0.09652   0.56110   0.01267  Uiso   1.00
O27    O     0.41332   0.93990   0.46618   0.01267  Uiso   1.00
O28    O     0.39392   0.08934   0.44924   0.01267  Uiso   1.00
O29    O     0.40972   0.55294   0.92206   0.01267  Uiso   1.00
O30    O     0.52273   0.40348   0.93890   0.01267  Uiso   1.00
O31    O     0.31940   0.56010   0.03382   0.01267  Uiso   1.00
O32    O     0.43250   0.41066   0.05076   0.01267  Uiso   1.00
