data_image0
_cell_length_a       8.579
_cell_length_b       10.184
_cell_length_c       11.107
_cell_angle_alpha    64.78
_cell_angle_beta     71.73
_cell_angle_gamma    79.3

_symmetry_space_group_name_H-M    "P 1"
_symmetry_int_tables_number       1

loop_
  _symmetry_equiv_pos_as_xyz
  'x, y, z'

loop_
  _atom_site_label
  _atom_site_occupancy
  _atom_site_fract_x
  _atom_site_fract_y
  _atom_site_fract_z
  _atom_site_thermal_displace_type
  _atom_site_B_iso_or_equiv
  _atom_site_type_symbol
  Tb1      1.0000 0.13200  0.93860  0.15515  Biso   1.000  Tb
  O1       1.0000 0.39670  0.80170  0.19380  Biso   1.000  O
  O2       1.0000 0.17680  0.76310  0.37000  Biso   1.000  O
  O3       1.0000 0.12930  0.70740  0.14660  Biso   1.000  O
  O4       1.0000 0.03090  0.86830  0.97760  Biso   1.000  O
  O5       1.0000 0.94160  0.02000  0.32780  Biso   1.000  O
  O6       1.0000 0.84320  0.87920  0.26700  Biso   1.000  O
  C1       1.0000 0.41680  0.61130  0.41140  Biso   1.000  C
  C2       1.0000 0.33670  0.53710  0.54870  Biso   1.000  C
  H1       1.0000 0.22640  0.56130  0.58180  Biso   1.000  H
  C3       1.0000 0.58110  0.57250  0.36280  Biso   1.000  C
  H2       1.0000 0.63590  0.62020  0.27060  Biso   1.000  H
  C4       1.0000 0.32500  0.73190  0.31940  Biso   1.000  C
  C5       1.0000 0.03150  0.61570  0.02200  Biso   1.000  C
  C6       1.0000 0.03910  0.63280  0.89010  Biso   1.000  C
  H3       1.0000 0.06520  0.72140  0.81650  Biso   1.000  H
  C7       1.0000 0.99240  0.48290  0.13250  Biso   1.000  C
  H4       1.0000 0.98740  0.47160  0.22120  Biso   1.000  H
  C8       1.0000 0.06470  0.73830  0.05040  Biso   1.000  C
  C9       1.0000 0.65600  0.98070  0.41890  Biso   1.000  C
  C10      1.0000 0.52480  0.91220  0.42840  Biso   1.000  C
  H5       1.0000 0.54140  0.85330  0.38000  Biso   1.000  H
  C11      1.0000 0.63180  0.06960  0.49050  Biso   1.000  C
  H6       1.0000 0.71910  0.11630  0.48430  Biso   1.000  H
  C12      1.0000 0.82400  0.95840  0.33330  Biso   1.000  C
  Tb2      1.0000 0.86801  0.06140  0.84484  Biso   1.000  Tb
  O7       1.0000 0.60330  0.19830  0.80620  Biso   1.000  O
  O8       1.0000 0.82320  0.23690  0.63000  Biso   1.000  O
  O9       1.0000 0.87070  0.29260  0.85340  Biso   1.000  O
  O10      1.0000 0.96910  0.13170  0.02240  Biso   1.000  O
  O11      1.0000 0.05840  0.98000  0.67220  Biso   1.000  O
  O12      1.0000 0.15680  0.12080  0.73300  Biso   1.000  O
  C13      1.0000 0.58320  0.38870  0.58860  Biso   1.000  C
  C14      1.0000 0.66330  0.46290  0.45130  Biso   1.000  C
  H7       1.0000 0.77360  0.43870  0.41820  Biso   1.000  H
  C15      1.0000 0.41890  0.42750  0.63720  Biso   1.000  C
  H8       1.0000 0.36410  0.37980  0.72940  Biso   1.000  H
  C16      1.0000 0.67500  0.26810  0.68060  Biso   1.000  C
  C17      1.0000 0.96850  0.38430  0.97800  Biso   1.000  C
  C18      1.0000 0.96090  0.36720  0.10990  Biso   1.000  C
  H9       1.0000 0.93480  0.27860  0.18350  Biso   1.000  H
  C19      1.0000 0.00760  0.51710  0.86750  Biso   1.000  C
  H10      1.0000 0.01260  0.52840  0.77880  Biso   1.000  H
  C20      1.0000 0.93530  0.26170  0.94960  Biso   1.000  C
  C21      1.0000 0.34400  0.01930  0.58110  Biso   1.000  C
  C22      1.0000 0.47520  0.08780  0.57160  Biso   1.000  C
  H11      1.0000 0.45860  0.14670  0.62000  Biso   1.000  H
  C23      1.0000 0.36820  0.93040  0.50950  Biso   1.000  C
  H12      1.0000 0.28090  0.88370  0.51570  Biso   1.000  H
  C24      1.0000 0.17600  0.04160  0.66670  Biso   1.000  C
