data_image0
_cell_length_a       8.5466
_cell_length_b       10.1703
_cell_length_c       11.1921
_cell_angle_alpha    65.531
_cell_angle_beta     71.886
_cell_angle_gamma    78.796

_symmetry_space_group_name_H-M    "P 1"
_symmetry_int_tables_number       1

loop_
  _symmetry_equiv_pos_as_xyz
  'x, y, z'

loop_
  _atom_site_label
  _atom_site_occupancy
  _atom_site_fract_x
  _atom_site_fract_y
  _atom_site_fract_z
  _atom_site_thermal_displace_type
  _atom_site_B_iso_or_equiv
  _atom_site_type_symbol
  Tb1      1.0000 0.36688  0.06013  0.84597  Biso   1.000  Tb
  O1       1.0000 0.32530  0.23480  0.63280  Biso   1.000  O
  O2       1.0000 0.10170  0.19840  0.80570  Biso   1.000  O
  O3       1.0000 0.55980  0.97510  0.67640  Biso   1.000  O
  O4       1.0000 0.65480  0.11910  0.73660  Biso   1.000  O
  O5       1.0000 0.36780  0.29090  0.85690  Biso   1.000  O
  O6       1.0000 0.46820  0.13130  0.02250  Biso   1.000  O
  C1       1.0000 0.91940  0.43110  0.63460  Biso   1.000  C
  H1       1.0000 0.86400  0.38530  0.72510  Biso   1.000  H
  C2       1.0000 0.08320  0.38950  0.58820  Biso   1.000  C
  C3       1.0000 0.16240  0.45910  0.45330  Biso   1.000  C
  H2       1.0000 0.27260  0.43190  0.42090  Biso   1.000  H
  C4       1.0000 0.17520  0.26800  0.68100  Biso   1.000  C
  C5       1.0000 0.86940  0.93060  0.50800  Biso   1.000  C
  H3       1.0000 0.78230  0.88430  0.51330  Biso   1.000  H
  C6       1.0000 0.84460  0.01760  0.58280  Biso   1.000  C
  C7       1.0000 0.97590  0.08590  0.57370  Biso   1.000  C
  H4       1.0000 0.95930  0.14370  0.62340  Biso   1.000  H
  C8       1.0000 0.67690  0.03830  0.66950  Biso   1.000  C
  C9       1.0000 0.45900  0.36930  0.10910  Biso   1.000  C
  H5       1.0000 0.43130  0.28250  0.18200  Biso   1.000  H
  C10      1.0000 0.46780  0.38330  0.97790  Biso   1.000  C
  C11      1.0000 0.50810  0.51450  0.86920  Biso   1.000  C
  H6       1.0000 0.51300  0.52430  0.78180  Biso   1.000  H
  C12      1.0000 0.43350  0.26130  0.95140  Biso   1.000  C
  Tb2      1.0000 0.63312  0.93987  0.15403  Biso   1.000  Tb
  O7       1.0000 0.67470  0.76520  0.36720  Biso   1.000  O
  O8       1.0000 0.89830  0.80160  0.19430  Biso   1.000  O
  O9       1.0000 0.44020  0.02490  0.32360  Biso   1.000  O
  O10      1.0000 0.34520  0.88090  0.26340  Biso   1.000  O
  O11      1.0000 0.63220  0.70910  0.14310  Biso   1.000  O
  O12      1.0000 0.53180  0.86870  0.97750  Biso   1.000  O
  C13      1.0000 0.08060  0.56890  0.36540  Biso   1.000  C
  H7       1.0000 0.13600  0.61470  0.27490  Biso   1.000  H
  C14      1.0000 0.91680  0.61050  0.41180  Biso   1.000  C
  C15      1.0000 0.83760  0.54090  0.54670  Biso   1.000  C
  H8       1.0000 0.72740  0.56810  0.57910  Biso   1.000  H
  C16      1.0000 0.82480  0.73200  0.31900  Biso   1.000  C
  C17      1.0000 0.13060  0.06940  0.49200  Biso   1.000  C
  H9       1.0000 0.21770  0.11570  0.48670  Biso   1.000  H
  C18      1.0000 0.15540  0.98240  0.41720  Biso   1.000  C
  C19      1.0000 0.02410  0.91410  0.42630  Biso   1.000  C
  H10      1.0000 0.04070  0.85630  0.37660  Biso   1.000  H
  C20      1.0000 0.32310  0.96170  0.33050  Biso   1.000  C
  C21      1.0000 0.54100  0.63070  0.89090  Biso   1.000  C
  H11      1.0000 0.56870  0.71750  0.81800  Biso   1.000  H
  C22      1.0000 0.53220  0.61670  0.02210  Biso   1.000  C
  C23      1.0000 0.49190  0.48550  0.13080  Biso   1.000  C
  H12      1.0000 0.48700  0.47570  0.21820  Biso   1.000  H
  C24      1.0000 0.56650  0.73870  0.04860  Biso   1.000  C
