data_BOKQEZ_clean
_audit_creation_date              2015-10-16
_audit_creation_method            'Materials Studio'
_symmetry_space_group_name_H-M    'P1'
_symmetry_Int_Tables_number       1
_symmetry_cell_setting            triclinic
loop_
_symmetry_equiv_pos_as_xyz
  x,y,z
_cell_length_a                    15.2429
_cell_length_b                    15.2429
_cell_length_c                    20.6894
_cell_angle_alpha                 68.3845
_cell_angle_beta                  68.3845
_cell_angle_gamma                 60.0000
loop_
_atom_site_label
_atom_site_type_symbol
_atom_site_fract_x
_atom_site_fract_y
_atom_site_fract_z
_atom_site_U_iso_or_equiv
_atom_site_adp_type
_atom_site_occupancy
Mn1    Mn    0.37695   0.38312   0.25469   0.01267  Uiso   1.00
Mn2    Mn    0.38312   0.98524   0.25469   0.01267  Uiso   1.00
Mn3    Mn    0.98524   0.37695   0.25469   0.01267  Uiso   1.00
Mn4    Mn    0.12305   0.51476   0.24531   0.01267  Uiso   1.00
Mn5    Mn    0.72166   0.72166   0.83502   0.01267  Uiso   1.00
Mn6    Mn    0.61688   0.01476   0.74531   0.01267  Uiso   1.00
Mn7    Mn    0.62305   0.61688   0.74531   0.01267  Uiso   1.00
Mn8    Mn    0.27834   0.27834   0.16498   0.01267  Uiso   1.00
Mn9    Mn    0.22166   0.22166   0.33502   0.01267  Uiso   1.00
Mn10   Mn    0.01476   0.62305   0.74531   0.01267  Uiso   1.00
Mn11   Mn    0.51476   0.11688   0.24531   0.01267  Uiso   1.00
Mn12   Mn    0.88312   0.87695   0.75469   0.01267  Uiso   1.00
Mn13   Mn    0.48524   0.88312   0.75469   0.01267  Uiso   1.00
Mn14   Mn    0.11688   0.12305   0.24531   0.01267  Uiso   1.00
Mn15   Mn    0.87695   0.48524   0.75469   0.01267  Uiso   1.00
Mn16   Mn    0.77834   0.77834   0.66498   0.01267  Uiso   1.00
H1     H     0.62710   0.72420   0.50300   0.01267  Uiso   1.00
H2     H     0.72420   0.14570   0.50300   0.01267  Uiso   1.00
H3     H     0.85430   0.37290   0.49700   0.01267  Uiso   1.00
H4     H     0.92540   0.29740   0.10920   0.01267  Uiso   1.00
H5     H     0.77580   0.87290   0.99700   0.01267  Uiso   1.00
H6     H     0.66800   0.92540   0.10920   0.01267  Uiso   1.00
H7     H     0.87290   0.35430   0.99700   0.01267  Uiso   1.00
H8     H     0.16800   0.79740   0.60920   0.01267  Uiso   1.00
H9     H     0.12710   0.64570   0.00300   0.01267  Uiso   1.00
H10    H     0.35430   0.77580   0.99700   0.01267  Uiso   1.00
H11    H     0.27580   0.85430   0.49700   0.01267  Uiso   1.00
H12    H     0.79740   0.42540   0.60920   0.01267  Uiso   1.00
H13    H     0.64570   0.22420   0.00300   0.01267  Uiso   1.00
H14    H     0.42540   0.16800   0.60920   0.01267  Uiso   1.00
H15    H     0.57460   0.83200   0.39080   0.01267  Uiso   1.00
H16    H     0.20260   0.57460   0.39080   0.01267  Uiso   1.00
H17    H     0.07460   0.70260   0.89080   0.01267  Uiso   1.00
H18    H     0.22420   0.12710   0.00300   0.01267  Uiso   1.00
H19    H     0.70260   0.33200   0.89080   0.01267  Uiso   1.00
H20    H     0.14570   0.62710   0.50300   0.01267  Uiso   1.00
H21    H     0.83200   0.20260   0.39080   0.01267  Uiso   1.00
H22    H     0.29740   0.66800   0.10920   0.01267  Uiso   1.00
H23    H     0.37290   0.27580   0.49700   0.01267  Uiso   1.00
H24    H     0.33200   0.07460   0.89080   0.01267  Uiso   1.00
C1     C     0.43865   0.95205   0.94285   0.01267  Uiso   1.00
C2     C     0.93907   0.48587   0.36809   0.01267  Uiso   1.00
C3     C     0.80907   0.60047   0.61319   0.01267  Uiso   1.00
C4     C     0.47727   0.10047   0.11319   0.01267  Uiso   1.00
C5     C     0.06938   0.64358   0.99916   0.01267  Uiso   1.00
C6     C     0.60816   0.33216   0.05562   0.01267  Uiso   1.00
C7     C     0.64358   0.28788   0.99916   0.01267  Uiso   1.00
C8     C     0.66645   0.43865   0.94285   0.01267  Uiso   1.00
C9     C     0.69093   0.52273   0.88681   0.01267  Uiso   1.00
C10    C     0.01413   0.56093   0.13191   0.01267  Uiso   1.00
C11    C     0.97727   0.80907   0.61319   0.01267  Uiso   1.00
C12    C     0.30907   0.47727   0.11319   0.01267  Uiso   1.00
C13    C     0.04795   0.33355   0.05715   0.01267  Uiso   1.00
C14    C     0.95205   0.66645   0.94285   0.01267  Uiso   1.00
C15    C     0.06093   0.51413   0.63191   0.01267  Uiso   1.00
C16    C     0.10816   0.50406   0.55562   0.01267  Uiso   1.00
C17    C     0.35013   0.03873   0.93451   0.01267  Uiso   1.00
C18    C     0.66784   0.99594   0.94438   0.01267  Uiso   1.00
C19    C     0.89953   0.69093   0.88681   0.01267  Uiso   1.00
C20    C     0.32337   0.64987   0.06549   0.01267  Uiso   1.00
C21    C     0.39953   0.02273   0.38681   0.01267  Uiso   1.00
C22    C     0.78788   0.14358   0.49916   0.01267  Uiso   1.00
C23    C     0.70697   0.98587   0.86809   0.01267  Uiso   1.00
C24    C     0.17663   0.53873   0.43451   0.01267  Uiso   1.00
C25    C     0.56938   0.78788   0.49916   0.01267  Uiso   1.00
C26    C     0.14358   0.56938   0.49916   0.01267  Uiso   1.00
C27    C     0.54795   0.06135   0.55715   0.01267  Uiso   1.00
C28    C     0.39184   0.66784   0.94438   0.01267  Uiso   1.00
C29    C     0.16645   0.45205   0.44285   0.01267  Uiso   1.00
C30    C     0.49594   0.16784   0.44438   0.01267  Uiso   1.00
C31    C     0.60047   0.97727   0.61319   0.01267  Uiso   1.00
C32    C     0.56135   0.04795   0.05715   0.01267  Uiso   1.00
C33    C     0.56093   0.29303   0.13191   0.01267  Uiso   1.00
C34    C     0.46127   0.14987   0.56549   0.01267  Uiso   1.00
C35    C     0.51413   0.79303   0.63191   0.01267  Uiso   1.00
C36    C     0.93865   0.16645   0.44285   0.01267  Uiso   1.00
C37    C     0.10047   0.30907   0.11319   0.01267  Uiso   1.00
C38    C     0.93062   0.35642   0.00084   0.01267  Uiso   1.00
C39    C     0.82337   0.46127   0.56549   0.01267  Uiso   1.00
C40    C     0.48587   0.20697   0.36809   0.01267  Uiso   1.00
C41    C     0.71212   0.93062   0.00084   0.01267  Uiso   1.00
C42    C     0.43062   0.21212   0.50084   0.01267  Uiso   1.00
C43    C     0.19093   0.39953   0.38681   0.01267  Uiso   1.00
C44    C     0.00406   0.60816   0.05562   0.01267  Uiso   1.00
C45    C     0.52273   0.89953   0.88681   0.01267  Uiso   1.00
C46    C     0.45205   0.93865   0.44285   0.01267  Uiso   1.00
C47    C     0.33216   0.00406   0.05562   0.01267  Uiso   1.00
C48    C     0.28788   0.06938   0.99916   0.01267  Uiso   1.00
C49    C     0.14987   0.82337   0.56549   0.01267  Uiso   1.00
C50    C     0.29303   0.01413   0.13191   0.01267  Uiso   1.00
C51    C     0.33355   0.56135   0.05715   0.01267  Uiso   1.00
C52    C     0.64987   0.96127   0.06549   0.01267  Uiso   1.00
C53    C     0.83216   0.10816   0.55562   0.01267  Uiso   1.00
C54    C     0.43907   0.70697   0.86809   0.01267  Uiso   1.00
C55    C     0.85013   0.17663   0.43451   0.01267  Uiso   1.00
C56    C     0.96127   0.32337   0.06549   0.01267  Uiso   1.00
C57    C     0.21212   0.85642   0.50084   0.01267  Uiso   1.00
C58    C     0.02273   0.19093   0.38681   0.01267  Uiso   1.00
C59    C     0.35642   0.71212   0.00084   0.01267  Uiso   1.00
C60    C     0.16784   0.89184   0.44438   0.01267  Uiso   1.00
C61    C     0.53873   0.85013   0.43451   0.01267  Uiso   1.00
C62    C     0.98587   0.43907   0.86809   0.01267  Uiso   1.00
C63    C     0.20697   0.93907   0.36809   0.01267  Uiso   1.00
C64    C     0.89184   0.49594   0.44438   0.01267  Uiso   1.00
C65    C     0.67663   0.35013   0.93451   0.01267  Uiso   1.00
C66    C     0.79303   0.06093   0.63191   0.01267  Uiso   1.00
C67    C     0.85642   0.43062   0.50084   0.01267  Uiso   1.00
C68    C     0.99594   0.39184   0.94438   0.01267  Uiso   1.00
C69    C     0.50406   0.83216   0.55562   0.01267  Uiso   1.00
C70    C     0.06135   0.83355   0.55715   0.01267  Uiso   1.00
C71    C     0.83355   0.54795   0.55715   0.01267  Uiso   1.00
C72    C     0.03873   0.67663   0.93451   0.01267  Uiso   1.00
S1     S     0.38555   0.55069   0.97039   0.01267  Uiso   1.00
S2     S     0.94931   0.11445   0.52961   0.01267  Uiso   1.00
S3     S     0.05069   0.88555   0.47039   0.01267  Uiso   1.00
S4     S     0.61445   0.44931   0.02961   0.01267  Uiso   1.00
S5     S     0.59337   0.05069   0.47039   0.01267  Uiso   1.00
S6     S     0.88555   0.59337   0.47039   0.01267  Uiso   1.00
S7     S     0.90663   0.61445   0.02961   0.01267  Uiso   1.00
S8     S     0.40663   0.94931   0.52961   0.01267  Uiso   1.00
S9     S     0.09337   0.38555   0.97039   0.01267  Uiso   1.00
S10    S     0.55069   0.09337   0.97039   0.01267  Uiso   1.00
S11    S     0.11445   0.40663   0.52961   0.01267  Uiso   1.00
S12    S     0.44931   0.90663   0.02961   0.01267  Uiso   1.00
O1     O     0.42523   0.30073   0.35081   0.01267  Uiso   1.00
O2     O     0.75000   0.85815   0.75000   0.01267  Uiso   1.00
O3     O     0.81846   0.68026   0.90532   0.01267  Uiso   1.00
O4     O     0.40404   0.18154   0.09468   0.01267  Uiso   1.00
O5     O     0.48480   0.05740   0.17760   0.01267  Uiso   1.00
O6     O     0.85815   0.64185   0.75000   0.01267  Uiso   1.00
O7     O     0.09596   0.18026   0.40532   0.01267  Uiso   1.00
O8     O     0.14327   0.98877   0.32939   0.01267  Uiso   1.00
O9     O     0.07677   0.57477   0.64919   0.01267  Uiso   1.00
O10    O     0.80073   0.92523   0.85081   0.01267  Uiso   1.00
O11    O     0.90404   0.81974   0.59468   0.01267  Uiso   1.00
O12    O     0.42323   0.80073   0.85081   0.01267  Uiso   1.00
O13    O     0.92323   0.42523   0.35081   0.01267  Uiso   1.00
O14    O     0.98480   0.78020   0.67760   0.01267  Uiso   1.00
O15    O     0.92523   0.42323   0.85081   0.01267  Uiso   1.00
O16    O     0.21980   0.44260   0.32240   0.01267  Uiso   1.00
O17    O     0.19927   0.07477   0.14919   0.01267  Uiso   1.00
O18    O     0.07477   0.57677   0.14919   0.01267  Uiso   1.00
O19    O     0.64185   0.75000   0.75000   0.01267  Uiso   1.00
O20    O     0.71980   0.51520   0.82240   0.01267  Uiso   1.00
O21    O     0.98877   0.53857   0.32939   0.01267  Uiso   1.00
O22    O     0.44260   0.01520   0.32240   0.01267  Uiso   1.00
O23    O     0.68026   0.59596   0.90532   0.01267  Uiso   1.00
O24    O     0.57677   0.19927   0.14919   0.01267  Uiso   1.00
O25    O     0.03857   0.48877   0.82939   0.01267  Uiso   1.00
O26    O     0.25000   0.14185   0.25000   0.01267  Uiso   1.00
O27    O     0.28020   0.48480   0.17760   0.01267  Uiso   1.00
O28    O     0.46143   0.85673   0.67061   0.01267  Uiso   1.00
O29    O     0.55740   0.98480   0.67760   0.01267  Uiso   1.00
O30    O     0.85673   0.01123   0.67061   0.01267  Uiso   1.00
O31    O     0.51123   0.35673   0.17061   0.01267  Uiso   1.00
O32    O     0.31974   0.40404   0.09468   0.01267  Uiso   1.00
O33    O     0.48877   0.64327   0.82939   0.01267  Uiso   1.00
O34    O     0.31846   0.09596   0.40532   0.01267  Uiso   1.00
O35    O     0.01123   0.46143   0.67061   0.01267  Uiso   1.00
O36    O     0.57477   0.69927   0.64919   0.01267  Uiso   1.00
O37    O     0.78020   0.55740   0.67760   0.01267  Uiso   1.00
O38    O     0.69927   0.07677   0.64919   0.01267  Uiso   1.00
O39    O     0.35673   0.96143   0.17061   0.01267  Uiso   1.00
O40    O     0.18154   0.31974   0.09468   0.01267  Uiso   1.00
O41    O     0.18026   0.31846   0.40532   0.01267  Uiso   1.00
O42    O     0.59596   0.81846   0.90532   0.01267  Uiso   1.00
O43    O     0.35815   0.25000   0.25000   0.01267  Uiso   1.00
O44    O     0.94260   0.71980   0.82240   0.01267  Uiso   1.00
O45    O     0.51520   0.94260   0.82240   0.01267  Uiso   1.00
O46    O     0.14185   0.35815   0.25000   0.01267  Uiso   1.00
O47    O     0.05740   0.28020   0.17760   0.01267  Uiso   1.00
O48    O     0.96143   0.51123   0.17061   0.01267  Uiso   1.00
O49    O     0.01520   0.21980   0.32240   0.01267  Uiso   1.00
O50    O     0.30073   0.92323   0.35081   0.01267  Uiso   1.00
O51    O     0.53857   0.14327   0.32939   0.01267  Uiso   1.00
O52    O     0.81974   0.68154   0.59468   0.01267  Uiso   1.00
O53    O     0.64327   0.03857   0.82939   0.01267  Uiso   1.00
O54    O     0.68154   0.90404   0.59468   0.01267  Uiso   1.00
