data_BOMCUB_charged
_audit_creation_date              2014-07-02
_audit_creation_method            'Materials Studio'
_symmetry_space_group_name_H-M    'P1'
_symmetry_Int_Tables_number       1
_symmetry_cell_setting            triclinic
loop_
_symmetry_equiv_pos_as_xyz
  x,y,z
_cell_length_a                    9.0250
_cell_length_b                    9.0250
_cell_length_c                    11.3430
_cell_angle_alpha                 90.0000
_cell_angle_beta                  90.0000
_cell_angle_gamma                 120.0000
loop_
_atom_site_label
_atom_site_type_symbol
_atom_site_fract_x
_atom_site_fract_y
_atom_site_fract_z
_atom_site_U_iso_or_equiv
_atom_site_adp_type
_atom_site_occupancy
In1    In    0.50000  -0.00000   0.66667   0.01267  Uiso   1.00
In2    In    0.50000   0.50000   0.00000   0.01267  Uiso   1.00
In3    In    0.00000   0.50000   0.33333   0.01267  Uiso   1.00
C1     C     0.78905   0.21095   0.50000   0.01267  Uiso   1.00
C2     C     0.69025   0.30975   0.50000   0.01267  Uiso   1.00
C3     C     0.42190   0.21095   0.83333   0.01267  Uiso   1.00
C4     C     0.61950   0.30975   0.83333   0.01267  Uiso   1.00
C5     C     0.78905   0.57810   0.16667   0.01267  Uiso   1.00
C6     C     0.69025   0.38050   0.16667   0.01267  Uiso   1.00
C7     C     0.21095   0.78905   0.50000   0.01267  Uiso   1.00
C8     C     0.30975   0.69025   0.50000   0.01267  Uiso   1.00
C9     C     0.57810   0.78905   0.83333   0.01267  Uiso   1.00
C10    C     0.38050   0.69025   0.83333   0.01267  Uiso   1.00
C11    C     0.21095   0.42190   0.16667   0.01267  Uiso   1.00
C12    C     0.30975   0.61950   0.16667   0.01267  Uiso   1.00
O1     O     0.73190   0.07870   0.56140   0.01267  Uiso   1.00
O2     O     0.55310   0.24140   0.55540   0.01267  Uiso   1.00
O3     O     0.34680   0.26810   0.89473   0.01267  Uiso   1.00
O4     O     0.68830   0.44690   0.88873   0.01267  Uiso   1.00
O5     O     0.92130   0.65320   0.22807   0.01267  Uiso   1.00
O6     O     0.75860   0.31170   0.22207   0.01267  Uiso   1.00
O7     O     0.26810   0.92130   0.56140   0.01267  Uiso   1.00
O8     O     0.44690   0.75860   0.55540   0.01267  Uiso   1.00
O9     O     0.65320   0.73190   0.89473   0.01267  Uiso   1.00
O10    O     0.31170   0.55310   0.88873   0.01267  Uiso   1.00
O11    O     0.07870   0.34680   0.22807   0.01267  Uiso   1.00
O12    O     0.24140   0.68830   0.22207   0.01267  Uiso   1.00
O13    O     0.65320   0.92130   0.77193   0.01267  Uiso   1.00
O14    O     0.31170   0.75860   0.77793   0.01267  Uiso   1.00
O15    O     0.07870   0.73190   0.43860   0.01267  Uiso   1.00
O16    O     0.24140   0.55310   0.44460   0.01267  Uiso   1.00
O17    O     0.26810   0.34680   0.10527   0.01267  Uiso   1.00
O18    O     0.44690   0.68830   0.11127   0.01267  Uiso   1.00
O19    O     0.34680   0.07870   0.77193   0.01267  Uiso   1.00
O20    O     0.68830   0.24140   0.77793   0.01267  Uiso   1.00
O21    O     0.92130   0.26810   0.43860   0.01267  Uiso   1.00
O22    O     0.75860   0.44690   0.44460   0.01267  Uiso   1.00
O23    O     0.73190   0.65320   0.10527   0.01267  Uiso   1.00
O24    O     0.55310   0.31170   0.11127   0.01267  Uiso   1.00
H1     H     0.89580   0.97210   0.05260   0.01267  Uiso   1.00
H2     H     0.10420   0.02790   0.05260   0.01267  Uiso   1.00
H3     H     0.97210   0.89580   0.94740   0.01267  Uiso   1.00
H4     H     0.02790   0.10420   0.94740   0.01267  Uiso   1.00
N1     N     0.00000   0.00000   0.00000   0.01267  Uiso   1.00
H5     H     0.07630   0.10420   0.38593   0.01267  Uiso   1.00
H6     H     0.92370   0.89580   0.38593   0.01267  Uiso   1.00
H7     H     0.92370   0.02790   0.28073   0.01267  Uiso   1.00
H8     H     0.07630   0.97210   0.28073   0.01267  Uiso   1.00
N2     N     0.00000   0.00000   0.33333   0.01267  Uiso   1.00
H9     H     0.02790   0.92370   0.71927   0.01267  Uiso   1.00
H10    H     0.97210   0.07630   0.71927   0.01267  Uiso   1.00
H11    H     0.10420   0.07630   0.61407   0.01267  Uiso   1.00
H12    H     0.89580   0.92370   0.61407   0.01267  Uiso   1.00
N3     N     0.00000   0.00000   0.66667   0.01267  Uiso   1.00
