data_BONNIC_clean
_audit_creation_date              2014-07-02
_audit_creation_method            'Materials Studio'
_symmetry_space_group_name_H-M    'P1'
_symmetry_Int_Tables_number       1
_symmetry_cell_setting            triclinic
loop_
_symmetry_equiv_pos_as_xyz
  x,y,z
_cell_length_a                    10.4297
_cell_length_b                    11.2190
_cell_length_c                    11.2190
_cell_angle_alpha                 98.5086
_cell_angle_beta                  109.5920
_cell_angle_gamma                 109.5920
loop_
_atom_site_label
_atom_site_type_symbol
_atom_site_fract_x
_atom_site_fract_y
_atom_site_fract_z
_atom_site_U_iso_or_equiv
_atom_site_adp_type
_atom_site_occupancy
Cd1    Cd    0.25094   0.97483   0.06675   0.01267  Uiso   1.00
Cd2    Cd    0.75094   0.06675   0.97483   0.01267  Uiso   1.00
H1     H     0.12930   0.20970   0.04010   0.01267  Uiso   1.00
H2     H     0.17800   0.40610   0.98430   0.01267  Uiso   1.00
H3     H     0.35980   0.47440   0.90080   0.01267  Uiso   1.00
H4     H     0.41890   0.78350   0.03250   0.01267  Uiso   1.00
H5     H     0.50300   0.63790   0.12650   0.01267  Uiso   1.00
H6     H     0.29920   0.66880   0.37060   0.01267  Uiso   1.00
H7     H     0.23450   0.82290   0.28050   0.01267  Uiso   1.00
H8     H     0.38830   0.48800   0.35200   0.01267  Uiso   1.00
H9     H     0.48040   0.48470   0.26310   0.01267  Uiso   1.00
H10    H     0.68180   0.68560   0.42140   0.01267  Uiso   1.00
H11    H     0.59080   0.67950   0.51170   0.01267  Uiso   1.00
H12    H     0.70960   0.49120   0.45760   0.01267  Uiso   1.00
H13    H     0.61160   0.47840   0.54260   0.01267  Uiso   1.00
H14    H     0.94920   0.72470   0.55010   0.01267  Uiso   1.00
H15    H     0.14800   0.87410   0.74090   0.01267  Uiso   1.00
H16    H     0.95640   0.71660   0.96160   0.01267  Uiso   1.00
H17    H     0.74790   0.56760   0.77680   0.01267  Uiso   1.00
H18    H     0.62930   0.04010   0.20970   0.01267  Uiso   1.00
H19    H     0.67800   0.98430   0.40610   0.01267  Uiso   1.00
H20    H     0.85980   0.90080   0.47440   0.01267  Uiso   1.00
H21    H     0.91890   0.03250   0.78350   0.01267  Uiso   1.00
H22    H     0.00300   0.12650   0.63790   0.01267  Uiso   1.00
H23    H     0.79920   0.37060   0.66880   0.01267  Uiso   1.00
H24    H     0.73450   0.28050   0.82290   0.01267  Uiso   1.00
H25    H     0.88830   0.35200   0.48800   0.01267  Uiso   1.00
H26    H     0.98040   0.26310   0.48470   0.01267  Uiso   1.00
H27    H     0.18180   0.42140   0.68560   0.01267  Uiso   1.00
H28    H     0.09080   0.51170   0.67950   0.01267  Uiso   1.00
H29    H     0.20960   0.45760   0.49120   0.01267  Uiso   1.00
H30    H     0.11160   0.54260   0.47840   0.01267  Uiso   1.00
H31    H     0.44920   0.55010   0.72470   0.01267  Uiso   1.00
H32    H     0.64800   0.74090   0.87410   0.01267  Uiso   1.00
H33    H     0.45640   0.96160   0.71660   0.01267  Uiso   1.00
H34    H     0.24790   0.77680   0.56760   0.01267  Uiso   1.00
C1     C     0.20500   0.23885   0.00865   0.01267  Uiso   1.00
C2     C     0.23210   0.35484   0.97456   0.01267  Uiso   1.00
C3     C     0.34000   0.39499   0.92573   0.01267  Uiso   1.00
C4     C     0.41990   0.31942   0.91286   0.01267  Uiso   1.00
C5     C     0.53420   0.36813   0.85507   0.01267  Uiso   1.00
C6     C     0.38910   0.20577   0.95439   0.01267  Uiso   1.00
C7     C     0.47980   0.12346   0.96140   0.01267  Uiso   1.00
C8     C     0.39720   0.76201   0.10439   0.01267  Uiso   1.00
C9     C     0.44560   0.67294   0.15846   0.01267  Uiso   1.00
C10    C     0.40910   0.63539   0.26029   0.01267  Uiso   1.00
C11    C     0.32800   0.69239   0.30261   0.01267  Uiso   1.00
C12    C     0.28810   0.78340   0.24740   0.01267  Uiso   1.00
C13    C     0.46410   0.54373   0.32587   0.01267  Uiso   1.00
C14    C     0.61030   0.62475   0.44805   0.01267  Uiso   1.00
C15    C     0.68310   0.54204   0.51816   0.01267  Uiso   1.00
C16    C     0.82170   0.63084   0.64076   0.01267  Uiso   1.00
C17    C     0.94650   0.72312   0.63368   0.01267  Uiso   1.00
C18    C     0.06530   0.81145   0.74815   0.01267  Uiso   1.00
C19    C     0.95300   0.72026   0.87654   0.01267  Uiso   1.00
C20    C     0.82850   0.63001   0.76659   0.01267  Uiso   1.00
C21    C     0.70500   0.00865   0.23885   0.01267  Uiso   1.00
C22    C     0.73210   0.97456   0.35484   0.01267  Uiso   1.00
C23    C     0.84000   0.92573   0.39499   0.01267  Uiso   1.00
C24    C     0.91990   0.91286   0.31942   0.01267  Uiso   1.00
C25    C     0.03420   0.85507   0.36813   0.01267  Uiso   1.00
C26    C     0.88910   0.95439   0.20577   0.01267  Uiso   1.00
C27    C     0.97980   0.96140   0.12346   0.01267  Uiso   1.00
C28    C     0.89720   0.10439   0.76201   0.01267  Uiso   1.00
C29    C     0.94560   0.15846   0.67294   0.01267  Uiso   1.00
C30    C     0.90910   0.26029   0.63539   0.01267  Uiso   1.00
C31    C     0.82800   0.30261   0.69239   0.01267  Uiso   1.00
C32    C     0.78810   0.24740   0.78340   0.01267  Uiso   1.00
C33    C     0.96410   0.32587   0.54373   0.01267  Uiso   1.00
C34    C     0.11030   0.44805   0.62475   0.01267  Uiso   1.00
C35    C     0.18310   0.51816   0.54204   0.01267  Uiso   1.00
C36    C     0.32170   0.64076   0.63084   0.01267  Uiso   1.00
C37    C     0.44650   0.63368   0.72312   0.01267  Uiso   1.00
C38    C     0.56530   0.74815   0.81145   0.01267  Uiso   1.00
C39    C     0.45300   0.87654   0.72026   0.01267  Uiso   1.00
C40    C     0.32850   0.76659   0.63001   0.01267  Uiso   1.00
N1     N     0.28120   0.16534   0.99922   0.01267  Uiso   1.00
N2     N     0.32190   0.81866   0.14870   0.01267  Uiso   1.00
N3     N     0.06960   0.81307   0.86933   0.01267  Uiso   1.00
N4     N     0.78120   0.99922   0.16534   0.01267  Uiso   1.00
N5     N     0.82190   0.14870   0.81866   0.01267  Uiso   1.00
N6     N     0.56960   0.86933   0.81307   0.01267  Uiso   1.00
O1     O     0.43883   0.01820   0.99068   0.01267  Uiso   1.00
O2     O     0.59487   0.17070   0.93990   0.01267  Uiso   1.00
O3     O     0.65521   0.46324   0.93152   0.01267  Uiso   1.00
O4     O     0.49390   0.31668   0.73484   0.01267  Uiso   1.00
O5     O     0.93883   0.99068   0.01820   0.01267  Uiso   1.00
O6     O     0.09487   0.93990   0.17070   0.01267  Uiso   1.00
O7     O     0.15521   0.93152   0.46324   0.01267  Uiso   1.00
O8     O     0.99390   0.73484   0.31668   0.01267  Uiso   1.00
