data_BONWIL_clean
_audit_creation_date              2014-07-02
_audit_creation_method            'Materials Studio'
_symmetry_space_group_name_H-M    'P1'
_symmetry_Int_Tables_number       1
_symmetry_cell_setting            triclinic
loop_
_symmetry_equiv_pos_as_xyz
  x,y,z
_cell_length_a                    9.2732
_cell_length_b                    14.3218
_cell_length_c                    16.9792
_cell_angle_alpha                 98.6590
_cell_angle_beta                  90.0000
_cell_angle_gamma                 108.8890
loop_
_atom_site_label
_atom_site_type_symbol
_atom_site_fract_x
_atom_site_fract_y
_atom_site_fract_z
_atom_site_U_iso_or_equiv
_atom_site_adp_type
_atom_site_occupancy
Zn1    Zn    0.97035   0.34620   0.34233   0.01267  Uiso   1.00
Zn2    Zn    0.56606   0.34474   0.54949   0.01267  Uiso   1.00
Zn3    Zn    0.62415   0.65380   0.15767   0.01267  Uiso   1.00
Zn4    Zn    0.22132   0.65526   0.95051   0.01267  Uiso   1.00
Zn5    Zn    0.02965   0.65380   0.65767   0.01267  Uiso   1.00
Zn6    Zn    0.43394   0.65526   0.45051   0.01267  Uiso   1.00
Zn7    Zn    0.37585   0.34620   0.84233   0.01267  Uiso   1.00
Zn8    Zn    0.77868   0.34474   0.04949   0.01267  Uiso   1.00
H1     H     0.14850   0.25580   0.36770   0.01267  Uiso   1.00
H2     H     0.06700   0.31180   0.39720   0.01267  Uiso   1.00
H3     H     0.68200   0.47500   0.32540   0.01267  Uiso   1.00
H4     H     0.89610   0.59380   0.44710   0.01267  Uiso   1.00
H5     H     0.03830   0.69900   0.36830   0.01267  Uiso   1.00
H6     H     0.05470   0.56200   0.25650   0.01267  Uiso   1.00
H7     H     0.62520   0.26280   0.27310   0.01267  Uiso   1.00
H8     H     0.46620   0.13000   0.18820   0.01267  Uiso   1.00
H9     H     0.81540   0.02500   0.15180   0.01267  Uiso   1.00
H10    H     0.96090   0.15860   0.24120   0.01267  Uiso   1.00
H11    H     0.17130   0.83220   0.06000   0.01267  Uiso   1.00
H12    H     0.31610   0.97220   0.14420   0.01267  Uiso   1.00
H13    H     0.68920   0.93640   0.04400   0.01267  Uiso   1.00
H14    H     0.53440   0.79620   0.96330   0.01267  Uiso   1.00
H15    H     0.89270   0.74420   0.13230   0.01267  Uiso   1.00
H16    H     0.75520   0.68820   0.10280   0.01267  Uiso   1.00
H17    H     0.20700   0.52500   0.17460   0.01267  Uiso   1.00
H18    H     0.30230   0.40620   0.05290   0.01267  Uiso   1.00
H19    H     0.33930   0.30100   0.13170   0.01267  Uiso   1.00
H20    H     0.49270   0.43800   0.24350   0.01267  Uiso   1.00
H21    H     0.36240   0.73720   0.22690   0.01267  Uiso   1.00
H22    H     0.33620   0.87000   0.31180   0.01267  Uiso   1.00
H23    H     0.79040   0.97500   0.34820   0.01267  Uiso   1.00
H24    H     0.80230   0.84140   0.25880   0.01267  Uiso   1.00
H25    H     0.33910   0.16780   0.44000   0.01267  Uiso   1.00
H26    H     0.34390   0.02780   0.35580   0.01267  Uiso   1.00
H27    H     0.75280   0.06360   0.45600   0.01267  Uiso   1.00
H28    H     0.73820   0.20380   0.53670   0.01267  Uiso   1.00
H29    H     0.85150   0.74420   0.63230   0.01267  Uiso   1.00
H30    H     0.93300   0.68820   0.60280   0.01267  Uiso   1.00
H31    H     0.31800   0.52500   0.67460   0.01267  Uiso   1.00
H32    H     0.10390   0.40620   0.55290   0.01267  Uiso   1.00
H33    H     0.96170   0.30100   0.63170   0.01267  Uiso   1.00
H34    H     0.94530   0.43800   0.74350   0.01267  Uiso   1.00
H35    H     0.37480   0.73720   0.72690   0.01267  Uiso   1.00
H36    H     0.53380   0.87000   0.81180   0.01267  Uiso   1.00
H37    H     0.18460   0.97500   0.84820   0.01267  Uiso   1.00
H38    H     0.03910   0.84140   0.75880   0.01267  Uiso   1.00
H39    H     0.82870   0.16780   0.94000   0.01267  Uiso   1.00
H40    H     0.68390   0.02780   0.85580   0.01267  Uiso   1.00
H41    H     0.31080   0.06360   0.95600   0.01267  Uiso   1.00
H42    H     0.46560   0.20380   0.03670   0.01267  Uiso   1.00
H43    H     0.10730   0.25580   0.86770   0.01267  Uiso   1.00
H44    H     0.24480   0.31180   0.89720   0.01267  Uiso   1.00
H45    H     0.79300   0.47500   0.82540   0.01267  Uiso   1.00
H46    H     0.69770   0.59380   0.94710   0.01267  Uiso   1.00
H47    H     0.66070   0.69900   0.86830   0.01267  Uiso   1.00
H48    H     0.50730   0.56200   0.75650   0.01267  Uiso   1.00
H49    H     0.63760   0.26280   0.77310   0.01267  Uiso   1.00
H50    H     0.66380   0.13000   0.68820   0.01267  Uiso   1.00
H51    H     0.20960   0.02500   0.65180   0.01267  Uiso   1.00
H52    H     0.19770   0.15860   0.74120   0.01267  Uiso   1.00
H53    H     0.66090   0.83220   0.56000   0.01267  Uiso   1.00
H54    H     0.65610   0.97220   0.64420   0.01267  Uiso   1.00
H55    H     0.24720   0.93640   0.54400   0.01267  Uiso   1.00
H56    H     0.26180   0.79620   0.46330   0.01267  Uiso   1.00
C1     C     0.77403   0.48406   0.35810   0.01267  Uiso   1.00
C2     C     0.83865   0.59310   0.39840   0.01267  Uiso   1.00
C3     C     0.95682   0.64164   0.33974   0.01267  Uiso   1.00
C4     C     0.01800   0.55580   0.31025   0.01267  Uiso   1.00
C5     C     0.73516   0.41212   0.41823   0.01267  Uiso   1.00
C6     C     0.72523   0.64686   0.42302   0.01267  Uiso   1.00
C7     C     0.89192   0.67104   0.26765   0.01267  Uiso   1.00
C8     C     0.14879   0.55538   0.36618   0.01267  Uiso   1.00
C9     C     0.66375   0.21390   0.24888   0.01267  Uiso   1.00
C10    C     0.56691   0.13382   0.19754   0.01267  Uiso   1.00
C11    C     0.62018   0.05916   0.15983   0.01267  Uiso   1.00
C12    C     0.77243   0.07146   0.17640   0.01267  Uiso   1.00
C13    C     0.86019   0.15318   0.22960   0.01267  Uiso   1.00
C14    C     0.27689   0.85298   0.05722   0.01267  Uiso   1.00
C15    C     0.36333   0.93746   0.10800   0.01267  Uiso   1.00
C16    C     0.52175   0.97030   0.10465   0.01267  Uiso   1.00
C17    C     0.58416   0.91632   0.04893   0.01267  Uiso   1.00
C18    C     0.49006   0.83192   0.00029   0.01267  Uiso   1.00
C19    C     0.28997   0.51594   0.14190   0.01267  Uiso   1.00
C20    C     0.24555   0.40690   0.10160   0.01267  Uiso   1.00
C21    C     0.31518   0.35836   0.16026   0.01267  Uiso   1.00
C22    C     0.46220   0.44420   0.18975   0.01267  Uiso   1.00
C23    C     0.32304   0.58788   0.08177   0.01267  Uiso   1.00
C24    C     0.07837   0.35314   0.07698   0.01267  Uiso   1.00
C25    C     0.22088   0.32896   0.23235   0.01267  Uiso   1.00
C26    C     0.59341   0.44462   0.13382   0.01267  Uiso   1.00
C27    C     0.44985   0.78610   0.25112   0.01267  Uiso   1.00
C28    C     0.43309   0.86618   0.30246   0.01267  Uiso   1.00
C29    C     0.56102   0.94084   0.34017   0.01267  Uiso   1.00
C30    C     0.70097   0.92854   0.32360   0.01267  Uiso   1.00
C31    C     0.70701   0.84682   0.27040   0.01267  Uiso   1.00
C32    C     0.42391   0.14702   0.44278   0.01267  Uiso   1.00
C33    C     0.42587   0.06254   0.39200   0.01267  Uiso   1.00
C34    C     0.55145   0.02970   0.39535   0.01267  Uiso   1.00
C35    C     0.66784   0.08368   0.45107   0.01267  Uiso   1.00
C36    C     0.65814   0.16808   0.49971   0.01267  Uiso   1.00
C37    C     0.22597   0.51594   0.64190   0.01267  Uiso   1.00
C38    C     0.16135   0.40690   0.60160   0.01267  Uiso   1.00
C39    C     0.04318   0.35836   0.66026   0.01267  Uiso   1.00
C40    C     0.98200   0.44420   0.68975   0.01267  Uiso   1.00
C41    C     0.26484   0.58788   0.58177   0.01267  Uiso   1.00
C42    C     0.27477   0.35314   0.57698   0.01267  Uiso   1.00
C43    C     0.10808   0.32896   0.73235   0.01267  Uiso   1.00
C44    C     0.85121   0.44462   0.63382   0.01267  Uiso   1.00
C45    C     0.33625   0.78610   0.75112   0.01267  Uiso   1.00
C46    C     0.43309   0.86618   0.80246   0.01267  Uiso   1.00
C47    C     0.37982   0.94084   0.84017   0.01267  Uiso   1.00
C48    C     0.22757   0.92854   0.82360   0.01267  Uiso   1.00
C49    C     0.13981   0.84682   0.77040   0.01267  Uiso   1.00
C50    C     0.72311   0.14702   0.94278   0.01267  Uiso   1.00
C51    C     0.63667   0.06254   0.89200   0.01267  Uiso   1.00
C52    C     0.47825   0.02970   0.89535   0.01267  Uiso   1.00
C53    C     0.41584   0.08368   0.95107   0.01267  Uiso   1.00
C54    C     0.50994   0.16808   0.99971   0.01267  Uiso   1.00
C55    C     0.71003   0.48406   0.85810   0.01267  Uiso   1.00
C56    C     0.75445   0.59310   0.89840   0.01267  Uiso   1.00
C57    C     0.68482   0.64164   0.83974   0.01267  Uiso   1.00
C58    C     0.53780   0.55580   0.81025   0.01267  Uiso   1.00
C59    C     0.67696   0.41212   0.91823   0.01267  Uiso   1.00
C60    C     0.92163   0.64686   0.92302   0.01267  Uiso   1.00
C61    C     0.77912   0.67104   0.76765   0.01267  Uiso   1.00
C62    C     0.40659   0.55538   0.86618   0.01267  Uiso   1.00
C63    C     0.55015   0.21390   0.74888   0.01267  Uiso   1.00
C64    C     0.56691   0.13382   0.69754   0.01267  Uiso   1.00
C65    C     0.43898   0.05916   0.65983   0.01267  Uiso   1.00
C66    C     0.29903   0.07146   0.67640   0.01267  Uiso   1.00
C67    C     0.29299   0.15318   0.72960   0.01267  Uiso   1.00
C68    C     0.57609   0.85298   0.55722   0.01267  Uiso   1.00
C69    C     0.57413   0.93746   0.60800   0.01267  Uiso   1.00
C70    C     0.44855   0.97030   0.60465   0.01267  Uiso   1.00
C71    C     0.33216   0.91632   0.54893   0.01267  Uiso   1.00
C72    C     0.34186   0.83192   0.50029   0.01267  Uiso   1.00
N1     N     0.80811   0.22462   0.26538   0.01267  Uiso   1.00
N2     N     0.33851   0.79962   0.00413   0.01267  Uiso   1.00
N3     N     0.58349   0.77538   0.23462   0.01267  Uiso   1.00
N4     N     0.53889   0.20038   0.49587   0.01267  Uiso   1.00
N5     N     0.19189   0.77538   0.73462   0.01267  Uiso   1.00
N6     N     0.66149   0.20038   0.99587   0.01267  Uiso   1.00
N7     N     0.41651   0.22462   0.76538   0.01267  Uiso   1.00
N8     N     0.46111   0.79962   0.50413   0.01267  Uiso   1.00
O1     O     0.89030   0.46558   0.30689   0.01267  Uiso   1.00
O2     O     0.06937   0.25474   0.38958   0.01267  Uiso   1.00
O3     O     0.81133   0.35566   0.42491   0.01267  Uiso   1.00
O4     O     0.62274   0.41588   0.45834   0.01267  Uiso   1.00
O5     O     0.58563   0.60402   0.40084   0.01267  Uiso   1.00
O6     O     0.77712   0.73044   0.46620   0.01267  Uiso   1.00
O7     O     0.75130   0.63640   0.25255   0.01267  Uiso   1.00
O8     O     0.98707   0.72734   0.22858   0.01267  Uiso   1.00
O9     O     0.26224   0.63486   0.37429   0.01267  Uiso   1.00
O10    O     0.13468   0.48136   0.39870   0.01267  Uiso   1.00
O11    O     0.42472   0.53442   0.19311   0.01267  Uiso   1.00
O12    O     0.81463   0.74526   0.11042   0.01267  Uiso   1.00
O13    O     0.45567   0.64434   0.07509   0.01267  Uiso   1.00
O14    O     0.20686   0.58412   0.04166   0.01267  Uiso   1.00
O15    O     0.98161   0.39598   0.09916   0.01267  Uiso   1.00
O16    O     0.04668   0.26956   0.03380   0.01267  Uiso   1.00
O17    O     0.11490   0.36360   0.24745   0.01267  Uiso   1.00
O18    O     0.25973   0.27266   0.27142   0.01267  Uiso   1.00
O19    O     0.62738   0.36514   0.12571   0.01267  Uiso   1.00
O20    O     0.65332   0.51864   0.10130   0.01267  Uiso   1.00
O21    O     0.10970   0.53442   0.69311   0.01267  Uiso   1.00
O22    O     0.93063   0.74526   0.61042   0.01267  Uiso   1.00
O23    O     0.18867   0.64434   0.57509   0.01267  Uiso   1.00
O24    O     0.37726   0.58412   0.54166   0.01267  Uiso   1.00
O25    O     0.41437   0.39598   0.59916   0.01267  Uiso   1.00
O26    O     0.22288   0.26956   0.53380   0.01267  Uiso   1.00
O27    O     0.24870   0.36360   0.74745   0.01267  Uiso   1.00
O28    O     0.01293   0.27266   0.77142   0.01267  Uiso   1.00
O29    O     0.73776   0.36514   0.62571   0.01267  Uiso   1.00
O30    O     0.86532   0.51864   0.60130   0.01267  Uiso   1.00
O31    O     0.57528   0.46558   0.80689   0.01267  Uiso   1.00
O32    O     0.18537   0.25474   0.88958   0.01267  Uiso   1.00
O33    O     0.54433   0.35566   0.92491   0.01267  Uiso   1.00
O34    O     0.79314   0.41588   0.95834   0.01267  Uiso   1.00
O35    O     0.01839   0.60402   0.90084   0.01267  Uiso   1.00
O36    O     0.95332   0.73044   0.96620   0.01267  Uiso   1.00
O37    O     0.88510   0.63640   0.75255   0.01267  Uiso   1.00
O38    O     0.74027   0.72734   0.72858   0.01267  Uiso   1.00
O39    O     0.37262   0.63486   0.87429   0.01267  Uiso   1.00
O40    O     0.34668   0.48136   0.89870   0.01267  Uiso   1.00
