data_image0
_cell_length_a       11.2195
_cell_length_b       15.817
_cell_length_c       18.0989
_cell_angle_alpha    102.099
_cell_angle_beta     96.385
_cell_angle_gamma    98.947

_symmetry_space_group_name_H-M    "P 1"
_symmetry_int_tables_number       1

loop_
  _symmetry_equiv_pos_as_xyz
  'x, y, z'

loop_
  _atom_site_label
  _atom_site_occupancy
  _atom_site_fract_x
  _atom_site_fract_y
  _atom_site_fract_z
  _atom_site_thermal_displace_type
  _atom_site_B_iso_or_equiv
  _atom_site_type_symbol
  Cd1      1.0000 0.73090  0.25003  0.63584  Biso   1.000  Cd
  Cd2      1.0000 0.64148  0.67881  0.88470  Biso   1.000  Cd
  O1       1.0000 0.52990  0.21040  0.59080  Biso   1.000  O
  O2       1.0000 0.54410  0.35060  0.63760  Biso   1.000  O
  O3       1.0000 0.93340  0.18890  0.63870  Biso   1.000  O
  O4       1.0000 0.77350  0.13490  0.55020  Biso   1.000  O
  O5       1.0000 0.67700  0.15490  0.72960  Biso   1.000  O
  O6       1.0000 0.76030  0.29370  0.76470  Biso   1.000  O
  O7       1.0000 0.40800  0.21530  0.01780  Biso   1.000  O
  O8       1.0000 0.43650  0.19250  0.13260  Biso   1.000  O
  O9       1.0000 0.81830  0.33480  0.56790  Biso   1.000  O
  O10      1.0000 0.81140  0.44980  0.65100  Biso   1.000  O
  O11      1.0000 0.72900  0.63680  0.77360  Biso   1.000  O
  O12      1.0000 0.84460  0.73640  0.86910  Biso   1.000  O
  O13      1.0000 0.46770  0.53070  0.74730  Biso   1.000  O
  O14      1.0000 0.46380  0.59260  0.86710  Biso   1.000  O
  O15      1.0000 0.19640  0.33640  0.95510  Biso   1.000  O
  O16      1.0000 0.27000  0.42210  0.06810  Biso   1.000  O
  C1       1.0000 0.34930  0.26820  0.57520  Biso   1.000  C
  C2       1.0000 0.27090  0.18730  0.56380  Biso   1.000  C
  H1       1.0000 0.30240  0.13910  0.57390  Biso   1.000  H
  C3       1.0000 0.14620  0.17690  0.53750  Biso   1.000  C
  C4       1.0000 0.10200  0.24860  0.52240  Biso   1.000  C
  H2       1.0000 0.01910  0.24340  0.50600  Biso   1.000  H
  C5       1.0000 0.17940  0.32900  0.53130  Biso   1.000  C
  H3       1.0000 0.14810  0.37620  0.51890  Biso   1.000  H
  C6       1.0000 0.30210  0.33960  0.55830  Biso   1.000  C
  H4       1.0000 0.35280  0.39390  0.56520  Biso   1.000  H
  C7       1.0000 0.06810  0.08730  0.52180  Biso   1.000  C
  C8       1.0000 0.94820  0.06960  0.53640  Biso   1.000  C
  C9       1.0000 0.88510  0.98380  0.51520  Biso   1.000  C
  H5       1.0000 0.80600  0.97290  0.52640  Biso   1.000  H
  C10      1.0000 0.48390  0.27720  0.60360  Biso   1.000  C
  C11      1.0000 0.88340  0.13700  0.58010  Biso   1.000  C
  C12      1.0000 0.71750  0.22230  0.78050  Biso   1.000  C
  C13      1.0000 0.71260  0.22170  0.86320  Biso   1.000  C
  C14      1.0000 0.78050  0.29080  0.92120  Biso   1.000  C
  H6       1.0000 0.83190  0.33660  0.90940  Biso   1.000  H
  C15      1.0000 0.76980  0.28980  0.99580  Biso   1.000  C
  H7       1.0000 0.81290  0.33640  0.03450  Biso   1.000  H
  C16      1.0000 0.69650  0.22130  0.01480  Biso   1.000  C
  H8       1.0000 0.69090  0.22220  0.06580  Biso   1.000  H
  C17      1.0000 0.63110  0.15120  0.95800  Biso   1.000  C
  C18      1.0000 0.64130  0.15220  0.88280  Biso   1.000  C
  H9       1.0000 0.59920  0.10510  0.84420  Biso   1.000  H
  C19      1.0000 0.55940  0.07470  0.97860  Biso   1.000  C
  C20      1.0000 0.47710  0.08320  0.03010  Biso   1.000  C
  C21      1.0000 0.41910  0.00900  0.05160  Biso   1.000  C
  H10      1.0000 0.36490  0.01580  0.08690  Biso   1.000  H
  C22      1.0000 0.43890  0.17040  0.06280  Biso   1.000  C
  C23      1.0000 0.84590  0.41350  0.59380  Biso   1.000  C
  C24      1.0000 0.92500  0.46400  0.54790  Biso   1.000  C
  C25      1.0000 0.00700  0.54400  0.57810  Biso   1.000  C
  C26      1.0000 0.07930  0.57650  0.52830  Biso   1.000  C
  H11      1.0000 0.13430  0.62910  0.54780  Biso   1.000  H
  C27      1.0000 0.02400  0.59540  0.65810  Biso   1.000  C
  C28      1.0000 0.13960  0.62250  0.70110  Biso   1.000  C
  H12      1.0000 0.20670  0.60660  0.67950  Biso   1.000  H
  C29      1.0000 0.15730  0.67230  0.77520  Biso   1.000  C
  H13      1.0000 0.23570  0.69040  0.80250  Biso   1.000  H
  C30      1.0000 0.05950  0.69510  0.80870  Biso   1.000  C
  H14      1.0000 0.07160  0.72830  0.85870  Biso   1.000  H
  C31      1.0000 0.94260  0.66880  0.76800  Biso   1.000  C
  C32      1.0000 0.92360  0.62100  0.69150  Biso   1.000  C
  H15      1.0000 0.84580  0.60650  0.66330  Biso   1.000  H
  C33      1.0000 0.83190  0.68340  0.80590  Biso   1.000  C
  C34      1.0000 0.42010  0.54190  0.80550  Biso   1.000  C
  C35      1.0000 0.29320  0.49070  0.80310  Biso   1.000  C
  C36      1.0000 0.23080  0.43600  0.73570  Biso   1.000  C
  H16      1.0000 0.26970  0.42600  0.69280  Biso   1.000  H
  C37      1.0000 0.11180  0.39630  0.73150  Biso   1.000  C
  H17      1.0000 0.07000  0.36070  0.68550  Biso   1.000  H
  C38      1.0000 0.05370  0.40860  0.79500  Biso   1.000  C
  H18      1.0000 0.97210  0.38350  0.79140  Biso   1.000  H
  C39      1.0000 0.11790  0.45900  0.86460  Biso   1.000  C
  C40      1.0000 0.23630  0.49990  0.86770  Biso   1.000  C
  H19      1.0000 0.27900  0.53430  0.91400  Biso   1.000  H
  C41      1.0000 0.95890  0.52250  0.93360  Biso   1.000  C
  H20      1.0000 0.93070  0.53730  0.88860  Biso   1.000  H
  C42      1.0000 0.05670  0.47670  0.93410  Biso   1.000  C
  C43      1.0000 0.09680  0.45390  0.00360  Biso   1.000  C
  C44      1.0000 0.19570  0.39980  0.00780  Biso   1.000  C
  Cd3      1.0000 0.63529  0.49321  0.69717  Biso   1.000  Cd
  Cd4      1.0000 0.26910  0.74997  0.36416  Biso   1.000  Cd
  Cd5      1.0000 0.35852  0.32119  0.11530  Biso   1.000  Cd
  O17      1.0000 0.47010  0.78960  0.40920  Biso   1.000  O
  O18      1.0000 0.45590  0.64940  0.36240  Biso   1.000  O
  O19      1.0000 0.06660  0.81110  0.36130  Biso   1.000  O
  O20      1.0000 0.22650  0.86510  0.44980  Biso   1.000  O
  O21      1.0000 0.32300  0.84510  0.27040  Biso   1.000  O
  O22      1.0000 0.23970  0.70630  0.23530  Biso   1.000  O
  O23      1.0000 0.59200  0.78470  0.98220  Biso   1.000  O
  O24      1.0000 0.56350  0.80750  0.86740  Biso   1.000  O
  O25      1.0000 0.18170  0.66520  0.43210  Biso   1.000  O
  O26      1.0000 0.18860  0.55020  0.34900  Biso   1.000  O
  O27      1.0000 0.27100  0.36320  0.22640  Biso   1.000  O
  O28      1.0000 0.15540  0.26360  0.13090  Biso   1.000  O
  O29      1.0000 0.53230  0.46930  0.25270  Biso   1.000  O
  O30      1.0000 0.53620  0.40740  0.13290  Biso   1.000  O
  O31      1.0000 0.80360  0.66360  0.04490  Biso   1.000  O
  O32      1.0000 0.73000  0.57790  0.93190  Biso   1.000  O
  C45      1.0000 0.65070  0.73180  0.42480  Biso   1.000  C
  C46      1.0000 0.72910  0.81270  0.43620  Biso   1.000  C
  H21      1.0000 0.69760  0.86090  0.42610  Biso   1.000  H
  C47      1.0000 0.85380  0.82310  0.46250  Biso   1.000  C
  C48      1.0000 0.89800  0.75140  0.47760  Biso   1.000  C
  H22      1.0000 0.98090  0.75660  0.49400  Biso   1.000  H
  C49      1.0000 0.82060  0.67100  0.46870  Biso   1.000  C
  H23      1.0000 0.85190  0.62380  0.48110  Biso   1.000  H
  C50      1.0000 0.69790  0.66040  0.44170  Biso   1.000  C
  H24      1.0000 0.64720  0.60610  0.43480  Biso   1.000  H
  C51      1.0000 0.93190  0.91270  0.47820  Biso   1.000  C
  C52      1.0000 0.05180  0.93040  0.46360  Biso   1.000  C
  C53      1.0000 0.11490  0.01620  0.48480  Biso   1.000  C
  H25      1.0000 0.19400  0.02710  0.47360  Biso   1.000  H
  C54      1.0000 0.51610  0.72280  0.39640  Biso   1.000  C
  C55      1.0000 0.11660  0.86300  0.41990  Biso   1.000  C
  C56      1.0000 0.28250  0.77770  0.21950  Biso   1.000  C
  C57      1.0000 0.28740  0.77830  0.13680  Biso   1.000  C
  C58      1.0000 0.21950  0.70920  0.07880  Biso   1.000  C
  H26      1.0000 0.16810  0.66340  0.09060  Biso   1.000  H
  C59      1.0000 0.23020  0.71020  0.00420  Biso   1.000  C
  H27      1.0000 0.18710  0.66360  0.96550  Biso   1.000  H
  C60      1.0000 0.30350  0.77870  0.98520  Biso   1.000  C
  H28      1.0000 0.30910  0.77780  0.93420  Biso   1.000  H
  C61      1.0000 0.36890  0.84880  0.04200  Biso   1.000  C
  C62      1.0000 0.35870  0.84780  0.11720  Biso   1.000  C
  H29      1.0000 0.40080  0.89490  0.15580  Biso   1.000  H
  C63      1.0000 0.44060  0.92530  0.02140  Biso   1.000  C
  C64      1.0000 0.52290  0.91680  0.96990  Biso   1.000  C
  C65      1.0000 0.58090  0.99100  0.94840  Biso   1.000  C
  H30      1.0000 0.63510  0.98420  0.91310  Biso   1.000  H
  C66      1.0000 0.56110  0.82960  0.93720  Biso   1.000  C
  C67      1.0000 0.15410  0.58650  0.40620  Biso   1.000  C
  C68      1.0000 0.07500  0.53600  0.45210  Biso   1.000  C
  C69      1.0000 0.99300  0.45600  0.42190  Biso   1.000  C
  C70      1.0000 0.92070  0.42350  0.47170  Biso   1.000  C
  H31      1.0000 0.86570  0.37090  0.45220  Biso   1.000  H
  C71      1.0000 0.97600  0.40460  0.34190  Biso   1.000  C
  C72      1.0000 0.86040  0.37750  0.29890  Biso   1.000  C
  H32      1.0000 0.79330  0.39340  0.32050  Biso   1.000  H
  C73      1.0000 0.84270  0.32770  0.22480  Biso   1.000  C
  H33      1.0000 0.76430  0.30960  0.19750  Biso   1.000  H
  C74      1.0000 0.94050  0.30490  0.19130  Biso   1.000  C
  H34      1.0000 0.92840  0.27170  0.14130  Biso   1.000  H
  C75      1.0000 0.05740  0.33120  0.23200  Biso   1.000  C
  C76      1.0000 0.07640  0.37900  0.30850  Biso   1.000  C
  H35      1.0000 0.15420  0.39350  0.33670  Biso   1.000  H
  C77      1.0000 0.16810  0.31660  0.19410  Biso   1.000  C
  C78      1.0000 0.57990  0.45810  0.19450  Biso   1.000  C
  C79      1.0000 0.70680  0.50930  0.19690  Biso   1.000  C
  C80      1.0000 0.76920  0.56400  0.26430  Biso   1.000  C
  H36      1.0000 0.73030  0.57400  0.30720  Biso   1.000  H
  C81      1.0000 0.88820  0.60370  0.26850  Biso   1.000  C
  H37      1.0000 0.93000  0.63930  0.31450  Biso   1.000  H
  C82      1.0000 0.94630  0.59140  0.20500  Biso   1.000  C
  H38      1.0000 0.02790  0.61650  0.20860  Biso   1.000  H
  C83      1.0000 0.88210  0.54100  0.13540  Biso   1.000  C
  C84      1.0000 0.76370  0.50010  0.13230  Biso   1.000  C
  H39      1.0000 0.72100  0.46570  0.08600  Biso   1.000  H
  C85      1.0000 0.04110  0.47750  0.06640  Biso   1.000  C
  H40      1.0000 0.06930  0.46270  0.11140  Biso   1.000  H
  C86      1.0000 0.94330  0.52330  0.06590  Biso   1.000  C
  C87      1.0000 0.90320  0.54610  0.99640  Biso   1.000  C
  C88      1.0000 0.80430  0.60020  0.99220  Biso   1.000  C
  Cd6      1.0000 0.36471  0.50679  0.30283  Biso   1.000  Cd
