data_image0
_cell_length_a       21.7025
_cell_length_b       10.0356
_cell_length_c       14.0343
_cell_angle_alpha    90
_cell_angle_beta     91.711
_cell_angle_gamma    90

_symmetry_space_group_name_H-M    "P 1"
_symmetry_int_tables_number       1

loop_
  _symmetry_equiv_pos_as_xyz
  'x, y, z'

loop_
  _atom_site_label
  _atom_site_occupancy
  _atom_site_fract_x
  _atom_site_fract_y
  _atom_site_fract_z
  _atom_site_thermal_displace_type
  _atom_site_B_iso_or_equiv
  _atom_site_type_symbol
  Ho1      1.0000 0.75910  0.56538  0.27170  Biso   1.000  Ho
  Ho2      1.0000 0.74939  0.75242  0.02700  Biso   1.000  Ho
  O1       1.0000 0.71838  0.53820  0.11361  Biso   1.000  O
  O2       1.0000 0.65035  0.51700  0.29930  Biso   1.000  O
  O3       1.0000 0.69847  0.62720  0.40959  Biso   1.000  O
  O4       1.0000 0.81002  0.76290  0.86172  Biso   1.000  O
  O5       1.0000 0.28741  0.26420  0.27770  Biso   1.000  O
  O6       1.0000 0.80809  0.45500  0.39878  Biso   1.000  O
  O7       1.0000 0.81111  0.56690  0.53460  Biso   1.000  O
  O8       1.0000 0.30999  0.40370  0.38730  Biso   1.000  O
  O9       1.0000 0.78404  0.57690  0.92857  Biso   1.000  O
  O10      1.0000 0.65671  0.63330  0.00990  Biso   1.000  O
  O11      1.0000 0.13967  0.48760  0.78532  Biso   1.000  O
  O12      1.0000 0.17742  0.32190  0.86466  Biso   1.000  O
  C1       1.0000 0.64874  0.57540  0.37650  Biso   1.000  C
  C2       1.0000 0.59130  0.58760  0.43360  Biso   1.000  C
  H1       1.0000 0.58760  0.68130  0.45470  Biso   1.000  H
  H2       1.0000 0.59660  0.53190  0.49150  Biso   1.000  H
  C3       1.0000 0.53161  0.54810  0.38320  Biso   1.000  C
  C4       1.0000 0.48822  0.64230  0.35660  Biso   1.000  C
  H3       1.0000 0.49630  0.73370  0.36950  Biso   1.000  H
  C5       1.0000 0.51788  0.41580  0.36480  Biso   1.000  C
  H4       1.0000 0.54680  0.34870  0.38290  Biso   1.000  H
  C6       1.0000 0.82818  0.47570  0.48170  Biso   1.000  C
  C7       1.0000 0.87797  0.38410  0.52200  Biso   1.000  C
  H5       1.0000 0.87100  0.36770  0.59040  Biso   1.000  H
  H6       1.0000 0.87610  0.29740  0.48840  Biso   1.000  H
  C8       1.0000 0.94097  0.44610  0.51070  Biso   1.000  C
  C9       1.0000 0.98335  0.45070  0.58690  Biso   1.000  C
  H7       1.0000 0.97200  0.41730  0.64730  Biso   1.000  H
  C10      1.0000 0.95840  0.49690  0.42350  Biso   1.000  C
  H8       1.0000 0.93000  0.49570  0.37070  Biso   1.000  H
  C11      1.0000 0.13514  0.40750  0.85160  Biso   1.000  C
  C12      1.0000 0.08297  0.40780  0.91830  Biso   1.000  C
  H9       1.0000 0.07930  0.31720  0.94550  Biso   1.000  H
  H10      1.0000 0.09370  0.46890  0.97170  Biso   1.000  H
  C13      1.0000 0.02059  0.44800  0.87720  Biso   1.000  C
  C14      1.0000 0.97549  0.35360  0.86280  Biso   1.000  C
  H11      1.0000 0.98490  0.26260  0.87490  Biso   1.000  H
  C15      1.0000 0.80821  0.63730  0.86090  Biso   1.000  C
  C16      1.0000 0.83705  0.55940  0.78210  Biso   1.000  C
  H12      1.0000 0.83810  0.61450  0.72360  Biso   1.000  H
  H13      1.0000 0.81220  0.47870  0.76770  Biso   1.000  H
  C17      1.0000 0.90212  0.51940  0.81270  Biso   1.000  C
  C18      1.0000 0.94761  0.61430  0.82480  Biso   1.000  C
  H14      1.0000 0.93850  0.70510  0.81140  Biso   1.000  H
  C19      1.0000 0.91703  0.38770  0.83120  Biso   1.000  C
  H15      1.0000 0.88670  0.32030  0.82200  Biso   1.000  H
  C20      1.0000 0.00650  0.57880  0.85640  Biso   1.000  C
  H16      1.0000 0.03740  0.64540  0.86370  Biso   1.000  H
  C21      1.0000 0.66695  0.54230  0.06810  Biso   1.000  C
  C22      1.0000 0.62002  0.43530  0.08360  Biso   1.000  C
  H17      1.0000 0.63490  0.35110  0.05560  Biso   1.000  H
  H18      1.0000 0.61620  0.42100  0.15290  Biso   1.000  H
  C23      1.0000 0.55768  0.46670  0.04090  Biso   1.000  C
  C24      1.0000 0.54366  0.44130  0.94520  Biso   1.000  C
  H19      1.0000 0.57370  0.40060  0.90680  Biso   1.000  H
  C25      1.0000 0.51300  0.52590  0.09470  Biso   1.000  C
  H20      1.0000 0.52150  0.54420  0.16020  Biso   1.000  H
  C26      1.0000 0.31709  0.36240  0.30530  Biso   1.000  C
  C27      1.0000 0.36011  0.43490  0.24170  Biso   1.000  C
  H21      1.0000 0.33920  0.51560  0.21620  Biso   1.000  H
  H22      1.0000 0.36970  0.37690  0.18700  Biso   1.000  H
  C28      1.0000 0.41967  0.47540  0.29240  Biso   1.000  C
  C29      1.0000 0.46268  0.37970  0.32040  Biso   1.000  C
  H23      1.0000 0.45410  0.28820  0.30890  Biso   1.000  H
  C30      1.0000 0.43322  0.60670  0.31150  Biso   1.000  C
  H24      1.0000 0.40430  0.67390  0.29350  Biso   1.000  H
  Ho3      1.0000 0.24090  0.06538  0.22830  Biso   1.000  Ho
  Ho4      1.0000 0.25061  0.25242  0.47300  Biso   1.000  Ho
  O13      1.0000 0.28162  0.03820  0.38639  Biso   1.000  O
  O14      1.0000 0.34965  0.01700  0.20070  Biso   1.000  O
  O15      1.0000 0.30153  0.12720  0.09041  Biso   1.000  O
  O16      1.0000 0.18998  0.26290  0.63828  Biso   1.000  O
  O17      1.0000 0.71259  0.76420  0.22230  Biso   1.000  O
  O18      1.0000 0.19191  0.95500  0.10122  Biso   1.000  O
  O19      1.0000 0.18889  0.06690  0.96540  Biso   1.000  O
  O20      1.0000 0.69001  0.90370  0.11270  Biso   1.000  O
  O21      1.0000 0.21596  0.07690  0.57143  Biso   1.000  O
  O22      1.0000 0.34329  0.13330  0.49010  Biso   1.000  O
  O23      1.0000 0.86033  0.98760  0.71468  Biso   1.000  O
  O24      1.0000 0.82258  0.82190  0.63534  Biso   1.000  O
  C31      1.0000 0.35126  0.07540  0.12350  Biso   1.000  C
  C32      1.0000 0.40870  0.08760  0.06640  Biso   1.000  C
  H25      1.0000 0.41240  0.18130  0.04530  Biso   1.000  H
  H26      1.0000 0.40340  0.03190  0.00850  Biso   1.000  H
  C33      1.0000 0.46839  0.04810  0.11680  Biso   1.000  C
  C34      1.0000 0.51178  0.14230  0.14340  Biso   1.000  C
  H27      1.0000 0.50370  0.23370  0.13050  Biso   1.000  H
  C35      1.0000 0.48212  0.91580  0.13520  Biso   1.000  C
  H28      1.0000 0.45320  0.84870  0.11710  Biso   1.000  H
  C36      1.0000 0.17182  0.97570  0.01830  Biso   1.000  C
  C37      1.0000 0.12203  0.88410  0.97800  Biso   1.000  C
  H29      1.0000 0.12900  0.86770  0.90960  Biso   1.000  H
  H30      1.0000 0.12390  0.79740  0.01160  Biso   1.000  H
  C38      1.0000 0.05903  0.94610  0.98930  Biso   1.000  C
  C39      1.0000 0.01665  0.95070  0.91310  Biso   1.000  C
  H31      1.0000 0.02800  0.91730  0.85270  Biso   1.000  H
  C40      1.0000 0.04160  0.99690  0.07650  Biso   1.000  C
  H32      1.0000 0.07000  0.99570  0.12930  Biso   1.000  H
  C41      1.0000 0.86486  0.90750  0.64840  Biso   1.000  C
  C42      1.0000 0.91703  0.90780  0.58170  Biso   1.000  C
  H33      1.0000 0.92070  0.81720  0.55450  Biso   1.000  H
  H34      1.0000 0.90630  0.96890  0.52830  Biso   1.000  H
  C43      1.0000 0.97941  0.94800  0.62280  Biso   1.000  C
  C44      1.0000 0.02451  0.85360  0.63720  Biso   1.000  C
  H35      1.0000 0.01510  0.76260  0.62510  Biso   1.000  H
  C45      1.0000 0.19179  0.13730  0.63910  Biso   1.000  C
  C46      1.0000 0.16295  0.05940  0.71790  Biso   1.000  C
  H36      1.0000 0.16190  0.11450  0.77640  Biso   1.000  H
  H37      1.0000 0.18780  0.97870  0.73230  Biso   1.000  H
  C47      1.0000 0.09788  0.01940  0.68730  Biso   1.000  C
  C48      1.0000 0.05239  0.11430  0.67520  Biso   1.000  C
  H38      1.0000 0.06150  0.20510  0.68860  Biso   1.000  H
  C49      1.0000 0.08297  0.88770  0.66880  Biso   1.000  C
  H39      1.0000 0.11330  0.82030  0.67800  Biso   1.000  H
  C50      1.0000 0.99350  0.07880  0.64360  Biso   1.000  C
  H40      1.0000 0.96260  0.14540  0.63630  Biso   1.000  H
  C51      1.0000 0.33305  0.04230  0.43190  Biso   1.000  C
  C52      1.0000 0.37998  0.93530  0.41640  Biso   1.000  C
  H41      1.0000 0.36510  0.85110  0.44440  Biso   1.000  H
  H42      1.0000 0.38380  0.92100  0.34710  Biso   1.000  H
  C53      1.0000 0.44232  0.96670  0.45910  Biso   1.000  C
  C54      1.0000 0.45634  0.94130  0.55480  Biso   1.000  C
  H43      1.0000 0.42630  0.90060  0.59320  Biso   1.000  H
  C55      1.0000 0.48700  0.02590  0.40530  Biso   1.000  C
  H44      1.0000 0.47850  0.04420  0.33980  Biso   1.000  H
  C56      1.0000 0.68291  0.86240  0.19470  Biso   1.000  C
  C57      1.0000 0.63989  0.93490  0.25830  Biso   1.000  C
  H45      1.0000 0.66080  0.01560  0.28380  Biso   1.000  H
  H46      1.0000 0.63030  0.87690  0.31300  Biso   1.000  H
  C58      1.0000 0.58033  0.97540  0.20760  Biso   1.000  C
  C59      1.0000 0.53732  0.87970  0.17960  Biso   1.000  C
  H47      1.0000 0.54590  0.78820  0.19110  Biso   1.000  H
  C60      1.0000 0.56678  0.10670  0.18850  Biso   1.000  C
  H48      1.0000 0.59570  0.17390  0.20650  Biso   1.000  H
  Ho5      1.0000 0.24090  0.43462  0.72830  Biso   1.000  Ho
  Ho6      1.0000 0.25061  0.24758  0.97300  Biso   1.000  Ho
  O25      1.0000 0.28162  0.46180  0.88639  Biso   1.000  O
  O26      1.0000 0.34965  0.48300  0.70070  Biso   1.000  O
  O27      1.0000 0.30153  0.37280  0.59041  Biso   1.000  O
  O28      1.0000 0.18998  0.23710  0.13828  Biso   1.000  O
  O29      1.0000 0.71259  0.73580  0.72230  Biso   1.000  O
  O30      1.0000 0.19191  0.54500  0.60122  Biso   1.000  O
  O31      1.0000 0.18889  0.43310  0.46540  Biso   1.000  O
  O32      1.0000 0.69001  0.59630  0.61270  Biso   1.000  O
  O33      1.0000 0.21596  0.42310  0.07143  Biso   1.000  O
  O34      1.0000 0.34329  0.36670  0.99010  Biso   1.000  O
  O35      1.0000 0.86033  0.51240  0.21468  Biso   1.000  O
  O36      1.0000 0.82258  0.67810  0.13534  Biso   1.000  O
  C61      1.0000 0.35126  0.42460  0.62350  Biso   1.000  C
  C62      1.0000 0.40870  0.41240  0.56640  Biso   1.000  C
  H49      1.0000 0.41240  0.31870  0.54530  Biso   1.000  H
  H50      1.0000 0.40340  0.46810  0.50850  Biso   1.000  H
  C63      1.0000 0.46839  0.45190  0.61680  Biso   1.000  C
  C64      1.0000 0.51178  0.35770  0.64340  Biso   1.000  C
  H51      1.0000 0.50370  0.26630  0.63050  Biso   1.000  H
  C65      1.0000 0.48212  0.58420  0.63520  Biso   1.000  C
  H52      1.0000 0.45320  0.65130  0.61710  Biso   1.000  H
  C66      1.0000 0.17182  0.52430  0.51830  Biso   1.000  C
  C67      1.0000 0.12203  0.61590  0.47800  Biso   1.000  C
  H53      1.0000 0.12900  0.63230  0.40960  Biso   1.000  H
  H54      1.0000 0.12390  0.70260  0.51160  Biso   1.000  H
  C68      1.0000 0.05903  0.55390  0.48930  Biso   1.000  C
  C69      1.0000 0.01665  0.54930  0.41310  Biso   1.000  C
  H55      1.0000 0.02800  0.58270  0.35270  Biso   1.000  H
  C70      1.0000 0.04160  0.50310  0.57650  Biso   1.000  C
  H56      1.0000 0.07000  0.50430  0.62930  Biso   1.000  H
  C71      1.0000 0.86486  0.59250  0.14840  Biso   1.000  C
  C72      1.0000 0.91703  0.59220  0.08170  Biso   1.000  C
  H57      1.0000 0.92070  0.68280  0.05450  Biso   1.000  H
  H58      1.0000 0.90630  0.53110  0.02830  Biso   1.000  H
  C73      1.0000 0.97941  0.55200  0.12280  Biso   1.000  C
  C74      1.0000 0.02451  0.64640  0.13720  Biso   1.000  C
  H59      1.0000 0.01510  0.73740  0.12510  Biso   1.000  H
  C75      1.0000 0.19179  0.36270  0.13910  Biso   1.000  C
  C76      1.0000 0.16295  0.44060  0.21790  Biso   1.000  C
  H60      1.0000 0.16190  0.38550  0.27640  Biso   1.000  H
  H61      1.0000 0.18780  0.52130  0.23230  Biso   1.000  H
  C77      1.0000 0.09788  0.48060  0.18730  Biso   1.000  C
  C78      1.0000 0.05239  0.38570  0.17520  Biso   1.000  C
  H62      1.0000 0.06150  0.29490  0.18860  Biso   1.000  H
  C79      1.0000 0.08297  0.61230  0.16880  Biso   1.000  C
  H63      1.0000 0.11330  0.67970  0.17800  Biso   1.000  H
  C80      1.0000 0.99350  0.42120  0.14360  Biso   1.000  C
  H64      1.0000 0.96260  0.35460  0.13630  Biso   1.000  H
  C81      1.0000 0.33305  0.45770  0.93190  Biso   1.000  C
  C82      1.0000 0.37998  0.56470  0.91640  Biso   1.000  C
  H65      1.0000 0.36510  0.64890  0.94440  Biso   1.000  H
  H66      1.0000 0.38380  0.57900  0.84710  Biso   1.000  H
  C83      1.0000 0.44232  0.53330  0.95910  Biso   1.000  C
  C84      1.0000 0.45634  0.55870  0.05480  Biso   1.000  C
  H67      1.0000 0.42630  0.59940  0.09320  Biso   1.000  H
  C85      1.0000 0.48700  0.47410  0.90530  Biso   1.000  C
  H68      1.0000 0.47850  0.45580  0.83980  Biso   1.000  H
  C86      1.0000 0.68291  0.63760  0.69470  Biso   1.000  C
  C87      1.0000 0.63989  0.56510  0.75830  Biso   1.000  C
  H69      1.0000 0.66080  0.48440  0.78380  Biso   1.000  H
  H70      1.0000 0.63030  0.62310  0.81300  Biso   1.000  H
  C88      1.0000 0.58033  0.52460  0.70760  Biso   1.000  C
  C89      1.0000 0.53732  0.62030  0.67960  Biso   1.000  C
  H71      1.0000 0.54590  0.71180  0.69110  Biso   1.000  H
  C90      1.0000 0.56678  0.39330  0.68850  Biso   1.000  C
  H72      1.0000 0.59570  0.32610  0.70650  Biso   1.000  H
  Ho7      1.0000 0.75910  0.93462  0.77170  Biso   1.000  Ho
  Ho8      1.0000 0.74939  0.74758  0.52700  Biso   1.000  Ho
  O37      1.0000 0.71838  0.96180  0.61361  Biso   1.000  O
  O38      1.0000 0.65035  0.98300  0.79930  Biso   1.000  O
  O39      1.0000 0.69847  0.87280  0.90959  Biso   1.000  O
  O40      1.0000 0.81002  0.73710  0.36172  Biso   1.000  O
  O41      1.0000 0.28741  0.23580  0.77770  Biso   1.000  O
  O42      1.0000 0.80809  0.04500  0.89878  Biso   1.000  O
  O43      1.0000 0.81111  0.93310  0.03460  Biso   1.000  O
  O44      1.0000 0.30999  0.09630  0.88730  Biso   1.000  O
  O45      1.0000 0.78404  0.92310  0.42857  Biso   1.000  O
  O46      1.0000 0.65671  0.86670  0.50990  Biso   1.000  O
  O47      1.0000 0.13967  0.01240  0.28532  Biso   1.000  O
  O48      1.0000 0.17742  0.17810  0.36466  Biso   1.000  O
  C91      1.0000 0.64874  0.92460  0.87650  Biso   1.000  C
  C92      1.0000 0.59130  0.91240  0.93360  Biso   1.000  C
  H73      1.0000 0.58760  0.81870  0.95470  Biso   1.000  H
  H74      1.0000 0.59660  0.96810  0.99150  Biso   1.000  H
  C93      1.0000 0.53161  0.95190  0.88320  Biso   1.000  C
  C94      1.0000 0.48822  0.85770  0.85660  Biso   1.000  C
  H75      1.0000 0.49630  0.76630  0.86950  Biso   1.000  H
  C95      1.0000 0.51788  0.08420  0.86480  Biso   1.000  C
  H76      1.0000 0.54680  0.15130  0.88290  Biso   1.000  H
  C96      1.0000 0.82818  0.02430  0.98170  Biso   1.000  C
  C97      1.0000 0.87797  0.11590  0.02200  Biso   1.000  C
  H77      1.0000 0.87100  0.13230  0.09040  Biso   1.000  H
  H78      1.0000 0.87610  0.20260  0.98840  Biso   1.000  H
  C98      1.0000 0.94097  0.05390  0.01070  Biso   1.000  C
  C99      1.0000 0.98335  0.04930  0.08690  Biso   1.000  C
  H79      1.0000 0.97200  0.08270  0.14730  Biso   1.000  H
  C100     1.0000 0.95840  0.00310  0.92350  Biso   1.000  C
  H80      1.0000 0.93000  0.00430  0.87070  Biso   1.000  H
  C101     1.0000 0.13514  0.09250  0.35160  Biso   1.000  C
  C102     1.0000 0.08297  0.09220  0.41830  Biso   1.000  C
  H81      1.0000 0.07930  0.18280  0.44550  Biso   1.000  H
  H82      1.0000 0.09370  0.03110  0.47170  Biso   1.000  H
  C103     1.0000 0.02059  0.05200  0.37720  Biso   1.000  C
  C104     1.0000 0.97549  0.14640  0.36280  Biso   1.000  C
  H83      1.0000 0.98490  0.23740  0.37490  Biso   1.000  H
  C105     1.0000 0.80821  0.86270  0.36090  Biso   1.000  C
  C106     1.0000 0.83705  0.94060  0.28210  Biso   1.000  C
  H84      1.0000 0.83810  0.88550  0.22360  Biso   1.000  H
  H85      1.0000 0.81220  0.02130  0.26770  Biso   1.000  H
  C107     1.0000 0.90212  0.98060  0.31270  Biso   1.000  C
  C108     1.0000 0.94761  0.88570  0.32480  Biso   1.000  C
  H86      1.0000 0.93850  0.79490  0.31140  Biso   1.000  H
  C109     1.0000 0.91703  0.11230  0.33120  Biso   1.000  C
  H87      1.0000 0.88670  0.17970  0.32200  Biso   1.000  H
  C110     1.0000 0.00650  0.92120  0.35640  Biso   1.000  C
  H88      1.0000 0.03740  0.85460  0.36370  Biso   1.000  H
  C111     1.0000 0.66695  0.95770  0.56810  Biso   1.000  C
  C112     1.0000 0.62002  0.06470  0.58360  Biso   1.000  C
  H89      1.0000 0.63490  0.14890  0.55560  Biso   1.000  H
  H90      1.0000 0.61620  0.07900  0.65290  Biso   1.000  H
  C113     1.0000 0.55768  0.03330  0.54090  Biso   1.000  C
  C114     1.0000 0.54366  0.05870  0.44520  Biso   1.000  C
  H91      1.0000 0.57370  0.09940  0.40680  Biso   1.000  H
  C115     1.0000 0.51300  0.97410  0.59470  Biso   1.000  C
  H92      1.0000 0.52150  0.95580  0.66020  Biso   1.000  H
  C116     1.0000 0.31709  0.13760  0.80530  Biso   1.000  C
  C117     1.0000 0.36011  0.06510  0.74170  Biso   1.000  C
  H93      1.0000 0.33920  0.98440  0.71620  Biso   1.000  H
  H94      1.0000 0.36970  0.12310  0.68700  Biso   1.000  H
  C118     1.0000 0.41967  0.02460  0.79240  Biso   1.000  C
  C119     1.0000 0.46268  0.12030  0.82040  Biso   1.000  C
  H95      1.0000 0.45410  0.21180  0.80890  Biso   1.000  H
  C120     1.0000 0.43322  0.89330  0.81150  Biso   1.000  C
  H96      1.0000 0.40430  0.82610  0.79350  Biso   1.000  H
