data_image0
_cell_length_a       10.3862
_cell_length_b       10.3862
_cell_length_c       9.2089
_cell_angle_alpha    90
_cell_angle_beta     90
_cell_angle_gamma    120

_symmetry_space_group_name_H-M    "P 1"
_symmetry_int_tables_number       1

loop_
  _symmetry_equiv_pos_as_xyz
  'x, y, z'

loop_
  _atom_site_label
  _atom_site_occupancy
  _atom_site_fract_x
  _atom_site_fract_y
  _atom_site_fract_z
  _atom_site_thermal_displace_type
  _atom_site_B_iso_or_equiv
  _atom_site_type_symbol
  P1       1.0000 0.88002  0.29352  0.09044  Biso   1.000  P
  H1       1.0000 0.02000  0.34300  0.09100  Biso   1.000  H
  O1       1.0000 0.85120  0.39350  0.19270  Biso   1.000  O
  O2       1.0000 0.84040  0.31020  0.93350  Biso   1.000  O
  O3       1.0000 0.80630  0.13450  0.14400  Biso   1.000  O
  P2       1.0000 0.70648  0.58650  0.09044  Biso   1.000  P
  H2       1.0000 0.65700  0.67700  0.09100  Biso   1.000  H
  O4       1.0000 0.60650  0.45770  0.19270  Biso   1.000  O
  O5       1.0000 0.68980  0.53020  0.93350  Biso   1.000  O
  O6       1.0000 0.86550  0.67180  0.14400  Biso   1.000  O
  P3       1.0000 0.41350  0.11998  0.09044  Biso   1.000  P
  H3       1.0000 0.32300  0.98000  0.09100  Biso   1.000  H
  O7       1.0000 0.54230  0.14880  0.19270  Biso   1.000  O
  O8       1.0000 0.46980  0.15960  0.93350  Biso   1.000  O
  O9       1.0000 0.32820  0.19370  0.14400  Biso   1.000  O
  P4       1.0000 0.29352  0.88002  0.40956  Biso   1.000  P
  H4       1.0000 0.34300  0.02000  0.40900  Biso   1.000  H
  O10      1.0000 0.39350  0.85120  0.30730  Biso   1.000  O
  O11      1.0000 0.31020  0.84040  0.56650  Biso   1.000  O
  O12      1.0000 0.13450  0.80630  0.35600  Biso   1.000  O
  P5       1.0000 0.58650  0.70648  0.40956  Biso   1.000  P
  H5       1.0000 0.67700  0.65700  0.40900  Biso   1.000  H
  O13      1.0000 0.45770  0.60650  0.30730  Biso   1.000  O
  O14      1.0000 0.53020  0.68980  0.56650  Biso   1.000  O
  O15      1.0000 0.67180  0.86550  0.35600  Biso   1.000  O
  P6       1.0000 0.11998  0.41350  0.40956  Biso   1.000  P
  H6       1.0000 0.98000  0.32300  0.40900  Biso   1.000  H
  O16      1.0000 0.14880  0.54230  0.30730  Biso   1.000  O
  O17      1.0000 0.15960  0.46980  0.56650  Biso   1.000  O
  O18      1.0000 0.19370  0.32820  0.35600  Biso   1.000  O
  P7       1.0000 0.11998  0.70648  0.90956  Biso   1.000  P
  H7       1.0000 0.98000  0.65700  0.90900  Biso   1.000  H
  O19      1.0000 0.14880  0.60650  0.80730  Biso   1.000  O
  O20      1.0000 0.15960  0.68980  0.06650  Biso   1.000  O
  O21      1.0000 0.19370  0.86550  0.85600  Biso   1.000  O
  P8       1.0000 0.29352  0.41350  0.90956  Biso   1.000  P
  H8       1.0000 0.34300  0.32300  0.90900  Biso   1.000  H
  O22      1.0000 0.39350  0.54230  0.80730  Biso   1.000  O
  O23      1.0000 0.31020  0.46980  0.06650  Biso   1.000  O
  O24      1.0000 0.13450  0.32820  0.85600  Biso   1.000  O
  P9       1.0000 0.58650  0.88002  0.90956  Biso   1.000  P
  H9       1.0000 0.67700  0.02000  0.90900  Biso   1.000  H
  O25      1.0000 0.45770  0.85120  0.80730  Biso   1.000  O
  O26      1.0000 0.53020  0.84040  0.06650  Biso   1.000  O
  O27      1.0000 0.67180  0.80630  0.85600  Biso   1.000  O
  P10      1.0000 0.70648  0.11998  0.59044  Biso   1.000  P
  H10      1.0000 0.65700  0.98000  0.59100  Biso   1.000  H
  O28      1.0000 0.60650  0.14880  0.69270  Biso   1.000  O
  O29      1.0000 0.68980  0.15960  0.43350  Biso   1.000  O
  O30      1.0000 0.86550  0.19370  0.64400  Biso   1.000  O
  P11      1.0000 0.41350  0.29352  0.59044  Biso   1.000  P
  H11      1.0000 0.32300  0.34300  0.59100  Biso   1.000  H
  O31      1.0000 0.54230  0.39350  0.69270  Biso   1.000  O
  O32      1.0000 0.46980  0.31020  0.43350  Biso   1.000  O
  O33      1.0000 0.32820  0.13450  0.64400  Biso   1.000  O
  P12      1.0000 0.88002  0.58650  0.59044  Biso   1.000  P
  H12      1.0000 0.02000  0.67700  0.59100  Biso   1.000  H
  O34      1.0000 0.85120  0.45770  0.69270  Biso   1.000  O
  O35      1.0000 0.84040  0.53020  0.43350  Biso   1.000  O
  O36      1.0000 0.80630  0.67180  0.64400  Biso   1.000  O
  Fe1      1.0000 0.61330  0.00000  0.25000  Biso   1.000  Fe
  Fe2      1.0000 0.00000  0.61330  0.25000  Biso   1.000  Fe
  Fe3      1.0000 0.38670  0.38670  0.25000  Biso   1.000  Fe
  Fe4      1.0000 0.38670  0.00000  0.75000  Biso   1.000  Fe
  Fe5      1.0000 0.00000  0.38670  0.75000  Biso   1.000  Fe
  Fe6      1.0000 0.61330  0.61330  0.75000  Biso   1.000  Fe
  Fe7      1.0000 0.66667  0.33333  0.33453  Biso   1.000  Fe
  Fe8      1.0000 0.33333  0.66667  0.16547  Biso   1.000  Fe
  Fe9      1.0000 0.33333  0.66667  0.66547  Biso   1.000  Fe
  Fe10     1.0000 0.66667  0.33333  0.83453  Biso   1.000  Fe
