data_image0
_cell_length_a       8.386
_cell_length_b       17.199
_cell_length_c       25.132
_cell_angle_alpha    90
_cell_angle_beta     94.182
_cell_angle_gamma    90

_symmetry_space_group_name_H-M    "P 1"
_symmetry_int_tables_number       1

loop_
  _symmetry_equiv_pos_as_xyz
  'x, y, z'

loop_
  _atom_site_label
  _atom_site_occupancy
  _atom_site_fract_x
  _atom_site_fract_y
  _atom_site_fract_z
  _atom_site_thermal_displace_type
  _atom_site_B_iso_or_equiv
  _atom_site_type_symbol
  N1       1.0000 0.59600  0.63580  0.13742  Biso   1.000  N
  O1       1.0000 0.06550  0.71720  0.05594  Biso   1.000  O
  Zn1      1.0000 0.83395  0.59393  0.13272  Biso   1.000  Zn
  O2       1.0000 0.39450  0.85630  0.70124  Biso   1.000  O
  N2       1.0000 0.75480  0.51660  0.61996  Biso   1.000  N
  O3       1.0000 0.53180  0.75140  0.68773  Biso   1.000  O
  N3       1.0000 0.68950  0.53380  0.57060  Biso   1.000  N
  C1       1.0000 0.82230  0.58940  0.70343  Biso   1.000  C
  N4       1.0000 0.35520  0.68750  0.13836  Biso   1.000  N
  N5       1.0000 0.65690  0.60750  0.56859  Biso   1.000  N
  C2       1.0000 0.94750  0.61660  0.87079  Biso   1.000  C
  C3       1.0000 0.47890  0.67200  0.10863  Biso   1.000  C
  N6       1.0000 0.40030  0.65730  0.18719  Biso   1.000  N
  O4       1.0000 0.87830  0.63420  0.06421  Biso   1.000  O
  N7       1.0000 0.70080  0.64000  0.61614  Biso   1.000  N
  C4       1.0000 0.36290  0.80050  0.86120  Biso   1.000  C
  H1       1.0000 0.29680  0.82850  0.88240  Biso   1.000  H
  C5       1.0000 0.97660  0.66730  0.03823  Biso   1.000  C
  C6       1.0000 0.77900  0.53390  0.73951  Biso   1.000  C
  H2       1.0000 0.71820  0.49130  0.72750  Biso   1.000  H
  C7       1.0000 0.03670  0.69710  0.94490  Biso   1.000  C
  H3       1.0000 0.09020  0.74180  0.95710  Biso   1.000  H
  C8       1.0000 0.97340  0.64810  0.97998  Biso   1.000  C
  C9       1.0000 0.76240  0.58260  0.64676  Biso   1.000  C
  C10      1.0000 0.91860  0.60470  0.81222  Biso   1.000  C
  C11      1.0000 0.46380  0.79520  0.71669  Biso   1.000  C
  C12      1.0000 0.91870  0.65000  0.72102  Biso   1.000  C
  H4       1.0000 0.95390  0.68590  0.69680  Biso   1.000  H
  C13      1.0000 0.44230  0.78180  0.97930  Biso   1.000  C
  H5       1.0000 0.41940  0.83230  0.96790  Biso   1.000  H
  N8       1.0000 0.53940  0.62520  0.18639  Biso   1.000  N
  C14      1.0000 0.45120  0.76520  0.03240  Biso   1.000  C
  H6       1.0000 0.43810  0.80520  0.05660  Biso   1.000  H
  C15      1.0000 0.02180  0.68080  0.89110  Biso   1.000  C
  H7       1.0000 0.06490  0.71560  0.86770  Biso   1.000  H
  C16      1.0000 0.82530  0.54110  0.79291  Biso   1.000  C
  H8       1.0000 0.79440  0.50350  0.81670  Biso   1.000  H
  C17      1.0000 0.54880  0.71530  0.79610  Biso   1.000  C
  H9       1.0000 0.60990  0.68560  0.77430  Biso   1.000  H
  C18      1.0000 0.45750  0.77640  0.77453  Biso   1.000  C
  C19      1.0000 0.36470  0.81690  0.80707  Biso   1.000  C
  H10      1.0000 0.30050  0.85680  0.79260  Biso   1.000  H
  C20      1.0000 0.47910  0.69130  0.05130  Biso   1.000  C
  C21      1.0000 0.46010  0.74220  0.88350  Biso   1.000  C
  C22      1.0000 0.89660  0.58260  0.96050  Biso   1.000  C
  H11      1.0000 0.84870  0.54920  0.98370  Biso   1.000  H
  C23      1.0000 0.54970  0.69820  0.84990  Biso   1.000  C
  H12      1.0000 0.61070  0.65680  0.86380  Biso   1.000  H
  C24      1.0000 0.96390  0.65750  0.77536  Biso   1.000  C
  H13      1.0000 0.02670  0.69960  0.78690  Biso   1.000  H
  C25      1.0000 0.89010  0.56580  0.90660  Biso   1.000  C
  H14      1.0000 0.84570  0.51900  0.89440  Biso   1.000  H
  C26      1.0000 0.49850  0.65050  0.96080  Biso   1.000  C
  H15      1.0000 0.51770  0.61110  0.93670  Biso   1.000  H
  C27      1.0000 0.46670  0.72440  0.94180  Biso   1.000  C
  C28      1.0000 0.50270  0.63310  0.01480  Biso   1.000  C
  H16      1.0000 0.52150  0.58230  0.02640  Biso   1.000  H
  Zn2      1.0000 0.15372  0.74532  0.12527  Biso   1.000  Zn
  N9       1.0000 0.09600  0.13580  0.13742  Biso   1.000  N
  O5       1.0000 0.56550  0.21720  0.05594  Biso   1.000  O
  Zn3      1.0000 0.33395  0.09393  0.13272  Biso   1.000  Zn
  O6       1.0000 0.89450  0.35630  0.70124  Biso   1.000  O
  N10      1.0000 0.25480  0.01660  0.61996  Biso   1.000  N
  O7       1.0000 0.03180  0.25140  0.68773  Biso   1.000  O
  N11      1.0000 0.18950  0.03380  0.57060  Biso   1.000  N
  C29      1.0000 0.32230  0.08940  0.70343  Biso   1.000  C
  N12      1.0000 0.85520  0.18750  0.13836  Biso   1.000  N
  N13      1.0000 0.15690  0.10750  0.56859  Biso   1.000  N
  C30      1.0000 0.44750  0.11660  0.87079  Biso   1.000  C
  C31      1.0000 0.97890  0.17200  0.10863  Biso   1.000  C
  N14      1.0000 0.90030  0.15730  0.18719  Biso   1.000  N
  O8       1.0000 0.37830  0.13420  0.06421  Biso   1.000  O
  N15      1.0000 0.20080  0.14000  0.61614  Biso   1.000  N
  C32      1.0000 0.86290  0.30050  0.86120  Biso   1.000  C
  H17      1.0000 0.79680  0.32850  0.88240  Biso   1.000  H
  C33      1.0000 0.47660  0.16730  0.03823  Biso   1.000  C
  C34      1.0000 0.27900  0.03390  0.73951  Biso   1.000  C
  H18      1.0000 0.21820  0.99130  0.72750  Biso   1.000  H
  C35      1.0000 0.53670  0.19710  0.94490  Biso   1.000  C
  H19      1.0000 0.59020  0.24180  0.95710  Biso   1.000  H
  C36      1.0000 0.47340  0.14810  0.97998  Biso   1.000  C
  C37      1.0000 0.26240  0.08260  0.64676  Biso   1.000  C
  C38      1.0000 0.41860  0.10470  0.81222  Biso   1.000  C
  C39      1.0000 0.96380  0.29520  0.71669  Biso   1.000  C
  C40      1.0000 0.41870  0.15000  0.72102  Biso   1.000  C
  H20      1.0000 0.45390  0.18590  0.69680  Biso   1.000  H
  C41      1.0000 0.94230  0.28180  0.97930  Biso   1.000  C
  H21      1.0000 0.91940  0.33230  0.96790  Biso   1.000  H
  N16      1.0000 0.03940  0.12520  0.18639  Biso   1.000  N
  C42      1.0000 0.95120  0.26520  0.03240  Biso   1.000  C
  H22      1.0000 0.93810  0.30520  0.05660  Biso   1.000  H
  C43      1.0000 0.52180  0.18080  0.89110  Biso   1.000  C
  H23      1.0000 0.56490  0.21560  0.86770  Biso   1.000  H
  C44      1.0000 0.32530  0.04110  0.79291  Biso   1.000  C
  H24      1.0000 0.29440  0.00350  0.81670  Biso   1.000  H
  C45      1.0000 0.04880  0.21530  0.79610  Biso   1.000  C
  H25      1.0000 0.10990  0.18560  0.77430  Biso   1.000  H
  C46      1.0000 0.95750  0.27640  0.77453  Biso   1.000  C
  C47      1.0000 0.86470  0.31690  0.80707  Biso   1.000  C
  H26      1.0000 0.80050  0.35680  0.79260  Biso   1.000  H
  C48      1.0000 0.97910  0.19130  0.05130  Biso   1.000  C
  C49      1.0000 0.96010  0.24220  0.88350  Biso   1.000  C
  C50      1.0000 0.39660  0.08260  0.96050  Biso   1.000  C
  H27      1.0000 0.34870  0.04920  0.98370  Biso   1.000  H
  C51      1.0000 0.04970  0.19820  0.84990  Biso   1.000  C
  H28      1.0000 0.11070  0.15680  0.86380  Biso   1.000  H
  C52      1.0000 0.46390  0.15750  0.77536  Biso   1.000  C
  H29      1.0000 0.52670  0.19960  0.78690  Biso   1.000  H
  C53      1.0000 0.39010  0.06580  0.90660  Biso   1.000  C
  H30      1.0000 0.34570  0.01900  0.89440  Biso   1.000  H
  C54      1.0000 0.99850  0.15050  0.96080  Biso   1.000  C
  H31      1.0000 0.01770  0.11110  0.93670  Biso   1.000  H
  C55      1.0000 0.96670  0.22440  0.94180  Biso   1.000  C
  C56      1.0000 0.00270  0.13310  0.01480  Biso   1.000  C
  H32      1.0000 0.02150  0.08230  0.02640  Biso   1.000  H
  Zn4      1.0000 0.65372  0.24532  0.12527  Biso   1.000  Zn
  N17      1.0000 0.59600  0.36420  0.63742  Biso   1.000  N
  O9       1.0000 0.06550  0.28280  0.55594  Biso   1.000  O
  Zn5      1.0000 0.83395  0.40607  0.63272  Biso   1.000  Zn
  O10      1.0000 0.39450  0.14370  0.20124  Biso   1.000  O
  N18      1.0000 0.75480  0.48340  0.11996  Biso   1.000  N
  O11      1.0000 0.53180  0.24860  0.18773  Biso   1.000  O
  N19      1.0000 0.68950  0.46620  0.07060  Biso   1.000  N
  C57      1.0000 0.82230  0.41060  0.20343  Biso   1.000  C
  N20      1.0000 0.35520  0.31250  0.63836  Biso   1.000  N
  N21      1.0000 0.65690  0.39250  0.06859  Biso   1.000  N
  C58      1.0000 0.94750  0.38340  0.37079  Biso   1.000  C
  C59      1.0000 0.47890  0.32800  0.60863  Biso   1.000  C
  N22      1.0000 0.40030  0.34270  0.68719  Biso   1.000  N
  O12      1.0000 0.87830  0.36580  0.56421  Biso   1.000  O
  N23      1.0000 0.70080  0.36000  0.11614  Biso   1.000  N
  C60      1.0000 0.36290  0.19950  0.36120  Biso   1.000  C
  H33      1.0000 0.29680  0.17150  0.38240  Biso   1.000  H
  C61      1.0000 0.97660  0.33270  0.53823  Biso   1.000  C
  C62      1.0000 0.77900  0.46610  0.23951  Biso   1.000  C
  H34      1.0000 0.71820  0.50870  0.22750  Biso   1.000  H
  C63      1.0000 0.03670  0.30290  0.44490  Biso   1.000  C
  H35      1.0000 0.09020  0.25820  0.45710  Biso   1.000  H
  C64      1.0000 0.97340  0.35190  0.47998  Biso   1.000  C
  C65      1.0000 0.76240  0.41740  0.14676  Biso   1.000  C
  C66      1.0000 0.91860  0.39530  0.31222  Biso   1.000  C
  C67      1.0000 0.46380  0.20480  0.21669  Biso   1.000  C
  C68      1.0000 0.91870  0.35000  0.22102  Biso   1.000  C
  H36      1.0000 0.95390  0.31410  0.19680  Biso   1.000  H
  C69      1.0000 0.44230  0.21820  0.47930  Biso   1.000  C
  H37      1.0000 0.41940  0.16770  0.46790  Biso   1.000  H
  N24      1.0000 0.53940  0.37480  0.68639  Biso   1.000  N
  C70      1.0000 0.45120  0.23480  0.53240  Biso   1.000  C
  H38      1.0000 0.43810  0.19480  0.55660  Biso   1.000  H
  C71      1.0000 0.02180  0.31920  0.39110  Biso   1.000  C
  H39      1.0000 0.06490  0.28440  0.36770  Biso   1.000  H
  C72      1.0000 0.82530  0.45890  0.29291  Biso   1.000  C
  H40      1.0000 0.79440  0.49650  0.31670  Biso   1.000  H
  C73      1.0000 0.54880  0.28470  0.29610  Biso   1.000  C
  H41      1.0000 0.60990  0.31440  0.27430  Biso   1.000  H
  C74      1.0000 0.45750  0.22360  0.27453  Biso   1.000  C
  C75      1.0000 0.36470  0.18310  0.30707  Biso   1.000  C
  H42      1.0000 0.30050  0.14320  0.29260  Biso   1.000  H
  C76      1.0000 0.47910  0.30870  0.55130  Biso   1.000  C
  C77      1.0000 0.46010  0.25780  0.38350  Biso   1.000  C
  C78      1.0000 0.89660  0.41740  0.46050  Biso   1.000  C
  H43      1.0000 0.84870  0.45080  0.48370  Biso   1.000  H
  C79      1.0000 0.54970  0.30180  0.34990  Biso   1.000  C
  H44      1.0000 0.61070  0.34320  0.36380  Biso   1.000  H
  C80      1.0000 0.96390  0.34250  0.27536  Biso   1.000  C
  H45      1.0000 0.02670  0.30040  0.28690  Biso   1.000  H
  C81      1.0000 0.89010  0.43420  0.40660  Biso   1.000  C
  H46      1.0000 0.84570  0.48100  0.39440  Biso   1.000  H
  C82      1.0000 0.49850  0.34950  0.46080  Biso   1.000  C
  H47      1.0000 0.51770  0.38890  0.43670  Biso   1.000  H
  C83      1.0000 0.46670  0.27560  0.44180  Biso   1.000  C
  C84      1.0000 0.50270  0.36690  0.51480  Biso   1.000  C
  H48      1.0000 0.52150  0.41770  0.52640  Biso   1.000  H
  Zn6      1.0000 0.15372  0.25468  0.62527  Biso   1.000  Zn
  N25      1.0000 0.09600  0.86420  0.63742  Biso   1.000  N
  O13      1.0000 0.56550  0.78280  0.55594  Biso   1.000  O
  Zn7      1.0000 0.33395  0.90607  0.63272  Biso   1.000  Zn
  O14      1.0000 0.89450  0.64370  0.20124  Biso   1.000  O
  N26      1.0000 0.25480  0.98340  0.11996  Biso   1.000  N
  O15      1.0000 0.03180  0.74860  0.18773  Biso   1.000  O
  N27      1.0000 0.18950  0.96620  0.07060  Biso   1.000  N
  C85      1.0000 0.32230  0.91060  0.20343  Biso   1.000  C
  N28      1.0000 0.85520  0.81250  0.63836  Biso   1.000  N
  N29      1.0000 0.15690  0.89250  0.06859  Biso   1.000  N
  C86      1.0000 0.44750  0.88340  0.37079  Biso   1.000  C
  C87      1.0000 0.97890  0.82800  0.60863  Biso   1.000  C
  N30      1.0000 0.90030  0.84270  0.68719  Biso   1.000  N
  O16      1.0000 0.37830  0.86580  0.56421  Biso   1.000  O
  N31      1.0000 0.20080  0.86000  0.11614  Biso   1.000  N
  C88      1.0000 0.86290  0.69950  0.36120  Biso   1.000  C
  H49      1.0000 0.79680  0.67150  0.38240  Biso   1.000  H
  C89      1.0000 0.47660  0.83270  0.53823  Biso   1.000  C
  C90      1.0000 0.27900  0.96610  0.23951  Biso   1.000  C
  H50      1.0000 0.21820  0.00870  0.22750  Biso   1.000  H
  C91      1.0000 0.53670  0.80290  0.44490  Biso   1.000  C
  H51      1.0000 0.59020  0.75820  0.45710  Biso   1.000  H
  C92      1.0000 0.47340  0.85190  0.47998  Biso   1.000  C
  C93      1.0000 0.26240  0.91740  0.14676  Biso   1.000  C
  C94      1.0000 0.41860  0.89530  0.31222  Biso   1.000  C
  C95      1.0000 0.96380  0.70480  0.21669  Biso   1.000  C
  C96      1.0000 0.41870  0.85000  0.22102  Biso   1.000  C
  H52      1.0000 0.45390  0.81410  0.19680  Biso   1.000  H
  C97      1.0000 0.94230  0.71820  0.47930  Biso   1.000  C
  H53      1.0000 0.91940  0.66770  0.46790  Biso   1.000  H
  N32      1.0000 0.03940  0.87480  0.68639  Biso   1.000  N
  C98      1.0000 0.95120  0.73480  0.53240  Biso   1.000  C
  H54      1.0000 0.93810  0.69480  0.55660  Biso   1.000  H
  C99      1.0000 0.52180  0.81920  0.39110  Biso   1.000  C
  H55      1.0000 0.56490  0.78440  0.36770  Biso   1.000  H
  C100     1.0000 0.32530  0.95890  0.29291  Biso   1.000  C
  H56      1.0000 0.29440  0.99650  0.31670  Biso   1.000  H
  C101     1.0000 0.04880  0.78470  0.29610  Biso   1.000  C
  H57      1.0000 0.10990  0.81440  0.27430  Biso   1.000  H
  C102     1.0000 0.95750  0.72360  0.27453  Biso   1.000  C
  C103     1.0000 0.86470  0.68310  0.30707  Biso   1.000  C
  H58      1.0000 0.80050  0.64320  0.29260  Biso   1.000  H
  C104     1.0000 0.97910  0.80870  0.55130  Biso   1.000  C
  C105     1.0000 0.96010  0.75780  0.38350  Biso   1.000  C
  C106     1.0000 0.39660  0.91740  0.46050  Biso   1.000  C
  H59      1.0000 0.34870  0.95080  0.48370  Biso   1.000  H
  C107     1.0000 0.04970  0.80180  0.34990  Biso   1.000  C
  H60      1.0000 0.11070  0.84320  0.36380  Biso   1.000  H
  C108     1.0000 0.46390  0.84250  0.27536  Biso   1.000  C
  H61      1.0000 0.52670  0.80040  0.28690  Biso   1.000  H
  C109     1.0000 0.39010  0.93420  0.40660  Biso   1.000  C
  H62      1.0000 0.34570  0.98100  0.39440  Biso   1.000  H
  C110     1.0000 0.99850  0.84950  0.46080  Biso   1.000  C
  H63      1.0000 0.01770  0.88890  0.43670  Biso   1.000  H
  C111     1.0000 0.96670  0.77560  0.44180  Biso   1.000  C
  C112     1.0000 0.00270  0.86690  0.51480  Biso   1.000  C
  H64      1.0000 0.02150  0.91770  0.52640  Biso   1.000  H
  Zn8      1.0000 0.65372  0.75468  0.62527  Biso   1.000  Zn
