data_image0
_cell_length_a       12.653
_cell_length_b       25.497
_cell_length_c       28.551
_cell_angle_alpha    90
_cell_angle_beta     90.945
_cell_angle_gamma    90

_symmetry_space_group_name_H-M    "P 1"
_symmetry_int_tables_number       1

loop_
  _symmetry_equiv_pos_as_xyz
  'x, y, z'

loop_
  _atom_site_label
  _atom_site_occupancy
  _atom_site_fract_x
  _atom_site_fract_y
  _atom_site_fract_z
  _atom_site_thermal_displace_type
  _atom_site_B_iso_or_equiv
  _atom_site_type_symbol
  Co1      1.0000 0.74478  0.99815  0.81303  Biso   1.000  Co
  Co2      1.0000 0.24573  0.49964  0.18707  Biso   1.000  Co
  Co3      1.0000 0.88687  0.75065  0.03238  Biso   1.000  Co
  Co4      1.0000 0.60457  0.74899  0.02427  Biso   1.000  Co
  O1       1.0000 0.74170  0.74959  0.07063  Biso   1.000  O
  O2       1.0000 0.84620  0.81250  0.99027  Biso   1.000  O
  O3       1.0000 0.67270  0.80072  0.97909  Biso   1.000  O
  O4       1.0000 0.46020  0.18868  0.94041  Biso   1.000  O
  O5       1.0000 0.33310  0.16943  0.88802  Biso   1.000  O
  O6       1.0000 0.66090  0.68362  0.99125  Biso   1.000  O
  O7       1.0000 0.83480  0.69559  0.98369  Biso   1.000  O
  O8       1.0000 0.94180  0.68954  0.07332  Biso   1.000  O
  O9       1.0000 0.81000  0.66861  0.12090  Biso   1.000  O
  O10      1.0000 0.86510  0.04423  0.84118  Biso   1.000  O
  O11      1.0000 0.90230  0.09680  0.78113  Biso   1.000  O
  O12      1.0000 0.34650  0.55094  0.15417  Biso   1.000  O
  O13      1.0000 0.39110  0.60433  0.21334  Biso   1.000  O
  O14      1.0000 0.27020  0.74911  0.82239  Biso   1.000  O
  O15      1.0000 0.14520  0.74799  0.87687  Biso   1.000  O
  O16      1.0000 0.64140  0.55370  0.71309  Biso   1.000  O
  O17      1.0000 0.62080  0.54213  0.79001  Biso   1.000  O
  O18      1.0000 0.61640  0.95650  0.78837  Biso   1.000  O
  O19      1.0000 0.64660  0.94367  0.71216  Biso   1.000  O
  N1       1.0000 0.74740  0.95113  0.87473  Biso   1.000  N
  N2       1.0000 0.63310  0.05003  0.84505  Biso   1.000  N
  N3       1.0000 0.75440  0.54808  0.87437  Biso   1.000  N
  N4       1.0000 0.11720  0.54572  0.15884  Biso   1.000  N
  N5       1.0000 0.05100  0.19271  0.91933  Biso   1.000  N
  N6       1.0000 0.52870  0.69699  0.07131  Biso   1.000  N
  N7       1.0000 0.47650  0.74824  0.97302  Biso   1.000  N
  N8       1.0000 0.36680  0.68642  0.74942  Biso   1.000  N
  N9       1.0000 0.36800  0.81130  0.74846  Biso   1.000  N
  C1       1.0000 0.84050  0.93372  0.89236  Biso   1.000  C
  H1       1.0000 0.90370  0.94980  0.88200  Biso   1.000  H
  C2       1.0000 0.84830  0.89366  0.92476  Biso   1.000  C
  H2       1.0000 0.91530  0.88270  0.93670  Biso   1.000  H
  C3       1.0000 0.75490  0.86956  0.93969  Biso   1.000  C
  C4       1.0000 0.66100  0.88810  0.92195  Biso   1.000  C
  H3       1.0000 0.59650  0.87290  0.93180  Biso   1.000  H
  C5       1.0000 0.65910  0.92859  0.88988  Biso   1.000  C
  H4       1.0000 0.59280  0.94080  0.87820  Biso   1.000  H
  C6       1.0000 0.75930  0.82365  0.97287  Biso   1.000  C
  C7       1.0000 0.53740  0.06141  0.82517  Biso   1.000  C
  H5       1.0000 0.51800  0.04440  0.79670  Biso   1.000  H
  C8       1.0000 0.46620  0.09680  0.84454  Biso   1.000  C
  H6       1.0000 0.40070  0.10400  0.82920  Biso   1.000  H
  C9       1.0000 0.49240  0.12117  0.88643  Biso   1.000  C
  C10      1.0000 0.58710  0.10850  0.90784  Biso   1.000  C
  H7       1.0000 0.60730  0.12430  0.93680  Biso   1.000  H
  C11      1.0000 0.65290  0.07230  0.88660  Biso   1.000  C
  H8       1.0000 0.71620  0.06260  0.90270  Biso   1.000  H
  C12      1.0000 0.42120  0.16188  0.90691  Biso   1.000  C
  C13      1.0000 0.66400  0.56558  0.89196  Biso   1.000  C
  H9       1.0000 0.59940  0.55020  0.88140  Biso   1.000  H
  C14      1.0000 0.66050  0.60478  0.92457  Biso   1.000  C
  H10      1.0000 0.59440  0.61620  0.93610  Biso   1.000  H
  C15      1.0000 0.75280  0.62777  0.94069  Biso   1.000  C
  C16      1.0000 0.84720  0.60899  0.92367  Biso   1.000  C
  H11      1.0000 0.91270  0.62310  0.93450  Biso   1.000  H
  C17      1.0000 0.84490  0.56975  0.89103  Biso   1.000  C
  H12      1.0000 0.91010  0.55710  0.87950  Biso   1.000  H
  C18      1.0000 0.75090  0.67332  0.97489  Biso   1.000  C
  C19      1.0000 0.12230  0.56490  0.11540  Biso   1.000  C
  H13      1.0000 0.17780  0.55270  0.09620  Biso   1.000  H
  C20      1.0000 0.05230  0.60160  0.09610  Biso   1.000  C
  H14      1.0000 0.06170  0.61460  0.06520  Biso   1.000  H
  C21      1.0000 0.97030  0.61850  0.12244  Biso   1.000  C
  C22      1.0000 0.95710  0.59690  0.16580  Biso   1.000  C
  H15      1.0000 0.89770  0.60620  0.18390  Biso   1.000  H
  C23      1.0000 0.03130  0.56100  0.18330  Biso   1.000  C
  H16      1.0000 0.02120  0.54670  0.21360  Biso   1.000  H
  C24      1.0000 0.90050  0.66180  0.10400  Biso   1.000  C
  C25      1.0000 0.00480  0.14960  0.93370  Biso   1.000  C
  H17      1.0000 0.00280  0.14380  0.96650  Biso   1.000  H
  C26      1.0000 0.95870  0.11200  0.90500  Biso   1.000  C
  H18      1.0000 0.92720  0.08140  0.91750  Biso   1.000  H
  C27      1.0000 0.96050  0.12120  0.85670  Biso   1.000  C
  C28      1.0000 0.01100  0.16610  0.84020  Biso   1.000  C
  H19      1.0000 0.01480  0.17300  0.80760  Biso   1.000  H
  C29      1.0000 0.05520  0.20020  0.87290  Biso   1.000  C
  H20      1.0000 0.09030  0.23060  0.86170  Biso   1.000  H
  C30      1.0000 0.90520  0.08450  0.82360  Biso   1.000  C
  C31      1.0000 0.48190  0.65290  0.05890  Biso   1.000  C
  H21      1.0000 0.48070  0.64450  0.02650  Biso   1.000  H
  C32      1.0000 0.43380  0.61730  0.08917  Biso   1.000  C
  H22      1.0000 0.39880  0.58690  0.07760  Biso   1.000  H
  C33      1.0000 0.43890  0.62800  0.13610  Biso   1.000  C
  C34      1.0000 0.48640  0.67440  0.15160  Biso   1.000  C
  H23      1.0000 0.48910  0.68320  0.18400  Biso   1.000  H
  C35      1.0000 0.52940  0.70720  0.11840  Biso   1.000  C
  H24      1.0000 0.56150  0.73880  0.12890  Biso   1.000  H
  C36      1.0000 0.38960  0.59190  0.17096  Biso   1.000  C
  C37      1.0000 0.37700  0.75378  0.98360  Biso   1.000  C
  H25      1.0000 0.35840  0.75720  0.01560  Biso   1.000  H
  C38      1.0000 0.29730  0.75480  0.94930  Biso   1.000  C
  H26      1.0000 0.22570  0.75930  0.95800  Biso   1.000  H
  C39      1.0000 0.32260  0.74930  0.90250  Biso   1.000  C
  C40      1.0000 0.43000  0.74361  0.89140  Biso   1.000  C
  H27      1.0000 0.45070  0.73990  0.85970  Biso   1.000  H
  C41      1.0000 0.50430  0.74347  0.92712  Biso   1.000  C
  H28      1.0000 0.57690  0.74000  0.91970  Biso   1.000  H
  C42      1.0000 0.23710  0.74903  0.86440  Biso   1.000  C
  C43      1.0000 0.37650  0.65312  0.78605  Biso   1.000  C
  H29      1.0000 0.33000  0.65730  0.81160  Biso   1.000  H
  C44      1.0000 0.44980  0.61369  0.78821  Biso   1.000  C
  H30      1.0000 0.45410  0.59150  0.81490  Biso   1.000  H
  C45      1.0000 0.51890  0.60625  0.75058  Biso   1.000  C
  C46      1.0000 0.50760  0.63956  0.71270  Biso   1.000  C
  H31      1.0000 0.55130  0.63530  0.68620  Biso   1.000  H
  C47      1.0000 0.43290  0.67898  0.71336  Biso   1.000  C
  H32      1.0000 0.42780  0.70200  0.68720  Biso   1.000  H
  C48      1.0000 0.60060  0.56312  0.75189  Biso   1.000  C
  C49      1.0000 0.43020  0.82041  0.71126  Biso   1.000  C
  H33      1.0000 0.42270  0.79840  0.68460  Biso   1.000  H
  C50      1.0000 0.50380  0.85988  0.71015  Biso   1.000  C
  H34      1.0000 0.54470  0.86510  0.68290  Biso   1.000  H
  C51      1.0000 0.51830  0.89223  0.74895  Biso   1.000  C
  C52      1.0000 0.45280  0.88320  0.78662  Biso   1.000  C
  H35      1.0000 0.45890  0.90460  0.81380  Biso   1.000  H
  C53      1.0000 0.38010  0.84400  0.78506  Biso   1.000  C
  H36      1.0000 0.33550  0.83940  0.81120  Biso   1.000  H
  C54      1.0000 0.59990  0.93465  0.74935  Biso   1.000  C
  Co5      1.0000 0.75522  0.99815  0.68697  Biso   1.000  Co
  Co6      1.0000 0.25427  0.49964  0.31293  Biso   1.000  Co
  Co7      1.0000 0.61313  0.75065  0.46762  Biso   1.000  Co
  Co8      1.0000 0.89543  0.74899  0.47573  Biso   1.000  Co
  O20      1.0000 0.75830  0.74959  0.42937  Biso   1.000  O
  O21      1.0000 0.65380  0.81250  0.50973  Biso   1.000  O
  O22      1.0000 0.82730  0.80072  0.52091  Biso   1.000  O
  O23      1.0000 0.03980  0.18868  0.55959  Biso   1.000  O
  O24      1.0000 0.16690  0.16943  0.61198  Biso   1.000  O
  O25      1.0000 0.83910  0.68362  0.50875  Biso   1.000  O
  O26      1.0000 0.66520  0.69559  0.51631  Biso   1.000  O
  O27      1.0000 0.55820  0.68954  0.42668  Biso   1.000  O
  O28      1.0000 0.69000  0.66861  0.37910  Biso   1.000  O
  O29      1.0000 0.63490  0.04423  0.65882  Biso   1.000  O
  O30      1.0000 0.59770  0.09680  0.71887  Biso   1.000  O
  O31      1.0000 0.15350  0.55094  0.34583  Biso   1.000  O
  O32      1.0000 0.10890  0.60433  0.28666  Biso   1.000  O
  O33      1.0000 0.22980  0.74911  0.67761  Biso   1.000  O
  O34      1.0000 0.35480  0.74799  0.62313  Biso   1.000  O
  O35      1.0000 0.85860  0.55370  0.78691  Biso   1.000  O
  O36      1.0000 0.87920  0.54213  0.70999  Biso   1.000  O
  O37      1.0000 0.88360  0.95650  0.71163  Biso   1.000  O
  O38      1.0000 0.85340  0.94367  0.78784  Biso   1.000  O
  N10      1.0000 0.75260  0.95113  0.62527  Biso   1.000  N
  N11      1.0000 0.86690  0.05003  0.65495  Biso   1.000  N
  N12      1.0000 0.74560  0.54808  0.62563  Biso   1.000  N
  N13      1.0000 0.38280  0.54572  0.34116  Biso   1.000  N
  N14      1.0000 0.44900  0.19271  0.58067  Biso   1.000  N
  N15      1.0000 0.97130  0.69699  0.42869  Biso   1.000  N
  N16      1.0000 0.02350  0.74824  0.52698  Biso   1.000  N
  N17      1.0000 0.13320  0.68642  0.75058  Biso   1.000  N
  N18      1.0000 0.13200  0.81130  0.75154  Biso   1.000  N
  C55      1.0000 0.65950  0.93372  0.60764  Biso   1.000  C
  H37      1.0000 0.59630  0.94980  0.61800  Biso   1.000  H
  C56      1.0000 0.65170  0.89366  0.57524  Biso   1.000  C
  H38      1.0000 0.58470  0.88270  0.56330  Biso   1.000  H
  C57      1.0000 0.74510  0.86956  0.56031  Biso   1.000  C
  C58      1.0000 0.83900  0.88810  0.57805  Biso   1.000  C
  H39      1.0000 0.90350  0.87290  0.56820  Biso   1.000  H
  C59      1.0000 0.84090  0.92859  0.61012  Biso   1.000  C
  H40      1.0000 0.90720  0.94080  0.62180  Biso   1.000  H
  C60      1.0000 0.74070  0.82365  0.52713  Biso   1.000  C
  C61      1.0000 0.96260  0.06141  0.67483  Biso   1.000  C
  H41      1.0000 0.98200  0.04440  0.70330  Biso   1.000  H
  C62      1.0000 0.03380  0.09680  0.65546  Biso   1.000  C
  H42      1.0000 0.09930  0.10400  0.67080  Biso   1.000  H
  C63      1.0000 0.00760  0.12117  0.61357  Biso   1.000  C
  C64      1.0000 0.91290  0.10850  0.59216  Biso   1.000  C
  H43      1.0000 0.89270  0.12430  0.56320  Biso   1.000  H
  C65      1.0000 0.84710  0.07230  0.61340  Biso   1.000  C
  H44      1.0000 0.78380  0.06260  0.59730  Biso   1.000  H
  C66      1.0000 0.07880  0.16188  0.59309  Biso   1.000  C
  C67      1.0000 0.83600  0.56558  0.60804  Biso   1.000  C
  H45      1.0000 0.90060  0.55020  0.61860  Biso   1.000  H
  C68      1.0000 0.83950  0.60478  0.57543  Biso   1.000  C
  H46      1.0000 0.90560  0.61620  0.56390  Biso   1.000  H
  C69      1.0000 0.74720  0.62777  0.55931  Biso   1.000  C
  C70      1.0000 0.65280  0.60899  0.57633  Biso   1.000  C
  H47      1.0000 0.58730  0.62310  0.56550  Biso   1.000  H
  C71      1.0000 0.65510  0.56975  0.60897  Biso   1.000  C
  H48      1.0000 0.58990  0.55710  0.62050  Biso   1.000  H
  C72      1.0000 0.74910  0.67332  0.52511  Biso   1.000  C
  C73      1.0000 0.37770  0.56490  0.38460  Biso   1.000  C
  H49      1.0000 0.32220  0.55270  0.40380  Biso   1.000  H
  C74      1.0000 0.44770  0.60160  0.40390  Biso   1.000  C
  H50      1.0000 0.43830  0.61460  0.43480  Biso   1.000  H
  C75      1.0000 0.52970  0.61850  0.37756  Biso   1.000  C
  C76      1.0000 0.54290  0.59690  0.33420  Biso   1.000  C
  H51      1.0000 0.60230  0.60620  0.31610  Biso   1.000  H
  C77      1.0000 0.46870  0.56100  0.31670  Biso   1.000  C
  H52      1.0000 0.47880  0.54670  0.28640  Biso   1.000  H
  C78      1.0000 0.59950  0.66180  0.39600  Biso   1.000  C
  C79      1.0000 0.49520  0.14960  0.56630  Biso   1.000  C
  H53      1.0000 0.49720  0.14380  0.53350  Biso   1.000  H
  C80      1.0000 0.54130  0.11200  0.59500  Biso   1.000  C
  H54      1.0000 0.57280  0.08140  0.58250  Biso   1.000  H
  C81      1.0000 0.53950  0.12120  0.64330  Biso   1.000  C
  C82      1.0000 0.48900  0.16610  0.65980  Biso   1.000  C
  H55      1.0000 0.48520  0.17300  0.69240  Biso   1.000  H
  C83      1.0000 0.44480  0.20020  0.62710  Biso   1.000  C
  H56      1.0000 0.40970  0.23060  0.63830  Biso   1.000  H
  C84      1.0000 0.59480  0.08450  0.67640  Biso   1.000  C
  C85      1.0000 0.01810  0.65290  0.44110  Biso   1.000  C
  H57      1.0000 0.01930  0.64450  0.47350  Biso   1.000  H
  C86      1.0000 0.06620  0.61730  0.41083  Biso   1.000  C
  H58      1.0000 0.10120  0.58690  0.42240  Biso   1.000  H
  C87      1.0000 0.06110  0.62800  0.36390  Biso   1.000  C
  C88      1.0000 0.01360  0.67440  0.34840  Biso   1.000  C
  H59      1.0000 0.01090  0.68320  0.31600  Biso   1.000  H
  C89      1.0000 0.97060  0.70720  0.38160  Biso   1.000  C
  H60      1.0000 0.93850  0.73880  0.37110  Biso   1.000  H
  C90      1.0000 0.11040  0.59190  0.32904  Biso   1.000  C
  C91      1.0000 0.12300  0.75378  0.51640  Biso   1.000  C
  H61      1.0000 0.14160  0.75720  0.48440  Biso   1.000  H
  C92      1.0000 0.20270  0.75480  0.55070  Biso   1.000  C
  H62      1.0000 0.27430  0.75930  0.54200  Biso   1.000  H
  C93      1.0000 0.17740  0.74930  0.59750  Biso   1.000  C
  C94      1.0000 0.07000  0.74361  0.60860  Biso   1.000  C
  H63      1.0000 0.04930  0.73990  0.64030  Biso   1.000  H
  C95      1.0000 0.99570  0.74347  0.57288  Biso   1.000  C
  H64      1.0000 0.92310  0.74000  0.58030  Biso   1.000  H
  C96      1.0000 0.26290  0.74903  0.63560  Biso   1.000  C
  C97      1.0000 0.12350  0.65312  0.71395  Biso   1.000  C
  H65      1.0000 0.17000  0.65730  0.68840  Biso   1.000  H
  C98      1.0000 0.05020  0.61369  0.71179  Biso   1.000  C
  H66      1.0000 0.04590  0.59150  0.68510  Biso   1.000  H
  C99      1.0000 0.98110  0.60625  0.74942  Biso   1.000  C
  C100     1.0000 0.99240  0.63956  0.78730  Biso   1.000  C
  H67      1.0000 0.94870  0.63530  0.81380  Biso   1.000  H
  C101     1.0000 0.06710  0.67898  0.78664  Biso   1.000  C
  H68      1.0000 0.07220  0.70200  0.81280  Biso   1.000  H
  C102     1.0000 0.89940  0.56312  0.74811  Biso   1.000  C
  C103     1.0000 0.06980  0.82041  0.78874  Biso   1.000  C
  H69      1.0000 0.07730  0.79840  0.81540  Biso   1.000  H
  C104     1.0000 0.99620  0.85988  0.78985  Biso   1.000  C
  H70      1.0000 0.95530  0.86510  0.81710  Biso   1.000  H
  C105     1.0000 0.98170  0.89223  0.75105  Biso   1.000  C
  C106     1.0000 0.04720  0.88320  0.71338  Biso   1.000  C
  H71      1.0000 0.04110  0.90460  0.68620  Biso   1.000  H
  C107     1.0000 0.11990  0.84400  0.71494  Biso   1.000  C
  H72      1.0000 0.16450  0.83940  0.68880  Biso   1.000  H
  C108     1.0000 0.90010  0.93465  0.75065  Biso   1.000  C
  Co9      1.0000 0.25522  0.00185  0.18697  Biso   1.000  Co
  Co10     1.0000 0.75427  0.50036  0.81293  Biso   1.000  Co
  Co11     1.0000 0.11313  0.24935  0.96762  Biso   1.000  Co
  Co12     1.0000 0.39543  0.25101  0.97573  Biso   1.000  Co
  O39      1.0000 0.25830  0.25041  0.92937  Biso   1.000  O
  O40      1.0000 0.15380  0.18750  0.00973  Biso   1.000  O
  O41      1.0000 0.32730  0.19928  0.02091  Biso   1.000  O
  O42      1.0000 0.53980  0.81132  0.05959  Biso   1.000  O
  O43      1.0000 0.66690  0.83057  0.11198  Biso   1.000  O
  O44      1.0000 0.33910  0.31638  0.00875  Biso   1.000  O
  O45      1.0000 0.16520  0.30441  0.01631  Biso   1.000  O
  O46      1.0000 0.05820  0.31046  0.92668  Biso   1.000  O
  O47      1.0000 0.19000  0.33139  0.87910  Biso   1.000  O
  O48      1.0000 0.13490  0.95577  0.15882  Biso   1.000  O
  O49      1.0000 0.09770  0.90320  0.21887  Biso   1.000  O
  O50      1.0000 0.65350  0.44906  0.84583  Biso   1.000  O
  O51      1.0000 0.60890  0.39567  0.78666  Biso   1.000  O
  O52      1.0000 0.72980  0.25089  0.17761  Biso   1.000  O
  O53      1.0000 0.85480  0.25201  0.12313  Biso   1.000  O
  O54      1.0000 0.35860  0.44630  0.28691  Biso   1.000  O
  O55      1.0000 0.37920  0.45787  0.20999  Biso   1.000  O
  O56      1.0000 0.38360  0.04350  0.21163  Biso   1.000  O
  O57      1.0000 0.35340  0.05633  0.28784  Biso   1.000  O
  N19      1.0000 0.25260  0.04887  0.12527  Biso   1.000  N
  N20      1.0000 0.36690  0.94997  0.15495  Biso   1.000  N
  N21      1.0000 0.24560  0.45192  0.12563  Biso   1.000  N
  N22      1.0000 0.88280  0.45428  0.84116  Biso   1.000  N
  N23      1.0000 0.94900  0.80729  0.08067  Biso   1.000  N
  N24      1.0000 0.47130  0.30301  0.92869  Biso   1.000  N
  N25      1.0000 0.52350  0.25176  0.02698  Biso   1.000  N
  N26      1.0000 0.63320  0.31358  0.25058  Biso   1.000  N
  N27      1.0000 0.63200  0.18870  0.25154  Biso   1.000  N
  C109     1.0000 0.15950  0.06628  0.10764  Biso   1.000  C
  H73      1.0000 0.09630  0.05020  0.11800  Biso   1.000  H
  C110     1.0000 0.15170  0.10634  0.07524  Biso   1.000  C
  H74      1.0000 0.08470  0.11730  0.06330  Biso   1.000  H
  C111     1.0000 0.24510  0.13044  0.06031  Biso   1.000  C
  C112     1.0000 0.33900  0.11190  0.07805  Biso   1.000  C
  H75      1.0000 0.40350  0.12710  0.06820  Biso   1.000  H
  C113     1.0000 0.34090  0.07141  0.11012  Biso   1.000  C
  H76      1.0000 0.40720  0.05920  0.12180  Biso   1.000  H
  C114     1.0000 0.24070  0.17635  0.02713  Biso   1.000  C
  C115     1.0000 0.46260  0.93859  0.17483  Biso   1.000  C
  H77      1.0000 0.48200  0.95560  0.20330  Biso   1.000  H
  C116     1.0000 0.53380  0.90320  0.15546  Biso   1.000  C
  H78      1.0000 0.59930  0.89600  0.17080  Biso   1.000  H
  C117     1.0000 0.50760  0.87883  0.11357  Biso   1.000  C
  C118     1.0000 0.41290  0.89150  0.09216  Biso   1.000  C
  H79      1.0000 0.39270  0.87570  0.06320  Biso   1.000  H
  C119     1.0000 0.34710  0.92770  0.11340  Biso   1.000  C
  H80      1.0000 0.28380  0.93740  0.09730  Biso   1.000  H
  C120     1.0000 0.57880  0.83812  0.09309  Biso   1.000  C
  C121     1.0000 0.33600  0.43442  0.10804  Biso   1.000  C
  H81      1.0000 0.40060  0.44980  0.11860  Biso   1.000  H
  C122     1.0000 0.33950  0.39522  0.07543  Biso   1.000  C
  H82      1.0000 0.40560  0.38380  0.06390  Biso   1.000  H
  C123     1.0000 0.24720  0.37223  0.05931  Biso   1.000  C
  C124     1.0000 0.15280  0.39101  0.07633  Biso   1.000  C
  H83      1.0000 0.08730  0.37690  0.06550  Biso   1.000  H
  C125     1.0000 0.15510  0.43025  0.10897  Biso   1.000  C
  H84      1.0000 0.08990  0.44290  0.12050  Biso   1.000  H
  C126     1.0000 0.24910  0.32668  0.02511  Biso   1.000  C
  C127     1.0000 0.87770  0.43510  0.88460  Biso   1.000  C
  H85      1.0000 0.82220  0.44730  0.90380  Biso   1.000  H
  C128     1.0000 0.94770  0.39840  0.90390  Biso   1.000  C
  H86      1.0000 0.93830  0.38540  0.93480  Biso   1.000  H
  C129     1.0000 0.02970  0.38150  0.87756  Biso   1.000  C
  C130     1.0000 0.04290  0.40310  0.83420  Biso   1.000  C
  H87      1.0000 0.10230  0.39380  0.81610  Biso   1.000  H
  C131     1.0000 0.96870  0.43900  0.81670  Biso   1.000  C
  H88      1.0000 0.97880  0.45330  0.78640  Biso   1.000  H
  C132     1.0000 0.09950  0.33820  0.89600  Biso   1.000  C
  C133     1.0000 0.99520  0.85040  0.06630  Biso   1.000  C
  H89      1.0000 0.99720  0.85620  0.03350  Biso   1.000  H
  C134     1.0000 0.04130  0.88800  0.09500  Biso   1.000  C
  H90      1.0000 0.07280  0.91860  0.08250  Biso   1.000  H
  C135     1.0000 0.03950  0.87880  0.14330  Biso   1.000  C
  C136     1.0000 0.98900  0.83390  0.15980  Biso   1.000  C
  H91      1.0000 0.98520  0.82700  0.19240  Biso   1.000  H
  C137     1.0000 0.94480  0.79980  0.12710  Biso   1.000  C
  H92      1.0000 0.90970  0.76940  0.13830  Biso   1.000  H
  C138     1.0000 0.09480  0.91550  0.17640  Biso   1.000  C
  C139     1.0000 0.51810  0.34710  0.94110  Biso   1.000  C
  H93      1.0000 0.51930  0.35550  0.97350  Biso   1.000  H
  C140     1.0000 0.56620  0.38270  0.91083  Biso   1.000  C
  H94      1.0000 0.60120  0.41310  0.92240  Biso   1.000  H
  C141     1.0000 0.56110  0.37200  0.86390  Biso   1.000  C
  C142     1.0000 0.51360  0.32560  0.84840  Biso   1.000  C
  H95      1.0000 0.51090  0.31680  0.81600  Biso   1.000  H
  C143     1.0000 0.47060  0.29280  0.88160  Biso   1.000  C
  H96      1.0000 0.43850  0.26120  0.87110  Biso   1.000  H
  C144     1.0000 0.61040  0.40810  0.82904  Biso   1.000  C
  C145     1.0000 0.62300  0.24622  0.01640  Biso   1.000  C
  H97      1.0000 0.64160  0.24280  0.98440  Biso   1.000  H
  C146     1.0000 0.70270  0.24520  0.05070  Biso   1.000  C
  H98      1.0000 0.77430  0.24070  0.04200  Biso   1.000  H
  C147     1.0000 0.67740  0.25070  0.09750  Biso   1.000  C
  C148     1.0000 0.57000  0.25639  0.10860  Biso   1.000  C
  H99      1.0000 0.54930  0.26010  0.14030  Biso   1.000  H
  C149     1.0000 0.49570  0.25653  0.07288  Biso   1.000  C
  H100     1.0000 0.42310  0.26000  0.08030  Biso   1.000  H
  C150     1.0000 0.76290  0.25097  0.13560  Biso   1.000  C
  C151     1.0000 0.62350  0.34688  0.21395  Biso   1.000  C
  H101     1.0000 0.67000  0.34270  0.18840  Biso   1.000  H
  C152     1.0000 0.55020  0.38631  0.21179  Biso   1.000  C
  H102     1.0000 0.54590  0.40850  0.18510  Biso   1.000  H
  C153     1.0000 0.48110  0.39375  0.24942  Biso   1.000  C
  C154     1.0000 0.49240  0.36044  0.28730  Biso   1.000  C
  H103     1.0000 0.44870  0.36470  0.31380  Biso   1.000  H
  C155     1.0000 0.56710  0.32102  0.28664  Biso   1.000  C
  H104     1.0000 0.57220  0.29800  0.31280  Biso   1.000  H
  C156     1.0000 0.39940  0.43688  0.24811  Biso   1.000  C
  C157     1.0000 0.56980  0.17959  0.28874  Biso   1.000  C
  H105     1.0000 0.57730  0.20160  0.31540  Biso   1.000  H
  C158     1.0000 0.49620  0.14012  0.28985  Biso   1.000  C
  H106     1.0000 0.45530  0.13490  0.31710  Biso   1.000  H
  C159     1.0000 0.48170  0.10777  0.25105  Biso   1.000  C
  C160     1.0000 0.54720  0.11680  0.21338  Biso   1.000  C
  H107     1.0000 0.54110  0.09540  0.18620  Biso   1.000  H
  C161     1.0000 0.61990  0.15600  0.21494  Biso   1.000  C
  H108     1.0000 0.66450  0.16060  0.18880  Biso   1.000  H
  C162     1.0000 0.40010  0.06535  0.25065  Biso   1.000  C
  Co13     1.0000 0.24478  0.00185  0.31303  Biso   1.000  Co
  Co14     1.0000 0.74573  0.50036  0.68707  Biso   1.000  Co
  Co15     1.0000 0.38687  0.24935  0.53238  Biso   1.000  Co
  Co16     1.0000 0.10457  0.25101  0.52427  Biso   1.000  Co
  O58      1.0000 0.24170  0.25041  0.57063  Biso   1.000  O
  O59      1.0000 0.34620  0.18750  0.49027  Biso   1.000  O
  O60      1.0000 0.17270  0.19928  0.47909  Biso   1.000  O
  O61      1.0000 0.96020  0.81132  0.44041  Biso   1.000  O
  O62      1.0000 0.83310  0.83057  0.38802  Biso   1.000  O
  O63      1.0000 0.16090  0.31638  0.49125  Biso   1.000  O
  O64      1.0000 0.33480  0.30441  0.48369  Biso   1.000  O
  O65      1.0000 0.44180  0.31046  0.57332  Biso   1.000  O
  O66      1.0000 0.31000  0.33139  0.62090  Biso   1.000  O
  O67      1.0000 0.36510  0.95577  0.34118  Biso   1.000  O
  O68      1.0000 0.40230  0.90320  0.28113  Biso   1.000  O
  O69      1.0000 0.84650  0.44906  0.65417  Biso   1.000  O
  O70      1.0000 0.89110  0.39567  0.71334  Biso   1.000  O
  O71      1.0000 0.77020  0.25089  0.32239  Biso   1.000  O
  O72      1.0000 0.64520  0.25201  0.37687  Biso   1.000  O
  O73      1.0000 0.14140  0.44630  0.21309  Biso   1.000  O
  O74      1.0000 0.12080  0.45787  0.29001  Biso   1.000  O
  O75      1.0000 0.11640  0.04350  0.28837  Biso   1.000  O
  O76      1.0000 0.14660  0.05633  0.21216  Biso   1.000  O
  N28      1.0000 0.24740  0.04887  0.37473  Biso   1.000  N
  N29      1.0000 0.13310  0.94997  0.34505  Biso   1.000  N
  N30      1.0000 0.25440  0.45192  0.37437  Biso   1.000  N
  N31      1.0000 0.61720  0.45428  0.65884  Biso   1.000  N
  N32      1.0000 0.55100  0.80729  0.41933  Biso   1.000  N
  N33      1.0000 0.02870  0.30301  0.57131  Biso   1.000  N
  N34      1.0000 0.97650  0.25176  0.47302  Biso   1.000  N
  N35      1.0000 0.86680  0.31358  0.24942  Biso   1.000  N
  N36      1.0000 0.86800  0.18870  0.24846  Biso   1.000  N
  C163     1.0000 0.34050  0.06628  0.39236  Biso   1.000  C
  H109     1.0000 0.40370  0.05020  0.38200  Biso   1.000  H
  C164     1.0000 0.34830  0.10634  0.42476  Biso   1.000  C
  H110     1.0000 0.41530  0.11730  0.43670  Biso   1.000  H
  C165     1.0000 0.25490  0.13044  0.43969  Biso   1.000  C
  C166     1.0000 0.16100  0.11190  0.42195  Biso   1.000  C
  H111     1.0000 0.09650  0.12710  0.43180  Biso   1.000  H
  C167     1.0000 0.15910  0.07141  0.38988  Biso   1.000  C
  H112     1.0000 0.09280  0.05920  0.37820  Biso   1.000  H
  C168     1.0000 0.25930  0.17635  0.47287  Biso   1.000  C
  C169     1.0000 0.03740  0.93859  0.32517  Biso   1.000  C
  H113     1.0000 0.01800  0.95560  0.29670  Biso   1.000  H
  C170     1.0000 0.96620  0.90320  0.34454  Biso   1.000  C
  H114     1.0000 0.90070  0.89600  0.32920  Biso   1.000  H
  C171     1.0000 0.99240  0.87883  0.38643  Biso   1.000  C
  C172     1.0000 0.08710  0.89150  0.40784  Biso   1.000  C
  H115     1.0000 0.10730  0.87570  0.43680  Biso   1.000  H
  C173     1.0000 0.15290  0.92770  0.38660  Biso   1.000  C
  H116     1.0000 0.21620  0.93740  0.40270  Biso   1.000  H
  C174     1.0000 0.92120  0.83812  0.40691  Biso   1.000  C
  C175     1.0000 0.16400  0.43442  0.39196  Biso   1.000  C
  H117     1.0000 0.09940  0.44980  0.38140  Biso   1.000  H
  C176     1.0000 0.16050  0.39522  0.42457  Biso   1.000  C
  H118     1.0000 0.09440  0.38380  0.43610  Biso   1.000  H
  C177     1.0000 0.25280  0.37223  0.44069  Biso   1.000  C
  C178     1.0000 0.34720  0.39101  0.42367  Biso   1.000  C
  H119     1.0000 0.41270  0.37690  0.43450  Biso   1.000  H
  C179     1.0000 0.34490  0.43025  0.39103  Biso   1.000  C
  H120     1.0000 0.41010  0.44290  0.37950  Biso   1.000  H
  C180     1.0000 0.25090  0.32668  0.47489  Biso   1.000  C
  C181     1.0000 0.62230  0.43510  0.61540  Biso   1.000  C
  H121     1.0000 0.67780  0.44730  0.59620  Biso   1.000  H
  C182     1.0000 0.55230  0.39840  0.59610  Biso   1.000  C
  H122     1.0000 0.56170  0.38540  0.56520  Biso   1.000  H
  C183     1.0000 0.47030  0.38150  0.62244  Biso   1.000  C
  C184     1.0000 0.45710  0.40310  0.66580  Biso   1.000  C
  H123     1.0000 0.39770  0.39380  0.68390  Biso   1.000  H
  C185     1.0000 0.53130  0.43900  0.68330  Biso   1.000  C
  H124     1.0000 0.52120  0.45330  0.71360  Biso   1.000  H
  C186     1.0000 0.40050  0.33820  0.60400  Biso   1.000  C
  C187     1.0000 0.50480  0.85040  0.43370  Biso   1.000  C
  H125     1.0000 0.50280  0.85620  0.46650  Biso   1.000  H
  C188     1.0000 0.45870  0.88800  0.40500  Biso   1.000  C
  H126     1.0000 0.42720  0.91860  0.41750  Biso   1.000  H
  C189     1.0000 0.46050  0.87880  0.35670  Biso   1.000  C
  C190     1.0000 0.51100  0.83390  0.34020  Biso   1.000  C
  H127     1.0000 0.51480  0.82700  0.30760  Biso   1.000  H
  C191     1.0000 0.55520  0.79980  0.37290  Biso   1.000  C
  H128     1.0000 0.59030  0.76940  0.36170  Biso   1.000  H
  C192     1.0000 0.40520  0.91550  0.32360  Biso   1.000  C
  C193     1.0000 0.98190  0.34710  0.55890  Biso   1.000  C
  H129     1.0000 0.98070  0.35550  0.52650  Biso   1.000  H
  C194     1.0000 0.93380  0.38270  0.58917  Biso   1.000  C
  H130     1.0000 0.89880  0.41310  0.57760  Biso   1.000  H
  C195     1.0000 0.93890  0.37200  0.63610  Biso   1.000  C
  C196     1.0000 0.98640  0.32560  0.65160  Biso   1.000  C
  H131     1.0000 0.98910  0.31680  0.68400  Biso   1.000  H
  C197     1.0000 0.02940  0.29280  0.61840  Biso   1.000  C
  H132     1.0000 0.06150  0.26120  0.62890  Biso   1.000  H
  C198     1.0000 0.88960  0.40810  0.67096  Biso   1.000  C
  C199     1.0000 0.87700  0.24622  0.48360  Biso   1.000  C
  H133     1.0000 0.85840  0.24280  0.51560  Biso   1.000  H
  C200     1.0000 0.79730  0.24520  0.44930  Biso   1.000  C
  H134     1.0000 0.72570  0.24070  0.45800  Biso   1.000  H
  C201     1.0000 0.82260  0.25070  0.40250  Biso   1.000  C
  C202     1.0000 0.93000  0.25639  0.39140  Biso   1.000  C
  H135     1.0000 0.95070  0.26010  0.35970  Biso   1.000  H
  C203     1.0000 0.00430  0.25653  0.42712  Biso   1.000  C
  H136     1.0000 0.07690  0.26000  0.41970  Biso   1.000  H
  C204     1.0000 0.73710  0.25097  0.36440  Biso   1.000  C
  C205     1.0000 0.87650  0.34688  0.28605  Biso   1.000  C
  H137     1.0000 0.83000  0.34270  0.31160  Biso   1.000  H
  C206     1.0000 0.94980  0.38631  0.28821  Biso   1.000  C
  H138     1.0000 0.95410  0.40850  0.31490  Biso   1.000  H
  C207     1.0000 0.01890  0.39375  0.25058  Biso   1.000  C
  C208     1.0000 0.00760  0.36044  0.21270  Biso   1.000  C
  H139     1.0000 0.05130  0.36470  0.18620  Biso   1.000  H
  C209     1.0000 0.93290  0.32102  0.21336  Biso   1.000  C
  H140     1.0000 0.92780  0.29800  0.18720  Biso   1.000  H
  C210     1.0000 0.10060  0.43688  0.25189  Biso   1.000  C
  C211     1.0000 0.93020  0.17959  0.21126  Biso   1.000  C
  H141     1.0000 0.92270  0.20160  0.18460  Biso   1.000  H
  C212     1.0000 0.00380  0.14012  0.21015  Biso   1.000  C
  H142     1.0000 0.04470  0.13490  0.18290  Biso   1.000  H
  C213     1.0000 0.01830  0.10777  0.24895  Biso   1.000  C
  C214     1.0000 0.95280  0.11680  0.28662  Biso   1.000  C
  H143     1.0000 0.95890  0.09540  0.31380  Biso   1.000  H
  C215     1.0000 0.88010  0.15600  0.28506  Biso   1.000  C
  H144     1.0000 0.83550  0.16060  0.31120  Biso   1.000  H
  C216     1.0000 0.09990  0.06535  0.24935  Biso   1.000  C
  Co17     1.0000 0.25000  0.74901  0.75000  Biso   1.000  Co
  Co18     1.0000 0.75000  0.25099  0.25000  Biso   1.000  Co
  O77      1.0000 0.75000  0.04243  0.75000  Biso   1.000  O
  O78      1.0000 0.25000  0.95757  0.25000  Biso   1.000  O
  O79      1.0000 0.25000  0.54577  0.25000  Biso   1.000  O
  O80      1.0000 0.75000  0.45423  0.75000  Biso   1.000  O
