data_image0
_cell_length_a       5.0139
_cell_length_b       9.309
_cell_length_c       20.923
_cell_angle_alpha    90
_cell_angle_beta     110.294
_cell_angle_gamma    90

_symmetry_space_group_name_H-M    "P 1"
_symmetry_int_tables_number       1

loop_
  _symmetry_equiv_pos_as_xyz
  'x, y, z'

loop_
  _atom_site_label
  _atom_site_occupancy
  _atom_site_fract_x
  _atom_site_fract_y
  _atom_site_fract_z
  _atom_site_thermal_displace_type
  _atom_site_B_iso_or_equiv
  _atom_site_type_symbol
  Fe1      1.0000 0.40093  0.68831  0.78393  Biso   1.000  Fe
  P1       1.0000 0.78160  0.85277  0.71030  Biso   1.000  P
  P2       1.0000 0.61970  0.39334  0.58376  Biso   1.000  P
  B1       1.0000 0.46220  0.63450  0.63780  Biso   1.000  B
  O1       1.0000 0.46040  0.58510  0.70421  Biso   1.000  O
  O2       1.0000 0.55970  0.78570  0.64487  Biso   1.000  O
  O3       1.0000 0.86780  0.36510  0.55927  Biso   1.000  O
  O4       1.0000 0.66000  0.54740  0.61555  Biso   1.000  O
  O5       1.0000 0.79130  0.01440  0.69724  Biso   1.000  O
  O6       1.0000 0.17570  0.62930  0.58539  Biso   1.000  O
  O7       1.0000 0.34000  0.38550  0.52461  Biso   1.000  O
  O8       1.0000 0.67530  0.83020  0.77017  Biso   1.000  O
  O9       1.0000 0.62540  0.28280  0.63765  Biso   1.000  O
  O10      1.0000 0.06870  0.78460  0.72135  Biso   1.000  O
  H1       1.0000 0.06800  0.64000  0.59900  Biso   1.000  H
  H2       1.0000 0.42900  0.49900  0.70700  Biso   1.000  H
  Fe2      1.0000 0.59907  0.18831  0.71607  Biso   1.000  Fe
  P3       1.0000 0.21840  0.35277  0.78970  Biso   1.000  P
  P4       1.0000 0.38030  0.89334  0.91624  Biso   1.000  P
  B2       1.0000 0.53780  0.13450  0.86220  Biso   1.000  B
  O11      1.0000 0.53960  0.08510  0.79579  Biso   1.000  O
  O12      1.0000 0.44030  0.28570  0.85513  Biso   1.000  O
  O13      1.0000 0.13220  0.86510  0.94073  Biso   1.000  O
  O14      1.0000 0.34000  0.04740  0.88445  Biso   1.000  O
  O15      1.0000 0.20870  0.51440  0.80276  Biso   1.000  O
  O16      1.0000 0.82430  0.12930  0.91461  Biso   1.000  O
  O17      1.0000 0.66000  0.88550  0.97539  Biso   1.000  O
  O18      1.0000 0.32470  0.33020  0.72983  Biso   1.000  O
  O19      1.0000 0.37460  0.78280  0.86235  Biso   1.000  O
  O20      1.0000 0.93130  0.28460  0.77865  Biso   1.000  O
  H3       1.0000 0.93200  0.14000  0.90100  Biso   1.000  H
  H4       1.0000 0.57100  0.99900  0.79300  Biso   1.000  H
  Fe3      1.0000 0.59907  0.31169  0.21607  Biso   1.000  Fe
  P5       1.0000 0.21840  0.14723  0.28970  Biso   1.000  P
  P6       1.0000 0.38030  0.60666  0.41624  Biso   1.000  P
  B3       1.0000 0.53780  0.36550  0.36220  Biso   1.000  B
  O21      1.0000 0.53960  0.41490  0.29579  Biso   1.000  O
  O22      1.0000 0.44030  0.21430  0.35513  Biso   1.000  O
  O23      1.0000 0.13220  0.63490  0.44073  Biso   1.000  O
  O24      1.0000 0.34000  0.45260  0.38445  Biso   1.000  O
  O25      1.0000 0.20870  0.98560  0.30276  Biso   1.000  O
  O26      1.0000 0.82430  0.37070  0.41461  Biso   1.000  O
  O27      1.0000 0.66000  0.61450  0.47539  Biso   1.000  O
  O28      1.0000 0.32470  0.16980  0.22983  Biso   1.000  O
  O29      1.0000 0.37460  0.71720  0.36235  Biso   1.000  O
  O30      1.0000 0.93130  0.21540  0.27865  Biso   1.000  O
  H5       1.0000 0.93200  0.36000  0.40100  Biso   1.000  H
  H6       1.0000 0.57100  0.50100  0.29300  Biso   1.000  H
  Fe4      1.0000 0.40093  0.81169  0.28393  Biso   1.000  Fe
  P7       1.0000 0.78160  0.64723  0.21030  Biso   1.000  P
  P8       1.0000 0.61970  0.10666  0.08376  Biso   1.000  P
  B4       1.0000 0.46220  0.86550  0.13780  Biso   1.000  B
  O31      1.0000 0.46040  0.91490  0.20421  Biso   1.000  O
  O32      1.0000 0.55970  0.71430  0.14487  Biso   1.000  O
  O33      1.0000 0.86780  0.13490  0.05927  Biso   1.000  O
  O34      1.0000 0.66000  0.95260  0.11555  Biso   1.000  O
  O35      1.0000 0.79130  0.48560  0.19724  Biso   1.000  O
  O36      1.0000 0.17570  0.87070  0.08539  Biso   1.000  O
  O37      1.0000 0.34000  0.11450  0.02461  Biso   1.000  O
  O38      1.0000 0.67530  0.66980  0.27017  Biso   1.000  O
  O39      1.0000 0.62540  0.21720  0.13765  Biso   1.000  O
  O40      1.0000 0.06870  0.71540  0.22135  Biso   1.000  O
  H7       1.0000 0.06800  0.86000  0.09900  Biso   1.000  H
  H8       1.0000 0.42900  0.00100  0.20700  Biso   1.000  H
  Fe5      1.0000 0.00000  0.50000  0.50000  Biso   1.000  Fe
  Fe6      1.0000 0.00000  0.00000  0.00000  Biso   1.000  Fe
