data_image0
_cell_length_a       13.612
_cell_length_b       9.5753
_cell_length_c       14.022
_cell_angle_alpha    90
_cell_angle_beta     90
_cell_angle_gamma    90

_symmetry_space_group_name_H-M    "P 1"
_symmetry_int_tables_number       1

loop_
  _symmetry_equiv_pos_as_xyz
  'x, y, z'

loop_
  _atom_site_label
  _atom_site_occupancy
  _atom_site_fract_x
  _atom_site_fract_y
  _atom_site_fract_z
  _atom_site_thermal_displace_type
  _atom_site_B_iso_or_equiv
  _atom_site_type_symbol
  V1       1.0000 0.36284  0.80954  0.69760  Biso   1.000  V
  P1       1.0000 0.55923  0.01231  0.72682  Biso   1.000  P
  H1       1.0000 0.64200  0.94400  0.72800  Biso   1.000  H
  P2       1.0000 0.67492  0.86810  0.37891  Biso   1.000  P
  H2       1.0000 0.61700  0.79600  0.32300  Biso   1.000  H
  F1       1.0000 0.44224  0.84550  0.56140  Biso   1.000  F
  O1       1.0000 0.55950  0.13180  0.79787  Biso   1.000  O
  O2       1.0000 0.76600  0.77790  0.39410  Biso   1.000  O
  O3       1.0000 0.47880  0.90920  0.75350  Biso   1.000  O
  O4       1.0000 0.69970  0.00650  0.33430  Biso   1.000  O
  O5       1.0000 0.55420  0.06180  0.62435  Biso   1.000  O
  O6       1.0000 0.62180  0.88590  0.47500  Biso   1.000  O
  V2       1.0000 0.13716  0.19046  0.19760  Biso   1.000  V
  P3       1.0000 0.94077  0.98769  0.22682  Biso   1.000  P
  H3       1.0000 0.85800  0.05600  0.22800  Biso   1.000  H
  P4       1.0000 0.82508  0.13190  0.87891  Biso   1.000  P
  H4       1.0000 0.88300  0.20400  0.82300  Biso   1.000  H
  F2       1.0000 0.05776  0.15450  0.06140  Biso   1.000  F
  O7       1.0000 0.94050  0.86820  0.29787  Biso   1.000  O
  O8       1.0000 0.73400  0.22210  0.89410  Biso   1.000  O
  O9       1.0000 0.02120  0.09080  0.25350  Biso   1.000  O
  O10      1.0000 0.80030  0.99350  0.83430  Biso   1.000  O
  O11      1.0000 0.94580  0.93820  0.12435  Biso   1.000  O
  O12      1.0000 0.87820  0.11410  0.97500  Biso   1.000  O
  V3       1.0000 0.63716  0.30954  0.80240  Biso   1.000  V
  P5       1.0000 0.44077  0.51231  0.77318  Biso   1.000  P
  H5       1.0000 0.35800  0.44400  0.77200  Biso   1.000  H
  P6       1.0000 0.32508  0.36810  0.12109  Biso   1.000  P
  H6       1.0000 0.38300  0.29600  0.17700  Biso   1.000  H
  F3       1.0000 0.55776  0.34550  0.93860  Biso   1.000  F
  O13      1.0000 0.44050  0.63180  0.70213  Biso   1.000  O
  O14      1.0000 0.23400  0.27790  0.10590  Biso   1.000  O
  O15      1.0000 0.52120  0.40920  0.74650  Biso   1.000  O
  O16      1.0000 0.30030  0.50650  0.16570  Biso   1.000  O
  O17      1.0000 0.44580  0.56180  0.87565  Biso   1.000  O
  O18      1.0000 0.37820  0.38590  0.02500  Biso   1.000  O
  V4       1.0000 0.86284  0.69046  0.30240  Biso   1.000  V
  P7       1.0000 0.05923  0.48769  0.27318  Biso   1.000  P
  H7       1.0000 0.14200  0.55600  0.27200  Biso   1.000  H
  P8       1.0000 0.17492  0.63190  0.62109  Biso   1.000  P
  H8       1.0000 0.11700  0.70400  0.67700  Biso   1.000  H
  F4       1.0000 0.94224  0.65450  0.43860  Biso   1.000  F
  O19      1.0000 0.05950  0.36820  0.20213  Biso   1.000  O
  O20      1.0000 0.26600  0.72210  0.60590  Biso   1.000  O
  O21      1.0000 0.97880  0.59080  0.24650  Biso   1.000  O
  O22      1.0000 0.19970  0.49350  0.66570  Biso   1.000  O
  O23      1.0000 0.05420  0.43820  0.37565  Biso   1.000  O
  O24      1.0000 0.12180  0.61410  0.52500  Biso   1.000  O
  V5       1.0000 0.63716  0.19046  0.30240  Biso   1.000  V
  P9       1.0000 0.44077  0.98769  0.27318  Biso   1.000  P
  H9       1.0000 0.35800  0.05600  0.27200  Biso   1.000  H
  P10      1.0000 0.32508  0.13190  0.62109  Biso   1.000  P
  H10      1.0000 0.38300  0.20400  0.67700  Biso   1.000  H
  F5       1.0000 0.55776  0.15450  0.43860  Biso   1.000  F
  O25      1.0000 0.44050  0.86820  0.20213  Biso   1.000  O
  O26      1.0000 0.23400  0.22210  0.60590  Biso   1.000  O
  O27      1.0000 0.52120  0.09080  0.24650  Biso   1.000  O
  O28      1.0000 0.30030  0.99350  0.66570  Biso   1.000  O
  O29      1.0000 0.44580  0.93820  0.37565  Biso   1.000  O
  O30      1.0000 0.37820  0.11410  0.52500  Biso   1.000  O
  V6       1.0000 0.86284  0.80954  0.80240  Biso   1.000  V
  P11      1.0000 0.05923  0.01231  0.77318  Biso   1.000  P
  H11      1.0000 0.14200  0.94400  0.77200  Biso   1.000  H
  P12      1.0000 0.17492  0.86810  0.12109  Biso   1.000  P
  H12      1.0000 0.11700  0.79600  0.17700  Biso   1.000  H
  F6       1.0000 0.94224  0.84550  0.93860  Biso   1.000  F
  O31      1.0000 0.05950  0.13180  0.70213  Biso   1.000  O
  O32      1.0000 0.26600  0.77790  0.10590  Biso   1.000  O
  O33      1.0000 0.97880  0.90920  0.74650  Biso   1.000  O
  O34      1.0000 0.19970  0.00650  0.16570  Biso   1.000  O
  O35      1.0000 0.05420  0.06180  0.87565  Biso   1.000  O
  O36      1.0000 0.12180  0.88590  0.02500  Biso   1.000  O
  V7       1.0000 0.36284  0.69046  0.19760  Biso   1.000  V
  P13      1.0000 0.55923  0.48769  0.22682  Biso   1.000  P
  H13      1.0000 0.64200  0.55600  0.22800  Biso   1.000  H
  P14      1.0000 0.67492  0.63190  0.87891  Biso   1.000  P
  H14      1.0000 0.61700  0.70400  0.82300  Biso   1.000  H
  F7       1.0000 0.44224  0.65450  0.06140  Biso   1.000  F
  O37      1.0000 0.55950  0.36820  0.29787  Biso   1.000  O
  O38      1.0000 0.76600  0.72210  0.89410  Biso   1.000  O
  O39      1.0000 0.47880  0.59080  0.25350  Biso   1.000  O
  O40      1.0000 0.69970  0.49350  0.83430  Biso   1.000  O
  O41      1.0000 0.55420  0.43820  0.12435  Biso   1.000  O
  O42      1.0000 0.62180  0.61410  0.97500  Biso   1.000  O
  V8       1.0000 0.13716  0.30954  0.69760  Biso   1.000  V
  P15      1.0000 0.94077  0.51231  0.72682  Biso   1.000  P
  H15      1.0000 0.85800  0.44400  0.72800  Biso   1.000  H
  P16      1.0000 0.82508  0.36810  0.37891  Biso   1.000  P
  H16      1.0000 0.88300  0.29600  0.32300  Biso   1.000  H
  F8       1.0000 0.05776  0.34550  0.56140  Biso   1.000  F
  O43      1.0000 0.94050  0.63180  0.79787  Biso   1.000  O
  O44      1.0000 0.73400  0.27790  0.39410  Biso   1.000  O
  O45      1.0000 0.02120  0.40920  0.75350  Biso   1.000  O
  O46      1.0000 0.80030  0.50650  0.33430  Biso   1.000  O
  O47      1.0000 0.94580  0.56180  0.62435  Biso   1.000  O
  O48      1.0000 0.87820  0.38590  0.47500  Biso   1.000  O
  V9       1.0000 0.50000  0.00000  0.50000  Biso   1.000  V
  V10      1.0000 0.00000  0.00000  0.00000  Biso   1.000  V
  V11      1.0000 0.50000  0.50000  0.00000  Biso   1.000  V
  V12      1.0000 0.00000  0.50000  0.50000  Biso   1.000  V
