data_image0
_cell_length_a       28.4095
_cell_length_b       28.0922
_cell_length_c       9.4743
_cell_angle_alpha    90
_cell_angle_beta     90
_cell_angle_gamma    90

_symmetry_space_group_name_H-M    "P 1"
_symmetry_int_tables_number       1

loop_
  _symmetry_equiv_pos_as_xyz
  'x, y, z'

loop_
  _atom_site_label
  _atom_site_occupancy
  _atom_site_fract_x
  _atom_site_fract_y
  _atom_site_fract_z
  _atom_site_thermal_displace_type
  _atom_site_B_iso_or_equiv
  _atom_site_type_symbol
  Zn1      1.0000 0.13155  0.51118  0.90457  Biso   1.000  Zn
  N1       1.0000 0.36746  0.33949  0.40060  Biso   1.000  N
  N2       1.0000 0.38898  0.07802  0.64250  Biso   1.000  N
  N3       1.0000 0.51327  0.42657  0.09270  Biso   1.000  N
  N4       1.0000 0.57508  0.47100  0.05500  Biso   1.000  N
  N5       1.0000 0.39479  0.15532  0.62130  Biso   1.000  N
  C1       1.0000 0.40195  0.36160  0.31890  Biso   1.000  C
  C2       1.0000 0.37168  0.11606  0.57890  Biso   1.000  C
  H1       1.0000 0.34710  0.11570  0.51420  Biso   1.000  H
  N6       1.0000 0.20972  0.44356  0.59250  Biso   1.000  N
  C3       1.0000 0.41765  0.27943  0.50780  Biso   1.000  C
  H2       1.0000 0.44280  0.30060  0.50430  Biso   1.000  H
  C4       1.0000 0.24995  0.41678  0.54280  Biso   1.000  C
  C5       1.0000 0.37435  0.29312  0.45690  Biso   1.000  C
  C6       1.0000 0.38690  0.20302  0.57030  Biso   1.000  C
  C7       1.0000 0.42852  0.14129  0.71620  Biso   1.000  C
  H3       1.0000 0.45000  0.16070  0.76250  Biso   1.000  H
  C8       1.0000 0.47408  0.40528  0.16590  Biso   1.000  C
  N7       1.0000 0.16226  0.48294  0.73320  Biso   1.000  N
  C9       1.0000 0.43125  0.33521  0.23240  Biso   1.000  C
  H4       1.0000 0.42650  0.30260  0.22430  Biso   1.000  H
  C10      1.0000 0.46731  0.35647  0.15790  Biso   1.000  C
  H5       1.0000 0.48710  0.33800  0.10220  Biso   1.000  H
  C11      1.0000 0.32710  0.36600  0.44800  Biso   1.000  C
  C12      1.0000 0.27618  0.39116  0.63700  Biso   1.000  C
  H6       1.0000 0.26780  0.39050  0.73190  Biso   1.000  H
  C13      1.0000 0.34371  0.21609  0.52170  Biso   1.000  C
  H7       1.0000 0.31850  0.19510  0.52720  Biso   1.000  H
  C14      1.0000 0.42428  0.23421  0.56450  Biso   1.000  C
  H8       1.0000 0.45370  0.22510  0.59820  Biso   1.000  H
  C15      1.0000 0.54068  0.46076  0.14250  Biso   1.000  C
  H9       1.0000 0.53610  0.47570  0.22890  Biso   1.000  H
  C16      1.0000 0.40877  0.41097  0.32440  Biso   1.000  C
  H10      1.0000 0.38900  0.42960  0.37990  Biso   1.000  H
  C17      1.0000 0.33766  0.26112  0.46400  Biso   1.000  C
  H11      1.0000 0.30830  0.26990  0.42950  Biso   1.000  H
  C18      1.0000 0.44456  0.43232  0.24800  Biso   1.000  C
  H12      1.0000 0.44860  0.46510  0.25230  Biso   1.000  H
  C19      1.0000 0.42422  0.09329  0.72910  Biso   1.000  C
  H13      1.0000 0.44240  0.07400  0.78750  Biso   1.000  H
  C20      1.0000 0.31546  0.36601  0.59010  Biso   1.000  C
  H14      1.0000 0.33390  0.34920  0.65420  Biso   1.000  H
  C21      1.0000 0.20179  0.45928  0.72440  Biso   1.000  C
  H15      1.0000 0.22190  0.45400  0.80020  Biso   1.000  H
  C22      1.0000 0.56813  0.44260  0.93980  Biso   1.000  C
  H16      1.0000 0.58650  0.44230  0.85860  Biso   1.000  H
  C23      1.0000 0.26041  0.41570  0.40240  Biso   1.000  C
  H17      1.0000 0.24180  0.43260  0.33880  Biso   1.000  H
  C24      1.0000 0.52986  0.41470  0.96400  Biso   1.000  C
  H18      1.0000 0.51750  0.39190  0.90340  Biso   1.000  H
  C25      1.0000 0.29810  0.39010  0.35450  Biso   1.000  C
  H19      1.0000 0.30440  0.38880  0.25820  Biso   1.000  H
  C26      1.0000 0.14370  0.48280  0.60620  Biso   1.000  C
  H20      1.0000 0.11530  0.49720  0.58260  Biso   1.000  H
  C27      1.0000 0.17240  0.45800  0.51120  Biso   1.000  C
  H21      1.0000 0.16740  0.45250  0.41550  Biso   1.000  H
  Zn2      1.0000 0.36845  0.01118  0.59543  Biso   1.000  Zn
  N8       1.0000 0.13254  0.83949  0.09940  Biso   1.000  N
  N9       1.0000 0.11102  0.57802  0.85750  Biso   1.000  N
  N10      1.0000 0.98673  0.92657  0.40730  Biso   1.000  N
  N11      1.0000 0.92492  0.97100  0.44500  Biso   1.000  N
  N12      1.0000 0.10521  0.65532  0.87870  Biso   1.000  N
  C28      1.0000 0.09805  0.86160  0.18110  Biso   1.000  C
  C29      1.0000 0.12832  0.61606  0.92110  Biso   1.000  C
  H22      1.0000 0.15290  0.61570  0.98580  Biso   1.000  H
  N13      1.0000 0.29028  0.94356  0.90750  Biso   1.000  N
  C30      1.0000 0.08235  0.77943  0.99220  Biso   1.000  C
  H23      1.0000 0.05720  0.80060  0.99570  Biso   1.000  H
  C31      1.0000 0.25005  0.91678  0.95720  Biso   1.000  C
  C32      1.0000 0.12565  0.79312  0.04310  Biso   1.000  C
  C33      1.0000 0.11310  0.70302  0.92970  Biso   1.000  C
  C34      1.0000 0.07148  0.64129  0.78380  Biso   1.000  C
  H24      1.0000 0.05000  0.66070  0.73750  Biso   1.000  H
  C35      1.0000 0.02592  0.90528  0.33410  Biso   1.000  C
  N14      1.0000 0.33774  0.98294  0.76680  Biso   1.000  N
  C36      1.0000 0.06875  0.83521  0.26760  Biso   1.000  C
  H25      1.0000 0.07350  0.80260  0.27570  Biso   1.000  H
  C37      1.0000 0.03269  0.85647  0.34210  Biso   1.000  C
  H26      1.0000 0.01290  0.83800  0.39780  Biso   1.000  H
  C38      1.0000 0.17290  0.86600  0.05200  Biso   1.000  C
  C39      1.0000 0.22382  0.89116  0.86300  Biso   1.000  C
  H27      1.0000 0.23220  0.89050  0.76810  Biso   1.000  H
  C40      1.0000 0.15629  0.71609  0.97830  Biso   1.000  C
  H28      1.0000 0.18150  0.69510  0.97280  Biso   1.000  H
  C41      1.0000 0.07572  0.73421  0.93550  Biso   1.000  C
  H29      1.0000 0.04630  0.72510  0.90180  Biso   1.000  H
  C42      1.0000 0.95932  0.96076  0.35750  Biso   1.000  C
  H30      1.0000 0.96390  0.97570  0.27110  Biso   1.000  H
  C43      1.0000 0.09123  0.91097  0.17560  Biso   1.000  C
  H31      1.0000 0.11100  0.92960  0.12010  Biso   1.000  H
  C44      1.0000 0.16234  0.76112  0.03600  Biso   1.000  C
  H32      1.0000 0.19170  0.76990  0.07050  Biso   1.000  H
  C45      1.0000 0.05544  0.93232  0.25200  Biso   1.000  C
  H33      1.0000 0.05140  0.96510  0.24770  Biso   1.000  H
  C46      1.0000 0.07578  0.59329  0.77090  Biso   1.000  C
  H34      1.0000 0.05760  0.57400  0.71250  Biso   1.000  H
  C47      1.0000 0.18454  0.86601  0.90990  Biso   1.000  C
  H35      1.0000 0.16610  0.84920  0.84580  Biso   1.000  H
  C48      1.0000 0.29821  0.95928  0.77560  Biso   1.000  C
  H36      1.0000 0.27810  0.95400  0.69980  Biso   1.000  H
  C49      1.0000 0.93187  0.94260  0.56020  Biso   1.000  C
  H37      1.0000 0.91350  0.94230  0.64140  Biso   1.000  H
  C50      1.0000 0.23959  0.91570  0.09760  Biso   1.000  C
  H38      1.0000 0.25820  0.93260  0.16120  Biso   1.000  H
  C51      1.0000 0.97014  0.91470  0.53600  Biso   1.000  C
  H39      1.0000 0.98250  0.89190  0.59660  Biso   1.000  H
  C52      1.0000 0.20190  0.89010  0.14550  Biso   1.000  C
  H40      1.0000 0.19560  0.88880  0.24180  Biso   1.000  H
  C53      1.0000 0.35630  0.98280  0.89380  Biso   1.000  C
  H41      1.0000 0.38470  0.99720  0.91740  Biso   1.000  H
  C54      1.0000 0.32760  0.95800  0.98880  Biso   1.000  C
  H42      1.0000 0.33260  0.95250  0.08450  Biso   1.000  H
  Zn3      1.0000 0.63155  0.51118  0.09543  Biso   1.000  Zn
  N15      1.0000 0.86746  0.33949  0.59940  Biso   1.000  N
  N16      1.0000 0.88898  0.07802  0.35750  Biso   1.000  N
  N17      1.0000 0.01327  0.42657  0.90730  Biso   1.000  N
  N18      1.0000 0.07508  0.47100  0.94500  Biso   1.000  N
  N19      1.0000 0.89479  0.15532  0.37870  Biso   1.000  N
  C55      1.0000 0.90195  0.36160  0.68110  Biso   1.000  C
  C56      1.0000 0.87168  0.11606  0.42110  Biso   1.000  C
  H43      1.0000 0.84710  0.11570  0.48580  Biso   1.000  H
  N20      1.0000 0.70972  0.44356  0.40750  Biso   1.000  N
  C57      1.0000 0.91765  0.27943  0.49220  Biso   1.000  C
  H44      1.0000 0.94280  0.30060  0.49570  Biso   1.000  H
  C58      1.0000 0.74995  0.41678  0.45720  Biso   1.000  C
  C59      1.0000 0.87435  0.29312  0.54310  Biso   1.000  C
  C60      1.0000 0.88690  0.20302  0.42970  Biso   1.000  C
  C61      1.0000 0.92852  0.14129  0.28380  Biso   1.000  C
  H45      1.0000 0.95000  0.16070  0.23750  Biso   1.000  H
  C62      1.0000 0.97408  0.40528  0.83410  Biso   1.000  C
  N21      1.0000 0.66226  0.48294  0.26680  Biso   1.000  N
  C63      1.0000 0.93125  0.33521  0.76760  Biso   1.000  C
  H46      1.0000 0.92650  0.30260  0.77570  Biso   1.000  H
  C64      1.0000 0.96731  0.35647  0.84210  Biso   1.000  C
  H47      1.0000 0.98710  0.33800  0.89780  Biso   1.000  H
  C65      1.0000 0.82710  0.36600  0.55200  Biso   1.000  C
  C66      1.0000 0.77618  0.39116  0.36300  Biso   1.000  C
  H48      1.0000 0.76780  0.39050  0.26810  Biso   1.000  H
  C67      1.0000 0.84371  0.21609  0.47830  Biso   1.000  C
  H49      1.0000 0.81850  0.19510  0.47280  Biso   1.000  H
  C68      1.0000 0.92428  0.23421  0.43550  Biso   1.000  C
  H50      1.0000 0.95370  0.22510  0.40180  Biso   1.000  H
  C69      1.0000 0.04068  0.46076  0.85750  Biso   1.000  C
  H51      1.0000 0.03610  0.47570  0.77110  Biso   1.000  H
  C70      1.0000 0.90877  0.41097  0.67560  Biso   1.000  C
  H52      1.0000 0.88900  0.42960  0.62010  Biso   1.000  H
  C71      1.0000 0.83766  0.26112  0.53600  Biso   1.000  C
  H53      1.0000 0.80830  0.26990  0.57050  Biso   1.000  H
  C72      1.0000 0.94456  0.43232  0.75200  Biso   1.000  C
  H54      1.0000 0.94860  0.46510  0.74770  Biso   1.000  H
  C73      1.0000 0.92422  0.09329  0.27090  Biso   1.000  C
  H55      1.0000 0.94240  0.07400  0.21250  Biso   1.000  H
  C74      1.0000 0.81546  0.36601  0.40990  Biso   1.000  C
  H56      1.0000 0.83390  0.34920  0.34580  Biso   1.000  H
  C75      1.0000 0.70179  0.45928  0.27560  Biso   1.000  C
  H57      1.0000 0.72190  0.45400  0.19980  Biso   1.000  H
  C76      1.0000 0.06813  0.44260  0.06020  Biso   1.000  C
  H58      1.0000 0.08650  0.44230  0.14140  Biso   1.000  H
  C77      1.0000 0.76041  0.41570  0.59760  Biso   1.000  C
  H59      1.0000 0.74180  0.43260  0.66120  Biso   1.000  H
  C78      1.0000 0.02986  0.41470  0.03600  Biso   1.000  C
  H60      1.0000 0.01750  0.39190  0.09660  Biso   1.000  H
  C79      1.0000 0.79810  0.39010  0.64550  Biso   1.000  C
  H61      1.0000 0.80440  0.38880  0.74180  Biso   1.000  H
  C80      1.0000 0.64370  0.48280  0.39380  Biso   1.000  C
  H62      1.0000 0.61530  0.49720  0.41740  Biso   1.000  H
  C81      1.0000 0.67240  0.45800  0.48880  Biso   1.000  C
  H63      1.0000 0.66740  0.45250  0.58450  Biso   1.000  H
  Zn4      1.0000 0.86845  0.01118  0.40457  Biso   1.000  Zn
  N22      1.0000 0.63254  0.83949  0.90060  Biso   1.000  N
  N23      1.0000 0.61102  0.57802  0.14250  Biso   1.000  N
  N24      1.0000 0.48673  0.92657  0.59270  Biso   1.000  N
  N25      1.0000 0.42492  0.97100  0.55500  Biso   1.000  N
  N26      1.0000 0.60521  0.65532  0.12130  Biso   1.000  N
  C82      1.0000 0.59805  0.86160  0.81890  Biso   1.000  C
  C83      1.0000 0.62832  0.61606  0.07890  Biso   1.000  C
  H64      1.0000 0.65290  0.61570  0.01420  Biso   1.000  H
  N27      1.0000 0.79028  0.94356  0.09250  Biso   1.000  N
  C84      1.0000 0.58235  0.77943  0.00780  Biso   1.000  C
  H65      1.0000 0.55720  0.80060  0.00430  Biso   1.000  H
  C85      1.0000 0.75005  0.91678  0.04280  Biso   1.000  C
  C86      1.0000 0.62565  0.79312  0.95690  Biso   1.000  C
  C87      1.0000 0.61310  0.70302  0.07030  Biso   1.000  C
  C88      1.0000 0.57148  0.64129  0.21620  Biso   1.000  C
  H66      1.0000 0.55000  0.66070  0.26250  Biso   1.000  H
  C89      1.0000 0.52592  0.90528  0.66590  Biso   1.000  C
  N28      1.0000 0.83774  0.98294  0.23320  Biso   1.000  N
  C90      1.0000 0.56875  0.83521  0.73240  Biso   1.000  C
  H67      1.0000 0.57350  0.80260  0.72430  Biso   1.000  H
  C91      1.0000 0.53269  0.85647  0.65790  Biso   1.000  C
  H68      1.0000 0.51290  0.83800  0.60220  Biso   1.000  H
  C92      1.0000 0.67290  0.86600  0.94800  Biso   1.000  C
  C93      1.0000 0.72382  0.89116  0.13700  Biso   1.000  C
  H69      1.0000 0.73220  0.89050  0.23190  Biso   1.000  H
  C94      1.0000 0.65629  0.71609  0.02170  Biso   1.000  C
  H70      1.0000 0.68150  0.69510  0.02720  Biso   1.000  H
  C95      1.0000 0.57572  0.73421  0.06450  Biso   1.000  C
  H71      1.0000 0.54630  0.72510  0.09820  Biso   1.000  H
  C96      1.0000 0.45932  0.96076  0.64250  Biso   1.000  C
  H72      1.0000 0.46390  0.97570  0.72890  Biso   1.000  H
  C97      1.0000 0.59123  0.91097  0.82440  Biso   1.000  C
  H73      1.0000 0.61100  0.92960  0.87990  Biso   1.000  H
  C98      1.0000 0.66234  0.76112  0.96400  Biso   1.000  C
  H74      1.0000 0.69170  0.76990  0.92950  Biso   1.000  H
  C99      1.0000 0.55544  0.93232  0.74800  Biso   1.000  C
  H75      1.0000 0.55140  0.96510  0.75230  Biso   1.000  H
  C100     1.0000 0.57578  0.59329  0.22910  Biso   1.000  C
  H76      1.0000 0.55760  0.57400  0.28750  Biso   1.000  H
  C101     1.0000 0.68454  0.86601  0.09010  Biso   1.000  C
  H77      1.0000 0.66610  0.84920  0.15420  Biso   1.000  H
  C102     1.0000 0.79821  0.95928  0.22440  Biso   1.000  C
  H78      1.0000 0.77810  0.95400  0.30020  Biso   1.000  H
  C103     1.0000 0.43187  0.94260  0.43980  Biso   1.000  C
  H79      1.0000 0.41350  0.94230  0.35860  Biso   1.000  H
  C104     1.0000 0.73959  0.91570  0.90240  Biso   1.000  C
  H80      1.0000 0.75820  0.93260  0.83880  Biso   1.000  H
  C105     1.0000 0.47014  0.91470  0.46400  Biso   1.000  C
  H81      1.0000 0.48250  0.89190  0.40340  Biso   1.000  H
  C106     1.0000 0.70190  0.89010  0.85450  Biso   1.000  C
  H82      1.0000 0.69560  0.88880  0.75820  Biso   1.000  H
  C107     1.0000 0.85630  0.98280  0.10620  Biso   1.000  C
  H83      1.0000 0.88470  0.99720  0.08260  Biso   1.000  H
  C108     1.0000 0.82760  0.95800  0.01120  Biso   1.000  C
  H84      1.0000 0.83260  0.95250  0.91550  Biso   1.000  H
  Zn5      1.0000 0.36845  0.48882  0.90457  Biso   1.000  Zn
  N29      1.0000 0.13254  0.66051  0.40060  Biso   1.000  N
  N30      1.0000 0.11102  0.92198  0.64250  Biso   1.000  N
  N31      1.0000 0.98673  0.57343  0.09270  Biso   1.000  N
  N32      1.0000 0.92492  0.52900  0.05500  Biso   1.000  N
  N33      1.0000 0.10521  0.84468  0.62130  Biso   1.000  N
  C109     1.0000 0.09805  0.63840  0.31890  Biso   1.000  C
  C110     1.0000 0.12832  0.88394  0.57890  Biso   1.000  C
  H85      1.0000 0.15290  0.88430  0.51420  Biso   1.000  H
  N34      1.0000 0.29028  0.55644  0.59250  Biso   1.000  N
  C111     1.0000 0.08235  0.72057  0.50780  Biso   1.000  C
  H86      1.0000 0.05720  0.69940  0.50430  Biso   1.000  H
  C112     1.0000 0.25005  0.58322  0.54280  Biso   1.000  C
  C113     1.0000 0.12565  0.70688  0.45690  Biso   1.000  C
  C114     1.0000 0.11310  0.79698  0.57030  Biso   1.000  C
  C115     1.0000 0.07148  0.85871  0.71620  Biso   1.000  C
  H87      1.0000 0.05000  0.83930  0.76250  Biso   1.000  H
  C116     1.0000 0.02592  0.59472  0.16590  Biso   1.000  C
  N35      1.0000 0.33774  0.51706  0.73320  Biso   1.000  N
  C117     1.0000 0.06875  0.66479  0.23240  Biso   1.000  C
  H88      1.0000 0.07350  0.69740  0.22430  Biso   1.000  H
  C118     1.0000 0.03269  0.64353  0.15790  Biso   1.000  C
  H89      1.0000 0.01290  0.66200  0.10220  Biso   1.000  H
  C119     1.0000 0.17290  0.63400  0.44800  Biso   1.000  C
  C120     1.0000 0.22382  0.60884  0.63700  Biso   1.000  C
  H90      1.0000 0.23220  0.60950  0.73190  Biso   1.000  H
  C121     1.0000 0.15629  0.78391  0.52170  Biso   1.000  C
  H91      1.0000 0.18150  0.80490  0.52720  Biso   1.000  H
  C122     1.0000 0.07572  0.76579  0.56450  Biso   1.000  C
  H92      1.0000 0.04630  0.77490  0.59820  Biso   1.000  H
  C123     1.0000 0.95932  0.53924  0.14250  Biso   1.000  C
  H93      1.0000 0.96390  0.52430  0.22890  Biso   1.000  H
  C124     1.0000 0.09123  0.58903  0.32440  Biso   1.000  C
  H94      1.0000 0.11100  0.57040  0.37990  Biso   1.000  H
  C125     1.0000 0.16234  0.73888  0.46400  Biso   1.000  C
  H95      1.0000 0.19170  0.73010  0.42950  Biso   1.000  H
  C126     1.0000 0.05544  0.56768  0.24800  Biso   1.000  C
  H96      1.0000 0.05140  0.53490  0.25230  Biso   1.000  H
  C127     1.0000 0.07578  0.90671  0.72910  Biso   1.000  C
  H97      1.0000 0.05760  0.92600  0.78750  Biso   1.000  H
  C128     1.0000 0.18454  0.63399  0.59010  Biso   1.000  C
  H98      1.0000 0.16610  0.65080  0.65420  Biso   1.000  H
  C129     1.0000 0.29821  0.54072  0.72440  Biso   1.000  C
  H99      1.0000 0.27810  0.54600  0.80020  Biso   1.000  H
  C130     1.0000 0.93187  0.55740  0.93980  Biso   1.000  C
  H100     1.0000 0.91350  0.55770  0.85860  Biso   1.000  H
  C131     1.0000 0.23959  0.58430  0.40240  Biso   1.000  C
  H101     1.0000 0.25820  0.56740  0.33880  Biso   1.000  H
  C132     1.0000 0.97014  0.58530  0.96400  Biso   1.000  C
  H102     1.0000 0.98250  0.60810  0.90340  Biso   1.000  H
  C133     1.0000 0.20190  0.60990  0.35450  Biso   1.000  C
  H103     1.0000 0.19560  0.61120  0.25820  Biso   1.000  H
  C134     1.0000 0.35630  0.51720  0.60620  Biso   1.000  C
  H104     1.0000 0.38470  0.50280  0.58260  Biso   1.000  H
  C135     1.0000 0.32760  0.54200  0.51120  Biso   1.000  C
  H105     1.0000 0.33260  0.54750  0.41550  Biso   1.000  H
  Zn6      1.0000 0.13155  0.98882  0.59543  Biso   1.000  Zn
  N36      1.0000 0.36746  0.16051  0.09940  Biso   1.000  N
  N37      1.0000 0.38898  0.42198  0.85750  Biso   1.000  N
  N38      1.0000 0.51327  0.07343  0.40730  Biso   1.000  N
  N39      1.0000 0.57508  0.02900  0.44500  Biso   1.000  N
  N40      1.0000 0.39479  0.34468  0.87870  Biso   1.000  N
  C136     1.0000 0.40195  0.13840  0.18110  Biso   1.000  C
  C137     1.0000 0.37168  0.38394  0.92110  Biso   1.000  C
  H106     1.0000 0.34710  0.38430  0.98580  Biso   1.000  H
  N41      1.0000 0.20972  0.05644  0.90750  Biso   1.000  N
  C138     1.0000 0.41765  0.22057  0.99220  Biso   1.000  C
  H107     1.0000 0.44280  0.19940  0.99570  Biso   1.000  H
  C139     1.0000 0.24995  0.08322  0.95720  Biso   1.000  C
  C140     1.0000 0.37435  0.20688  0.04310  Biso   1.000  C
  C141     1.0000 0.38690  0.29698  0.92970  Biso   1.000  C
  C142     1.0000 0.42852  0.35871  0.78380  Biso   1.000  C
  H108     1.0000 0.45000  0.33930  0.73750  Biso   1.000  H
  C143     1.0000 0.47408  0.09472  0.33410  Biso   1.000  C
  N42      1.0000 0.16226  0.01706  0.76680  Biso   1.000  N
  C144     1.0000 0.43125  0.16479  0.26760  Biso   1.000  C
  H109     1.0000 0.42650  0.19740  0.27570  Biso   1.000  H
  C145     1.0000 0.46731  0.14353  0.34210  Biso   1.000  C
  H110     1.0000 0.48710  0.16200  0.39780  Biso   1.000  H
  C146     1.0000 0.32710  0.13400  0.05200  Biso   1.000  C
  C147     1.0000 0.27618  0.10884  0.86300  Biso   1.000  C
  H111     1.0000 0.26780  0.10950  0.76810  Biso   1.000  H
  C148     1.0000 0.34371  0.28391  0.97830  Biso   1.000  C
  H112     1.0000 0.31850  0.30490  0.97280  Biso   1.000  H
  C149     1.0000 0.42428  0.26579  0.93550  Biso   1.000  C
  H113     1.0000 0.45370  0.27490  0.90180  Biso   1.000  H
  C150     1.0000 0.54068  0.03924  0.35750  Biso   1.000  C
  H114     1.0000 0.53610  0.02430  0.27110  Biso   1.000  H
  C151     1.0000 0.40877  0.08903  0.17560  Biso   1.000  C
  H115     1.0000 0.38900  0.07040  0.12010  Biso   1.000  H
  C152     1.0000 0.33766  0.23888  0.03600  Biso   1.000  C
  H116     1.0000 0.30830  0.23010  0.07050  Biso   1.000  H
  C153     1.0000 0.44456  0.06768  0.25200  Biso   1.000  C
  H117     1.0000 0.44860  0.03490  0.24770  Biso   1.000  H
  C154     1.0000 0.42422  0.40671  0.77090  Biso   1.000  C
  H118     1.0000 0.44240  0.42600  0.71250  Biso   1.000  H
  C155     1.0000 0.31546  0.13399  0.90990  Biso   1.000  C
  H119     1.0000 0.33390  0.15080  0.84580  Biso   1.000  H
  C156     1.0000 0.20179  0.04072  0.77560  Biso   1.000  C
  H120     1.0000 0.22190  0.04600  0.69980  Biso   1.000  H
  C157     1.0000 0.56813  0.05740  0.56020  Biso   1.000  C
  H121     1.0000 0.58650  0.05770  0.64140  Biso   1.000  H
  C158     1.0000 0.26041  0.08430  0.09760  Biso   1.000  C
  H122     1.0000 0.24180  0.06740  0.16120  Biso   1.000  H
  C159     1.0000 0.52986  0.08530  0.53600  Biso   1.000  C
  H123     1.0000 0.51750  0.10810  0.59660  Biso   1.000  H
  C160     1.0000 0.29810  0.10990  0.14550  Biso   1.000  C
  H124     1.0000 0.30440  0.11120  0.24180  Biso   1.000  H
  C161     1.0000 0.14370  0.01720  0.89380  Biso   1.000  C
  H125     1.0000 0.11530  0.00280  0.91740  Biso   1.000  H
  C162     1.0000 0.17240  0.04200  0.98880  Biso   1.000  C
  H126     1.0000 0.16740  0.04750  0.08450  Biso   1.000  H
  Zn7      1.0000 0.86845  0.48882  0.09543  Biso   1.000  Zn
  N43      1.0000 0.63254  0.66051  0.59940  Biso   1.000  N
  N44      1.0000 0.61102  0.92198  0.35750  Biso   1.000  N
  N45      1.0000 0.48673  0.57343  0.90730  Biso   1.000  N
  N46      1.0000 0.42492  0.52900  0.94500  Biso   1.000  N
  N47      1.0000 0.60521  0.84468  0.37870  Biso   1.000  N
  C163     1.0000 0.59805  0.63840  0.68110  Biso   1.000  C
  C164     1.0000 0.62832  0.88394  0.42110  Biso   1.000  C
  H127     1.0000 0.65290  0.88430  0.48580  Biso   1.000  H
  N48      1.0000 0.79028  0.55644  0.40750  Biso   1.000  N
  C165     1.0000 0.58235  0.72057  0.49220  Biso   1.000  C
  H128     1.0000 0.55720  0.69940  0.49570  Biso   1.000  H
  C166     1.0000 0.75005  0.58322  0.45720  Biso   1.000  C
  C167     1.0000 0.62565  0.70688  0.54310  Biso   1.000  C
  C168     1.0000 0.61310  0.79698  0.42970  Biso   1.000  C
  C169     1.0000 0.57148  0.85871  0.28380  Biso   1.000  C
  H129     1.0000 0.55000  0.83930  0.23750  Biso   1.000  H
  C170     1.0000 0.52592  0.59472  0.83410  Biso   1.000  C
  N49      1.0000 0.83774  0.51706  0.26680  Biso   1.000  N
  C171     1.0000 0.56875  0.66479  0.76760  Biso   1.000  C
  H130     1.0000 0.57350  0.69740  0.77570  Biso   1.000  H
  C172     1.0000 0.53269  0.64353  0.84210  Biso   1.000  C
  H131     1.0000 0.51290  0.66200  0.89780  Biso   1.000  H
  C173     1.0000 0.67290  0.63400  0.55200  Biso   1.000  C
  C174     1.0000 0.72382  0.60884  0.36300  Biso   1.000  C
  H132     1.0000 0.73220  0.60950  0.26810  Biso   1.000  H
  C175     1.0000 0.65629  0.78391  0.47830  Biso   1.000  C
  H133     1.0000 0.68150  0.80490  0.47280  Biso   1.000  H
  C176     1.0000 0.57572  0.76579  0.43550  Biso   1.000  C
  H134     1.0000 0.54630  0.77490  0.40180  Biso   1.000  H
  C177     1.0000 0.45932  0.53924  0.85750  Biso   1.000  C
  H135     1.0000 0.46390  0.52430  0.77110  Biso   1.000  H
  C178     1.0000 0.59123  0.58903  0.67560  Biso   1.000  C
  H136     1.0000 0.61100  0.57040  0.62010  Biso   1.000  H
  C179     1.0000 0.66234  0.73888  0.53600  Biso   1.000  C
  H137     1.0000 0.69170  0.73010  0.57050  Biso   1.000  H
  C180     1.0000 0.55544  0.56768  0.75200  Biso   1.000  C
  H138     1.0000 0.55140  0.53490  0.74770  Biso   1.000  H
  C181     1.0000 0.57578  0.90671  0.27090  Biso   1.000  C
  H139     1.0000 0.55760  0.92600  0.21250  Biso   1.000  H
  C182     1.0000 0.68454  0.63399  0.40990  Biso   1.000  C
  H140     1.0000 0.66610  0.65080  0.34580  Biso   1.000  H
  C183     1.0000 0.79821  0.54072  0.27560  Biso   1.000  C
  H141     1.0000 0.77810  0.54600  0.19980  Biso   1.000  H
  C184     1.0000 0.43187  0.55740  0.06020  Biso   1.000  C
  H142     1.0000 0.41350  0.55770  0.14140  Biso   1.000  H
  C185     1.0000 0.73959  0.58430  0.59760  Biso   1.000  C
  H143     1.0000 0.75820  0.56740  0.66120  Biso   1.000  H
  C186     1.0000 0.47014  0.58530  0.03600  Biso   1.000  C
  H144     1.0000 0.48250  0.60810  0.09660  Biso   1.000  H
  C187     1.0000 0.70190  0.60990  0.64550  Biso   1.000  C
  H145     1.0000 0.69560  0.61120  0.74180  Biso   1.000  H
  C188     1.0000 0.85630  0.51720  0.39380  Biso   1.000  C
  H146     1.0000 0.88470  0.50280  0.41740  Biso   1.000  H
  C189     1.0000 0.82760  0.54200  0.48880  Biso   1.000  C
  H147     1.0000 0.83260  0.54750  0.58450  Biso   1.000  H
  Zn8      1.0000 0.63155  0.98882  0.40457  Biso   1.000  Zn
  N50      1.0000 0.86746  0.16051  0.90060  Biso   1.000  N
  N51      1.0000 0.88898  0.42198  0.14250  Biso   1.000  N
  N52      1.0000 0.01327  0.07343  0.59270  Biso   1.000  N
  N53      1.0000 0.07508  0.02900  0.55500  Biso   1.000  N
  N54      1.0000 0.89479  0.34468  0.12130  Biso   1.000  N
  C190     1.0000 0.90195  0.13840  0.81890  Biso   1.000  C
  C191     1.0000 0.87168  0.38394  0.07890  Biso   1.000  C
  H148     1.0000 0.84710  0.38430  0.01420  Biso   1.000  H
  N55      1.0000 0.70972  0.05644  0.09250  Biso   1.000  N
  C192     1.0000 0.91765  0.22057  0.00780  Biso   1.000  C
  H149     1.0000 0.94280  0.19940  0.00430  Biso   1.000  H
  C193     1.0000 0.74995  0.08322  0.04280  Biso   1.000  C
  C194     1.0000 0.87435  0.20688  0.95690  Biso   1.000  C
  C195     1.0000 0.88690  0.29698  0.07030  Biso   1.000  C
  C196     1.0000 0.92852  0.35871  0.21620  Biso   1.000  C
  H150     1.0000 0.95000  0.33930  0.26250  Biso   1.000  H
  C197     1.0000 0.97408  0.09472  0.66590  Biso   1.000  C
  N56      1.0000 0.66226  0.01706  0.23320  Biso   1.000  N
  C198     1.0000 0.93125  0.16479  0.73240  Biso   1.000  C
  H151     1.0000 0.92650  0.19740  0.72430  Biso   1.000  H
  C199     1.0000 0.96731  0.14353  0.65790  Biso   1.000  C
  H152     1.0000 0.98710  0.16200  0.60220  Biso   1.000  H
  C200     1.0000 0.82710  0.13400  0.94800  Biso   1.000  C
  C201     1.0000 0.77618  0.10884  0.13700  Biso   1.000  C
  H153     1.0000 0.76780  0.10950  0.23190  Biso   1.000  H
  C202     1.0000 0.84371  0.28391  0.02170  Biso   1.000  C
  H154     1.0000 0.81850  0.30490  0.02720  Biso   1.000  H
  C203     1.0000 0.92428  0.26579  0.06450  Biso   1.000  C
  H155     1.0000 0.95370  0.27490  0.09820  Biso   1.000  H
  C204     1.0000 0.04068  0.03924  0.64250  Biso   1.000  C
  H156     1.0000 0.03610  0.02430  0.72890  Biso   1.000  H
  C205     1.0000 0.90877  0.08903  0.82440  Biso   1.000  C
  H157     1.0000 0.88900  0.07040  0.87990  Biso   1.000  H
  C206     1.0000 0.83766  0.23888  0.96400  Biso   1.000  C
  H158     1.0000 0.80830  0.23010  0.92950  Biso   1.000  H
  C207     1.0000 0.94456  0.06768  0.74800  Biso   1.000  C
  H159     1.0000 0.94860  0.03490  0.75230  Biso   1.000  H
  C208     1.0000 0.92422  0.40671  0.22910  Biso   1.000  C
  H160     1.0000 0.94240  0.42600  0.28750  Biso   1.000  H
  C209     1.0000 0.81546  0.13399  0.09010  Biso   1.000  C
  H161     1.0000 0.83390  0.15080  0.15420  Biso   1.000  H
  C210     1.0000 0.70179  0.04072  0.22440  Biso   1.000  C
  H162     1.0000 0.72190  0.04600  0.30020  Biso   1.000  H
  C211     1.0000 0.06813  0.05740  0.43980  Biso   1.000  C
  H163     1.0000 0.08650  0.05770  0.35860  Biso   1.000  H
  C212     1.0000 0.76041  0.08430  0.90240  Biso   1.000  C
  H164     1.0000 0.74180  0.06740  0.83880  Biso   1.000  H
  C213     1.0000 0.02986  0.08530  0.46400  Biso   1.000  C
  H165     1.0000 0.01750  0.10810  0.40340  Biso   1.000  H
  C214     1.0000 0.79810  0.10990  0.85450  Biso   1.000  C
  H166     1.0000 0.80440  0.11120  0.75820  Biso   1.000  H
  C215     1.0000 0.64370  0.01720  0.10620  Biso   1.000  C
  H167     1.0000 0.61530  0.00280  0.08260  Biso   1.000  H
  C216     1.0000 0.67240  0.04200  0.01120  Biso   1.000  C
  H168     1.0000 0.66740  0.04750  0.91550  Biso   1.000  H
