data_image0
_cell_length_a       19.109
_cell_length_b       19.109
_cell_length_c       24.317
_cell_angle_alpha    90
_cell_angle_beta     90
_cell_angle_gamma    90

_symmetry_space_group_name_H-M    "P 1"
_symmetry_int_tables_number       1

loop_
  _symmetry_equiv_pos_as_xyz
  'x, y, z'

loop_
  _atom_site_label
  _atom_site_occupancy
  _atom_site_fract_x
  _atom_site_fract_y
  _atom_site_fract_z
  _atom_site_thermal_displace_type
  _atom_site_B_iso_or_equiv
  _atom_site_type_symbol
  Cd1      1.0000 0.15917  0.67808  0.00524  Biso   1.000  Cd
  O1       1.0000 0.34313  0.65895  0.79908  Biso   1.000  O
  O2       1.0000 0.33598  0.54468  0.80337  Biso   1.000  O
  O3       1.0000 0.01854  0.65507  0.78347  Biso   1.000  O
  O4       1.0000 0.02754  0.54008  0.78485  Biso   1.000  O
  N1       1.0000 0.16981  0.62590  0.91784  Biso   1.000  N
  C1       1.0000 0.31120  0.60450  0.81223  Biso   1.000  C
  C2       1.0000 0.04960  0.59960  0.79694  Biso   1.000  C
  C3       1.0000 0.11550  0.60640  0.83025  Biso   1.000  C
  C4       1.0000 0.11140  0.61680  0.88690  Biso   1.000  C
  C5       1.0000 0.04160  0.61990  0.91630  Biso   1.000  C
  H1       1.0000 0.04530  0.59670  0.95110  Biso   1.000  H
  H2       1.0000 0.00660  0.59720  0.89430  Biso   1.000  H
  H3       1.0000 0.02870  0.66790  0.92200  Biso   1.000  H
  C6       1.0000 0.23280  0.62130  0.89378  Biso   1.000  C
  C7       1.0000 0.29570  0.62870  0.93070  Biso   1.000  C
  H4       1.0000 0.30230  0.67710  0.93990  Biso   1.000  H
  H5       1.0000 0.33650  0.61160  0.91200  Biso   1.000  H
  H6       1.0000 0.28850  0.60210  0.96370  Biso   1.000  H
  C8       1.0000 0.24040  0.60980  0.83720  Biso   1.000  C
  C9       1.0000 0.18060  0.60360  0.80472  Biso   1.000  C
  C10      1.0000 0.18500  0.59700  0.74360  Biso   1.000  C
  C11      1.0000 0.18530  0.65540  0.71060  Biso   1.000  C
  H7       1.0000 0.18430  0.69950  0.72670  Biso   1.000  H
  C12      1.0000 0.18690  0.65020  0.65460  Biso   1.000  C
  H8       1.0000 0.18710  0.69070  0.63340  Biso   1.000  H
  C13      1.0000 0.18810  0.58820  0.62970  Biso   1.000  C
  H9       1.0000 0.18810  0.58560  0.59150  Biso   1.000  H
  C14      1.0000 0.18940  0.52910  0.65990  Biso   1.000  C
  H10      1.0000 0.19200  0.48580  0.64250  Biso   1.000  H
  C15      1.0000 0.18680  0.53260  0.71820  Biso   1.000  C
  H11      1.0000 0.18620  0.49180  0.73900  Biso   1.000  H
  Cd2      1.0000 0.65917  0.17808  0.50524  Biso   1.000  Cd
  O5       1.0000 0.84313  0.15895  0.29908  Biso   1.000  O
  O6       1.0000 0.83598  0.04468  0.30337  Biso   1.000  O
  O7       1.0000 0.51854  0.15507  0.28347  Biso   1.000  O
  O8       1.0000 0.52754  0.04008  0.28485  Biso   1.000  O
  N2       1.0000 0.66981  0.12590  0.41784  Biso   1.000  N
  C16      1.0000 0.81120  0.10450  0.31223  Biso   1.000  C
  C17      1.0000 0.54960  0.09960  0.29694  Biso   1.000  C
  C18      1.0000 0.61550  0.10640  0.33025  Biso   1.000  C
  C19      1.0000 0.61140  0.11680  0.38690  Biso   1.000  C
  C20      1.0000 0.54160  0.11990  0.41630  Biso   1.000  C
  H12      1.0000 0.54530  0.09670  0.45110  Biso   1.000  H
  H13      1.0000 0.50660  0.09720  0.39430  Biso   1.000  H
  H14      1.0000 0.52870  0.16790  0.42200  Biso   1.000  H
  C21      1.0000 0.73280  0.12130  0.39378  Biso   1.000  C
  C22      1.0000 0.79570  0.12870  0.43070  Biso   1.000  C
  H15      1.0000 0.80230  0.17710  0.43990  Biso   1.000  H
  H16      1.0000 0.83650  0.11160  0.41200  Biso   1.000  H
  H17      1.0000 0.78850  0.10210  0.46370  Biso   1.000  H
  C23      1.0000 0.74040  0.10980  0.33720  Biso   1.000  C
  C24      1.0000 0.68060  0.10360  0.30472  Biso   1.000  C
  C25      1.0000 0.68500  0.09700  0.24360  Biso   1.000  C
  C26      1.0000 0.68530  0.15540  0.21060  Biso   1.000  C
  H18      1.0000 0.68430  0.19950  0.22670  Biso   1.000  H
  C27      1.0000 0.68690  0.15020  0.15460  Biso   1.000  C
  H19      1.0000 0.68710  0.19070  0.13340  Biso   1.000  H
  C28      1.0000 0.68810  0.08820  0.12970  Biso   1.000  C
  H20      1.0000 0.68810  0.08560  0.09150  Biso   1.000  H
  C29      1.0000 0.68940  0.02910  0.15990  Biso   1.000  C
  H21      1.0000 0.69200  0.98580  0.14250  Biso   1.000  H
  C30      1.0000 0.68680  0.03260  0.21820  Biso   1.000  C
  H22      1.0000 0.68620  0.99180  0.23900  Biso   1.000  H
  Cd3      1.0000 0.34083  0.32192  0.50524  Biso   1.000  Cd
  O9       1.0000 0.15687  0.34105  0.29908  Biso   1.000  O
  O10      1.0000 0.16402  0.45532  0.30337  Biso   1.000  O
  O11      1.0000 0.48146  0.34493  0.28347  Biso   1.000  O
  O12      1.0000 0.47246  0.45992  0.28485  Biso   1.000  O
  N3       1.0000 0.33019  0.37410  0.41784  Biso   1.000  N
  C31      1.0000 0.18880  0.39550  0.31223  Biso   1.000  C
  C32      1.0000 0.45040  0.40040  0.29694  Biso   1.000  C
  C33      1.0000 0.38450  0.39360  0.33025  Biso   1.000  C
  C34      1.0000 0.38860  0.38320  0.38690  Biso   1.000  C
  C35      1.0000 0.45840  0.38010  0.41630  Biso   1.000  C
  H23      1.0000 0.45470  0.40330  0.45110  Biso   1.000  H
  H24      1.0000 0.49340  0.40280  0.39430  Biso   1.000  H
  H25      1.0000 0.47130  0.33210  0.42200  Biso   1.000  H
  C36      1.0000 0.26720  0.37870  0.39378  Biso   1.000  C
  C37      1.0000 0.20430  0.37130  0.43070  Biso   1.000  C
  H26      1.0000 0.19770  0.32290  0.43990  Biso   1.000  H
  H27      1.0000 0.16350  0.38840  0.41200  Biso   1.000  H
  H28      1.0000 0.21150  0.39790  0.46370  Biso   1.000  H
  C38      1.0000 0.25960  0.39020  0.33720  Biso   1.000  C
  C39      1.0000 0.31940  0.39640  0.30472  Biso   1.000  C
  C40      1.0000 0.31500  0.40300  0.24360  Biso   1.000  C
  C41      1.0000 0.31470  0.34460  0.21060  Biso   1.000  C
  H29      1.0000 0.31570  0.30050  0.22670  Biso   1.000  H
  C42      1.0000 0.31310  0.34980  0.15460  Biso   1.000  C
  H30      1.0000 0.31290  0.30930  0.13340  Biso   1.000  H
  C43      1.0000 0.31190  0.41180  0.12970  Biso   1.000  C
  H31      1.0000 0.31190  0.41440  0.09150  Biso   1.000  H
  C44      1.0000 0.31060  0.47090  0.15990  Biso   1.000  C
  H32      1.0000 0.30800  0.51420  0.14250  Biso   1.000  H
  C45      1.0000 0.31320  0.46740  0.21820  Biso   1.000  C
  H33      1.0000 0.31380  0.50820  0.23900  Biso   1.000  H
  Cd4      1.0000 0.84083  0.82192  0.00524  Biso   1.000  Cd
  O13      1.0000 0.65687  0.84105  0.79908  Biso   1.000  O
  O14      1.0000 0.66402  0.95532  0.80337  Biso   1.000  O
  O15      1.0000 0.98146  0.84493  0.78347  Biso   1.000  O
  O16      1.0000 0.97246  0.95992  0.78485  Biso   1.000  O
  N4       1.0000 0.83019  0.87410  0.91784  Biso   1.000  N
  C46      1.0000 0.68880  0.89550  0.81223  Biso   1.000  C
  C47      1.0000 0.95040  0.90040  0.79694  Biso   1.000  C
  C48      1.0000 0.88450  0.89360  0.83025  Biso   1.000  C
  C49      1.0000 0.88860  0.88320  0.88690  Biso   1.000  C
  C50      1.0000 0.95840  0.88010  0.91630  Biso   1.000  C
  H34      1.0000 0.95470  0.90330  0.95110  Biso   1.000  H
  H35      1.0000 0.99340  0.90280  0.89430  Biso   1.000  H
  H36      1.0000 0.97130  0.83210  0.92200  Biso   1.000  H
  C51      1.0000 0.76720  0.87870  0.89378  Biso   1.000  C
  C52      1.0000 0.70430  0.87130  0.93070  Biso   1.000  C
  H37      1.0000 0.69770  0.82290  0.93990  Biso   1.000  H
  H38      1.0000 0.66350  0.88840  0.91200  Biso   1.000  H
  H39      1.0000 0.71150  0.89790  0.96370  Biso   1.000  H
  C53      1.0000 0.75960  0.89020  0.83720  Biso   1.000  C
  C54      1.0000 0.81940  0.89640  0.80472  Biso   1.000  C
  C55      1.0000 0.81500  0.90300  0.74360  Biso   1.000  C
  C56      1.0000 0.81470  0.84460  0.71060  Biso   1.000  C
  H40      1.0000 0.81570  0.80050  0.72670  Biso   1.000  H
  C57      1.0000 0.81310  0.84980  0.65460  Biso   1.000  C
  H41      1.0000 0.81290  0.80930  0.63340  Biso   1.000  H
  C58      1.0000 0.81190  0.91180  0.62970  Biso   1.000  C
  H42      1.0000 0.81190  0.91440  0.59150  Biso   1.000  H
  C59      1.0000 0.81060  0.97090  0.65990  Biso   1.000  C
  H43      1.0000 0.80800  0.01420  0.64250  Biso   1.000  H
  C60      1.0000 0.81320  0.96740  0.71820  Biso   1.000  C
  H44      1.0000 0.81380  0.00820  0.73900  Biso   1.000  H
  Cd5      1.0000 0.07192  0.40917  0.25524  Biso   1.000  Cd
  O17      1.0000 0.09105  0.59313  0.04908  Biso   1.000  O
  O18      1.0000 0.20532  0.58598  0.05337  Biso   1.000  O
  O19      1.0000 0.09493  0.26854  0.03347  Biso   1.000  O
  O20      1.0000 0.20992  0.27754  0.03485  Biso   1.000  O
  N5       1.0000 0.12410  0.41981  0.16784  Biso   1.000  N
  C61      1.0000 0.14550  0.56120  0.06223  Biso   1.000  C
  C62      1.0000 0.15040  0.29960  0.04694  Biso   1.000  C
  C63      1.0000 0.14360  0.36550  0.08025  Biso   1.000  C
  C64      1.0000 0.13320  0.36140  0.13690  Biso   1.000  C
  C65      1.0000 0.13010  0.29160  0.16630  Biso   1.000  C
  H45      1.0000 0.15330  0.29530  0.20110  Biso   1.000  H
  H46      1.0000 0.15280  0.25660  0.14430  Biso   1.000  H
  H47      1.0000 0.08210  0.27870  0.17200  Biso   1.000  H
  C66      1.0000 0.12870  0.48280  0.14378  Biso   1.000  C
  C67      1.0000 0.12130  0.54570  0.18070  Biso   1.000  C
  H48      1.0000 0.07290  0.55230  0.18990  Biso   1.000  H
  H49      1.0000 0.13840  0.58650  0.16200  Biso   1.000  H
  H50      1.0000 0.14790  0.53850  0.21370  Biso   1.000  H
  C68      1.0000 0.14020  0.49040  0.08720  Biso   1.000  C
  C69      1.0000 0.14640  0.43060  0.05472  Biso   1.000  C
  C70      1.0000 0.15300  0.43500  0.99360  Biso   1.000  C
  C71      1.0000 0.09460  0.43530  0.96060  Biso   1.000  C
  H51      1.0000 0.05050  0.43430  0.97670  Biso   1.000  H
  C72      1.0000 0.09980  0.43690  0.90460  Biso   1.000  C
  H52      1.0000 0.05930  0.43710  0.88340  Biso   1.000  H
  C73      1.0000 0.16180  0.43810  0.87970  Biso   1.000  C
  H53      1.0000 0.16440  0.43810  0.84150  Biso   1.000  H
  C74      1.0000 0.22090  0.43940  0.90990  Biso   1.000  C
  H54      1.0000 0.26420  0.44200  0.89250  Biso   1.000  H
  C75      1.0000 0.21740  0.43680  0.96820  Biso   1.000  C
  H55      1.0000 0.25820  0.43620  0.98900  Biso   1.000  H
  Cd6      1.0000 0.57192  0.90917  0.75524  Biso   1.000  Cd
  O21      1.0000 0.59105  0.09313  0.54908  Biso   1.000  O
  O22      1.0000 0.70532  0.08598  0.55337  Biso   1.000  O
  O23      1.0000 0.59493  0.76854  0.53347  Biso   1.000  O
  O24      1.0000 0.70992  0.77754  0.53485  Biso   1.000  O
  N6       1.0000 0.62410  0.91981  0.66784  Biso   1.000  N
  C76      1.0000 0.64550  0.06120  0.56223  Biso   1.000  C
  C77      1.0000 0.65040  0.79960  0.54694  Biso   1.000  C
  C78      1.0000 0.64360  0.86550  0.58025  Biso   1.000  C
  C79      1.0000 0.63320  0.86140  0.63690  Biso   1.000  C
  C80      1.0000 0.63010  0.79160  0.66630  Biso   1.000  C
  H56      1.0000 0.65330  0.79530  0.70110  Biso   1.000  H
  H57      1.0000 0.65280  0.75660  0.64430  Biso   1.000  H
  H58      1.0000 0.58210  0.77870  0.67200  Biso   1.000  H
  C81      1.0000 0.62870  0.98280  0.64378  Biso   1.000  C
  C82      1.0000 0.62130  0.04570  0.68070  Biso   1.000  C
  H59      1.0000 0.57290  0.05230  0.68990  Biso   1.000  H
  H60      1.0000 0.63840  0.08650  0.66200  Biso   1.000  H
  H61      1.0000 0.64790  0.03850  0.71370  Biso   1.000  H
  C83      1.0000 0.64020  0.99040  0.58720  Biso   1.000  C
  C84      1.0000 0.64640  0.93060  0.55472  Biso   1.000  C
  C85      1.0000 0.65300  0.93500  0.49360  Biso   1.000  C
  C86      1.0000 0.59460  0.93530  0.46060  Biso   1.000  C
  H62      1.0000 0.55050  0.93430  0.47670  Biso   1.000  H
  C87      1.0000 0.59980  0.93690  0.40460  Biso   1.000  C
  H63      1.0000 0.55930  0.93710  0.38340  Biso   1.000  H
  C88      1.0000 0.66180  0.93810  0.37970  Biso   1.000  C
  H64      1.0000 0.66440  0.93810  0.34150  Biso   1.000  H
  C89      1.0000 0.72090  0.93940  0.40990  Biso   1.000  C
  H65      1.0000 0.76420  0.94200  0.39250  Biso   1.000  H
  C90      1.0000 0.71740  0.93680  0.46820  Biso   1.000  C
  H66      1.0000 0.75820  0.93620  0.48900  Biso   1.000  H
  Cd7      1.0000 0.42808  0.59083  0.75524  Biso   1.000  Cd
  O25      1.0000 0.40895  0.40687  0.54908  Biso   1.000  O
  O26      1.0000 0.29468  0.41402  0.55337  Biso   1.000  O
  O27      1.0000 0.40507  0.73146  0.53347  Biso   1.000  O
  O28      1.0000 0.29008  0.72246  0.53485  Biso   1.000  O
  N7       1.0000 0.37590  0.58019  0.66784  Biso   1.000  N
  C91      1.0000 0.35450  0.43880  0.56223  Biso   1.000  C
  C92      1.0000 0.34960  0.70040  0.54694  Biso   1.000  C
  C93      1.0000 0.35640  0.63450  0.58025  Biso   1.000  C
  C94      1.0000 0.36680  0.63860  0.63690  Biso   1.000  C
  C95      1.0000 0.36990  0.70840  0.66630  Biso   1.000  C
  H67      1.0000 0.34670  0.70470  0.70110  Biso   1.000  H
  H68      1.0000 0.34720  0.74340  0.64430  Biso   1.000  H
  H69      1.0000 0.41790  0.72130  0.67200  Biso   1.000  H
  C96      1.0000 0.37130  0.51720  0.64378  Biso   1.000  C
  C97      1.0000 0.37870  0.45430  0.68070  Biso   1.000  C
  H70      1.0000 0.42710  0.44770  0.68990  Biso   1.000  H
  H71      1.0000 0.36160  0.41350  0.66200  Biso   1.000  H
  H72      1.0000 0.35210  0.46150  0.71370  Biso   1.000  H
  C98      1.0000 0.35980  0.50960  0.58720  Biso   1.000  C
  C99      1.0000 0.35360  0.56940  0.55472  Biso   1.000  C
  C100     1.0000 0.34700  0.56500  0.49360  Biso   1.000  C
  C101     1.0000 0.40540  0.56470  0.46060  Biso   1.000  C
  H73      1.0000 0.44950  0.56570  0.47670  Biso   1.000  H
  C102     1.0000 0.40020  0.56310  0.40460  Biso   1.000  C
  H74      1.0000 0.44070  0.56290  0.38340  Biso   1.000  H
  C103     1.0000 0.33820  0.56190  0.37970  Biso   1.000  C
  H75      1.0000 0.33560  0.56190  0.34150  Biso   1.000  H
  C104     1.0000 0.27910  0.56060  0.40990  Biso   1.000  C
  H76      1.0000 0.23580  0.55800  0.39250  Biso   1.000  H
  C105     1.0000 0.28260  0.56320  0.46820  Biso   1.000  C
  H77      1.0000 0.24180  0.56380  0.48900  Biso   1.000  H
  Cd8      1.0000 0.92808  0.09083  0.25524  Biso   1.000  Cd
  O29      1.0000 0.90895  0.90687  0.04908  Biso   1.000  O
  O30      1.0000 0.79468  0.91402  0.05337  Biso   1.000  O
  O31      1.0000 0.90507  0.23146  0.03347  Biso   1.000  O
  O32      1.0000 0.79008  0.22246  0.03485  Biso   1.000  O
  N8       1.0000 0.87590  0.08019  0.16784  Biso   1.000  N
  C106     1.0000 0.85450  0.93880  0.06223  Biso   1.000  C
  C107     1.0000 0.84960  0.20040  0.04694  Biso   1.000  C
  C108     1.0000 0.85640  0.13450  0.08025  Biso   1.000  C
  C109     1.0000 0.86680  0.13860  0.13690  Biso   1.000  C
  C110     1.0000 0.86990  0.20840  0.16630  Biso   1.000  C
  H78      1.0000 0.84670  0.20470  0.20110  Biso   1.000  H
  H79      1.0000 0.84720  0.24340  0.14430  Biso   1.000  H
  H80      1.0000 0.91790  0.22130  0.17200  Biso   1.000  H
  C111     1.0000 0.87130  0.01720  0.14378  Biso   1.000  C
  C112     1.0000 0.87870  0.95430  0.18070  Biso   1.000  C
  H81      1.0000 0.92710  0.94770  0.18990  Biso   1.000  H
  H82      1.0000 0.86160  0.91350  0.16200  Biso   1.000  H
  H83      1.0000 0.85210  0.96150  0.21370  Biso   1.000  H
  C113     1.0000 0.85980  0.00960  0.08720  Biso   1.000  C
  C114     1.0000 0.85360  0.06940  0.05472  Biso   1.000  C
  C115     1.0000 0.84700  0.06500  0.99360  Biso   1.000  C
  C116     1.0000 0.90540  0.06470  0.96060  Biso   1.000  C
  H84      1.0000 0.94950  0.06570  0.97670  Biso   1.000  H
  C117     1.0000 0.90020  0.06310  0.90460  Biso   1.000  C
  H85      1.0000 0.94070  0.06290  0.88340  Biso   1.000  H
  C118     1.0000 0.83820  0.06190  0.87970  Biso   1.000  C
  H86      1.0000 0.83560  0.06190  0.84150  Biso   1.000  H
  C119     1.0000 0.77910  0.06060  0.90990  Biso   1.000  C
  H87      1.0000 0.73580  0.05800  0.89250  Biso   1.000  H
  C120     1.0000 0.78260  0.06320  0.96820  Biso   1.000  C
  H88      1.0000 0.74180  0.06380  0.98900  Biso   1.000  H
  Cd9      1.0000 0.84083  0.32192  0.99476  Biso   1.000  Cd
  O33      1.0000 0.65687  0.34105  0.20092  Biso   1.000  O
  O34      1.0000 0.66402  0.45532  0.19663  Biso   1.000  O
  O35      1.0000 0.98146  0.34493  0.21653  Biso   1.000  O
  O36      1.0000 0.97246  0.45992  0.21515  Biso   1.000  O
  N9       1.0000 0.83019  0.37410  0.08216  Biso   1.000  N
  C121     1.0000 0.68880  0.39550  0.18777  Biso   1.000  C
  C122     1.0000 0.95040  0.40040  0.20306  Biso   1.000  C
  C123     1.0000 0.88450  0.39360  0.16975  Biso   1.000  C
  C124     1.0000 0.88860  0.38320  0.11310  Biso   1.000  C
  C125     1.0000 0.95840  0.38010  0.08370  Biso   1.000  C
  H89      1.0000 0.95470  0.40330  0.04890  Biso   1.000  H
  H90      1.0000 0.99340  0.40280  0.10570  Biso   1.000  H
  H91      1.0000 0.97130  0.33210  0.07800  Biso   1.000  H
  C126     1.0000 0.76720  0.37870  0.10622  Biso   1.000  C
  C127     1.0000 0.70430  0.37130  0.06930  Biso   1.000  C
  H92      1.0000 0.69770  0.32290  0.06010  Biso   1.000  H
  H93      1.0000 0.66350  0.38840  0.08800  Biso   1.000  H
  H94      1.0000 0.71150  0.39790  0.03630  Biso   1.000  H
  C128     1.0000 0.75960  0.39020  0.16280  Biso   1.000  C
  C129     1.0000 0.81940  0.39640  0.19528  Biso   1.000  C
  C130     1.0000 0.81500  0.40300  0.25640  Biso   1.000  C
  C131     1.0000 0.81470  0.34460  0.28940  Biso   1.000  C
  H95      1.0000 0.81570  0.30050  0.27330  Biso   1.000  H
  C132     1.0000 0.81310  0.34980  0.34540  Biso   1.000  C
  H96      1.0000 0.81290  0.30930  0.36660  Biso   1.000  H
  C133     1.0000 0.81190  0.41180  0.37030  Biso   1.000  C
  H97      1.0000 0.81190  0.41440  0.40850  Biso   1.000  H
  C134     1.0000 0.81060  0.47090  0.34010  Biso   1.000  C
  H98      1.0000 0.80800  0.51420  0.35750  Biso   1.000  H
  C135     1.0000 0.81320  0.46740  0.28180  Biso   1.000  C
  H99      1.0000 0.81380  0.50820  0.26100  Biso   1.000  H
  Cd10     1.0000 0.34083  0.82192  0.49476  Biso   1.000  Cd
  O37      1.0000 0.15687  0.84105  0.70092  Biso   1.000  O
  O38      1.0000 0.16402  0.95532  0.69663  Biso   1.000  O
  O39      1.0000 0.48146  0.84493  0.71653  Biso   1.000  O
  O40      1.0000 0.47246  0.95992  0.71515  Biso   1.000  O
  N10      1.0000 0.33019  0.87410  0.58216  Biso   1.000  N
  C136     1.0000 0.18880  0.89550  0.68777  Biso   1.000  C
  C137     1.0000 0.45040  0.90040  0.70306  Biso   1.000  C
  C138     1.0000 0.38450  0.89360  0.66975  Biso   1.000  C
  C139     1.0000 0.38860  0.88320  0.61310  Biso   1.000  C
  C140     1.0000 0.45840  0.88010  0.58370  Biso   1.000  C
  H100     1.0000 0.45470  0.90330  0.54890  Biso   1.000  H
  H101     1.0000 0.49340  0.90280  0.60570  Biso   1.000  H
  H102     1.0000 0.47130  0.83210  0.57800  Biso   1.000  H
  C141     1.0000 0.26720  0.87870  0.60622  Biso   1.000  C
  C142     1.0000 0.20430  0.87130  0.56930  Biso   1.000  C
  H103     1.0000 0.19770  0.82290  0.56010  Biso   1.000  H
  H104     1.0000 0.16350  0.88840  0.58800  Biso   1.000  H
  H105     1.0000 0.21150  0.89790  0.53630  Biso   1.000  H
  C143     1.0000 0.25960  0.89020  0.66280  Biso   1.000  C
  C144     1.0000 0.31940  0.89640  0.69528  Biso   1.000  C
  C145     1.0000 0.31500  0.90300  0.75640  Biso   1.000  C
  C146     1.0000 0.31470  0.84460  0.78940  Biso   1.000  C
  H106     1.0000 0.31570  0.80050  0.77330  Biso   1.000  H
  C147     1.0000 0.31310  0.84980  0.84540  Biso   1.000  C
  H107     1.0000 0.31290  0.80930  0.86660  Biso   1.000  H
  C148     1.0000 0.31190  0.91180  0.87030  Biso   1.000  C
  H108     1.0000 0.31190  0.91440  0.90850  Biso   1.000  H
  C149     1.0000 0.31060  0.97090  0.84010  Biso   1.000  C
  H109     1.0000 0.30800  0.01420  0.85750  Biso   1.000  H
  C150     1.0000 0.31320  0.96740  0.78180  Biso   1.000  C
  H110     1.0000 0.31380  0.00820  0.76100  Biso   1.000  H
  Cd11     1.0000 0.65917  0.67808  0.49476  Biso   1.000  Cd
  O41      1.0000 0.84313  0.65895  0.70092  Biso   1.000  O
  O42      1.0000 0.83598  0.54468  0.69663  Biso   1.000  O
  O43      1.0000 0.51854  0.65507  0.71653  Biso   1.000  O
  O44      1.0000 0.52754  0.54008  0.71515  Biso   1.000  O
  N11      1.0000 0.66981  0.62590  0.58216  Biso   1.000  N
  C151     1.0000 0.81120  0.60450  0.68777  Biso   1.000  C
  C152     1.0000 0.54960  0.59960  0.70306  Biso   1.000  C
  C153     1.0000 0.61550  0.60640  0.66975  Biso   1.000  C
  C154     1.0000 0.61140  0.61680  0.61310  Biso   1.000  C
  C155     1.0000 0.54160  0.61990  0.58370  Biso   1.000  C
  H111     1.0000 0.54530  0.59670  0.54890  Biso   1.000  H
  H112     1.0000 0.50660  0.59720  0.60570  Biso   1.000  H
  H113     1.0000 0.52870  0.66790  0.57800  Biso   1.000  H
  C156     1.0000 0.73280  0.62130  0.60622  Biso   1.000  C
  C157     1.0000 0.79570  0.62870  0.56930  Biso   1.000  C
  H114     1.0000 0.80230  0.67710  0.56010  Biso   1.000  H
  H115     1.0000 0.83650  0.61160  0.58800  Biso   1.000  H
  H116     1.0000 0.78850  0.60210  0.53630  Biso   1.000  H
  C158     1.0000 0.74040  0.60980  0.66280  Biso   1.000  C
  C159     1.0000 0.68060  0.60360  0.69528  Biso   1.000  C
  C160     1.0000 0.68500  0.59700  0.75640  Biso   1.000  C
  C161     1.0000 0.68530  0.65540  0.78940  Biso   1.000  C
  H117     1.0000 0.68430  0.69950  0.77330  Biso   1.000  H
  C162     1.0000 0.68690  0.65020  0.84540  Biso   1.000  C
  H118     1.0000 0.68710  0.69070  0.86660  Biso   1.000  H
  C163     1.0000 0.68810  0.58820  0.87030  Biso   1.000  C
  H119     1.0000 0.68810  0.58560  0.90850  Biso   1.000  H
  C164     1.0000 0.68940  0.52910  0.84010  Biso   1.000  C
  H120     1.0000 0.69200  0.48580  0.85750  Biso   1.000  H
  C165     1.0000 0.68680  0.53260  0.78180  Biso   1.000  C
  H121     1.0000 0.68620  0.49180  0.76100  Biso   1.000  H
  Cd12     1.0000 0.15917  0.17808  0.99476  Biso   1.000  Cd
  O45      1.0000 0.34313  0.15895  0.20092  Biso   1.000  O
  O46      1.0000 0.33598  0.04468  0.19663  Biso   1.000  O
  O47      1.0000 0.01854  0.15507  0.21653  Biso   1.000  O
  O48      1.0000 0.02754  0.04008  0.21515  Biso   1.000  O
  N12      1.0000 0.16981  0.12590  0.08216  Biso   1.000  N
  C166     1.0000 0.31120  0.10450  0.18777  Biso   1.000  C
  C167     1.0000 0.04960  0.09960  0.20306  Biso   1.000  C
  C168     1.0000 0.11550  0.10640  0.16975  Biso   1.000  C
  C169     1.0000 0.11140  0.11680  0.11310  Biso   1.000  C
  C170     1.0000 0.04160  0.11990  0.08370  Biso   1.000  C
  H122     1.0000 0.04530  0.09670  0.04890  Biso   1.000  H
  H123     1.0000 0.00660  0.09720  0.10570  Biso   1.000  H
  H124     1.0000 0.02870  0.16790  0.07800  Biso   1.000  H
  C171     1.0000 0.23280  0.12130  0.10622  Biso   1.000  C
  C172     1.0000 0.29570  0.12870  0.06930  Biso   1.000  C
  H125     1.0000 0.30230  0.17710  0.06010  Biso   1.000  H
  H126     1.0000 0.33650  0.11160  0.08800  Biso   1.000  H
  H127     1.0000 0.28850  0.10210  0.03630  Biso   1.000  H
  C173     1.0000 0.24040  0.10980  0.16280  Biso   1.000  C
  C174     1.0000 0.18060  0.10360  0.19528  Biso   1.000  C
  C175     1.0000 0.18500  0.09700  0.25640  Biso   1.000  C
  C176     1.0000 0.18530  0.15540  0.28940  Biso   1.000  C
  H128     1.0000 0.18430  0.19950  0.27330  Biso   1.000  H
  C177     1.0000 0.18690  0.15020  0.34540  Biso   1.000  C
  H129     1.0000 0.18710  0.19070  0.36660  Biso   1.000  H
  C178     1.0000 0.18810  0.08820  0.37030  Biso   1.000  C
  H130     1.0000 0.18810  0.08560  0.40850  Biso   1.000  H
  C179     1.0000 0.18940  0.02910  0.34010  Biso   1.000  C
  H131     1.0000 0.19200  0.98580  0.35750  Biso   1.000  H
  C180     1.0000 0.18680  0.03260  0.28180  Biso   1.000  C
  H132     1.0000 0.18620  0.99180  0.26100  Biso   1.000  H
  Cd13     1.0000 0.92808  0.59083  0.74476  Biso   1.000  Cd
  O49      1.0000 0.90895  0.40687  0.95092  Biso   1.000  O
  O50      1.0000 0.79468  0.41402  0.94663  Biso   1.000  O
  O51      1.0000 0.90507  0.73146  0.96653  Biso   1.000  O
  O52      1.0000 0.79008  0.72246  0.96515  Biso   1.000  O
  N13      1.0000 0.87590  0.58019  0.83216  Biso   1.000  N
  C181     1.0000 0.85450  0.43880  0.93777  Biso   1.000  C
  C182     1.0000 0.84960  0.70040  0.95306  Biso   1.000  C
  C183     1.0000 0.85640  0.63450  0.91975  Biso   1.000  C
  C184     1.0000 0.86680  0.63860  0.86310  Biso   1.000  C
  C185     1.0000 0.86990  0.70840  0.83370  Biso   1.000  C
  H133     1.0000 0.84670  0.70470  0.79890  Biso   1.000  H
  H134     1.0000 0.84720  0.74340  0.85570  Biso   1.000  H
  H135     1.0000 0.91790  0.72130  0.82800  Biso   1.000  H
  C186     1.0000 0.87130  0.51720  0.85622  Biso   1.000  C
  C187     1.0000 0.87870  0.45430  0.81930  Biso   1.000  C
  H136     1.0000 0.92710  0.44770  0.81010  Biso   1.000  H
  H137     1.0000 0.86160  0.41350  0.83800  Biso   1.000  H
  H138     1.0000 0.85210  0.46150  0.78630  Biso   1.000  H
  C188     1.0000 0.85980  0.50960  0.91280  Biso   1.000  C
  C189     1.0000 0.85360  0.56940  0.94528  Biso   1.000  C
  C190     1.0000 0.84700  0.56500  0.00640  Biso   1.000  C
  C191     1.0000 0.90540  0.56470  0.03940  Biso   1.000  C
  H139     1.0000 0.94950  0.56570  0.02330  Biso   1.000  H
  C192     1.0000 0.90020  0.56310  0.09540  Biso   1.000  C
  H140     1.0000 0.94070  0.56290  0.11660  Biso   1.000  H
  C193     1.0000 0.83820  0.56190  0.12030  Biso   1.000  C
  H141     1.0000 0.83560  0.56190  0.15850  Biso   1.000  H
  C194     1.0000 0.77910  0.56060  0.09010  Biso   1.000  C
  H142     1.0000 0.73580  0.55800  0.10750  Biso   1.000  H
  C195     1.0000 0.78260  0.56320  0.03180  Biso   1.000  C
  H143     1.0000 0.74180  0.56380  0.01100  Biso   1.000  H
  Cd14     1.0000 0.42808  0.09083  0.24476  Biso   1.000  Cd
  O53      1.0000 0.40895  0.90687  0.45092  Biso   1.000  O
  O54      1.0000 0.29468  0.91402  0.44663  Biso   1.000  O
  O55      1.0000 0.40507  0.23146  0.46653  Biso   1.000  O
  O56      1.0000 0.29008  0.22246  0.46515  Biso   1.000  O
  N14      1.0000 0.37590  0.08019  0.33216  Biso   1.000  N
  C196     1.0000 0.35450  0.93880  0.43777  Biso   1.000  C
  C197     1.0000 0.34960  0.20040  0.45306  Biso   1.000  C
  C198     1.0000 0.35640  0.13450  0.41975  Biso   1.000  C
  C199     1.0000 0.36680  0.13860  0.36310  Biso   1.000  C
  C200     1.0000 0.36990  0.20840  0.33370  Biso   1.000  C
  H144     1.0000 0.34670  0.20470  0.29890  Biso   1.000  H
  H145     1.0000 0.34720  0.24340  0.35570  Biso   1.000  H
  H146     1.0000 0.41790  0.22130  0.32800  Biso   1.000  H
  C201     1.0000 0.37130  0.01720  0.35622  Biso   1.000  C
  C202     1.0000 0.37870  0.95430  0.31930  Biso   1.000  C
  H147     1.0000 0.42710  0.94770  0.31010  Biso   1.000  H
  H148     1.0000 0.36160  0.91350  0.33800  Biso   1.000  H
  H149     1.0000 0.35210  0.96150  0.28630  Biso   1.000  H
  C203     1.0000 0.35980  0.00960  0.41280  Biso   1.000  C
  C204     1.0000 0.35360  0.06940  0.44528  Biso   1.000  C
  C205     1.0000 0.34700  0.06500  0.50640  Biso   1.000  C
  C206     1.0000 0.40540  0.06470  0.53940  Biso   1.000  C
  H150     1.0000 0.44950  0.06570  0.52330  Biso   1.000  H
  C207     1.0000 0.40020  0.06310  0.59540  Biso   1.000  C
  H151     1.0000 0.44070  0.06290  0.61660  Biso   1.000  H
  C208     1.0000 0.33820  0.06190  0.62030  Biso   1.000  C
  H152     1.0000 0.33560  0.06190  0.65850  Biso   1.000  H
  C209     1.0000 0.27910  0.06060  0.59010  Biso   1.000  C
  H153     1.0000 0.23580  0.05800  0.60750  Biso   1.000  H
  C210     1.0000 0.28260  0.06320  0.53180  Biso   1.000  C
  H154     1.0000 0.24180  0.06380  0.51100  Biso   1.000  H
  Cd15     1.0000 0.57192  0.40917  0.24476  Biso   1.000  Cd
  O57      1.0000 0.59105  0.59313  0.45092  Biso   1.000  O
  O58      1.0000 0.70532  0.58598  0.44663  Biso   1.000  O
  O59      1.0000 0.59493  0.26854  0.46653  Biso   1.000  O
  O60      1.0000 0.70992  0.27754  0.46515  Biso   1.000  O
  N15      1.0000 0.62410  0.41981  0.33216  Biso   1.000  N
  C211     1.0000 0.64550  0.56120  0.43777  Biso   1.000  C
  C212     1.0000 0.65040  0.29960  0.45306  Biso   1.000  C
  C213     1.0000 0.64360  0.36550  0.41975  Biso   1.000  C
  C214     1.0000 0.63320  0.36140  0.36310  Biso   1.000  C
  C215     1.0000 0.63010  0.29160  0.33370  Biso   1.000  C
  H155     1.0000 0.65330  0.29530  0.29890  Biso   1.000  H
  H156     1.0000 0.65280  0.25660  0.35570  Biso   1.000  H
  H157     1.0000 0.58210  0.27870  0.32800  Biso   1.000  H
  C216     1.0000 0.62870  0.48280  0.35622  Biso   1.000  C
  C217     1.0000 0.62130  0.54570  0.31930  Biso   1.000  C
  H158     1.0000 0.57290  0.55230  0.31010  Biso   1.000  H
  H159     1.0000 0.63840  0.58650  0.33800  Biso   1.000  H
  H160     1.0000 0.64790  0.53850  0.28630  Biso   1.000  H
  C218     1.0000 0.64020  0.49040  0.41280  Biso   1.000  C
  C219     1.0000 0.64640  0.43060  0.44528  Biso   1.000  C
  C220     1.0000 0.65300  0.43500  0.50640  Biso   1.000  C
  C221     1.0000 0.59460  0.43530  0.53940  Biso   1.000  C
  H161     1.0000 0.55050  0.43430  0.52330  Biso   1.000  H
  C222     1.0000 0.59980  0.43690  0.59540  Biso   1.000  C
  H162     1.0000 0.55930  0.43710  0.61660  Biso   1.000  H
  C223     1.0000 0.66180  0.43810  0.62030  Biso   1.000  C
  H163     1.0000 0.66440  0.43810  0.65850  Biso   1.000  H
  C224     1.0000 0.72090  0.43940  0.59010  Biso   1.000  C
  H164     1.0000 0.76420  0.44200  0.60750  Biso   1.000  H
  C225     1.0000 0.71740  0.43680  0.53180  Biso   1.000  C
  H165     1.0000 0.75820  0.43620  0.51100  Biso   1.000  H
  Cd16     1.0000 0.07192  0.90917  0.74476  Biso   1.000  Cd
  O61      1.0000 0.09105  0.09313  0.95092  Biso   1.000  O
  O62      1.0000 0.20532  0.08598  0.94663  Biso   1.000  O
  O63      1.0000 0.09493  0.76854  0.96653  Biso   1.000  O
  O64      1.0000 0.20992  0.77754  0.96515  Biso   1.000  O
  N16      1.0000 0.12410  0.91981  0.83216  Biso   1.000  N
  C226     1.0000 0.14550  0.06120  0.93777  Biso   1.000  C
  C227     1.0000 0.15040  0.79960  0.95306  Biso   1.000  C
  C228     1.0000 0.14360  0.86550  0.91975  Biso   1.000  C
  C229     1.0000 0.13320  0.86140  0.86310  Biso   1.000  C
  C230     1.0000 0.13010  0.79160  0.83370  Biso   1.000  C
  H166     1.0000 0.15330  0.79530  0.79890  Biso   1.000  H
  H167     1.0000 0.15280  0.75660  0.85570  Biso   1.000  H
  H168     1.0000 0.08210  0.77870  0.82800  Biso   1.000  H
  C231     1.0000 0.12870  0.98280  0.85622  Biso   1.000  C
  C232     1.0000 0.12130  0.04570  0.81930  Biso   1.000  C
  H169     1.0000 0.07290  0.05230  0.81010  Biso   1.000  H
  H170     1.0000 0.13840  0.08650  0.83800  Biso   1.000  H
  H171     1.0000 0.14790  0.03850  0.78630  Biso   1.000  H
  C233     1.0000 0.14020  0.99040  0.91280  Biso   1.000  C
  C234     1.0000 0.14640  0.93060  0.94528  Biso   1.000  C
  C235     1.0000 0.15300  0.93500  0.00640  Biso   1.000  C
  C236     1.0000 0.09460  0.93530  0.03940  Biso   1.000  C
  H172     1.0000 0.05050  0.93430  0.02330  Biso   1.000  H
  C237     1.0000 0.09980  0.93690  0.09540  Biso   1.000  C
  H173     1.0000 0.05930  0.93710  0.11660  Biso   1.000  H
  C238     1.0000 0.16180  0.93810  0.12030  Biso   1.000  C
  H174     1.0000 0.16440  0.93810  0.15850  Biso   1.000  H
  C239     1.0000 0.22090  0.93940  0.09010  Biso   1.000  C
  H175     1.0000 0.26420  0.94200  0.10750  Biso   1.000  H
  C240     1.0000 0.21740  0.93680  0.03180  Biso   1.000  C
  H176     1.0000 0.25820  0.93620  0.01100  Biso   1.000  H
