data_image0
_cell_length_a       10.0627
_cell_length_b       23.0608
_cell_length_c       26.8432
_cell_angle_alpha    90
_cell_angle_beta     95.116
_cell_angle_gamma    90

_symmetry_space_group_name_H-M    "P 1"
_symmetry_int_tables_number       1

loop_
  _symmetry_equiv_pos_as_xyz
  'x, y, z'

loop_
  _atom_site_label
  _atom_site_occupancy
  _atom_site_fract_x
  _atom_site_fract_y
  _atom_site_fract_z
  _atom_site_thermal_displace_type
  _atom_site_B_iso_or_equiv
  _atom_site_type_symbol
  Zn1      1.0000 0.34896  0.19271  0.27196  Biso   1.000  Zn
  Zn2      1.0000 0.03815  0.24475  0.18301  Biso   1.000  Zn
  Zn3      1.0000 0.35673  0.50827  0.00810  Biso   1.000  Zn
  N1       1.0000 0.52360  0.93000  0.83070  Biso   1.000  N
  N2       1.0000 0.61940  0.88050  0.77280  Biso   1.000  N
  N3       1.0000 0.14840  0.96420  0.09940  Biso   1.000  N
  N4       1.0000 0.06080  0.16960  0.14240  Biso   1.000  N
  N5       1.0000 0.17270  0.76770  0.18090  Biso   1.000  N
  O1       1.0000 0.30450  0.23870  0.20730  Biso   1.000  O
  O2       1.0000 0.17910  0.29690  0.15880  Biso   1.000  O
  O3       1.0000 0.39440  0.44000  0.05490  Biso   1.000  O
  O4       1.0000 0.61210  0.42810  0.04350  Biso   1.000  O
  O5       1.0000 0.88890  0.29430  0.15770  Biso   1.000  O
  O6       1.0000 0.78340  0.21560  0.17790  Biso   1.000  O
  O7       1.0000 0.17330  0.16220  0.29140  Biso   1.000  O
  O8       1.0000 0.03220  0.22790  0.25300  Biso   1.000  O
  O9       1.0000 0.55720  0.20600  0.27840  Biso   1.000  O
  O10      1.0000 0.48850  0.14880  0.33760  Biso   1.000  O
  O11      1.0000 0.04490  0.05930  0.43920  Biso   1.000  O
  O12      1.0000 0.83290  0.04900  0.45070  Biso   1.000  O
  C1       1.0000 0.29210  0.27970  0.17570  Biso   1.000  C
  C2       1.0000 0.50830  0.41680  0.06300  Biso   1.000  C
  C3       1.0000 0.78130  0.26670  0.16180  Biso   1.000  C
  C4       1.0000 0.41130  0.30350  0.15510  Biso   1.000  C
  C5       1.0000 0.40360  0.34680  0.12110  Biso   1.000  C
  H1       1.0000 0.32150  0.36380  0.11140  Biso   1.000  H
  C6       1.0000 0.51820  0.36620  0.10030  Biso   1.000  C
  C7       1.0000 0.64360  0.34340  0.11260  Biso   1.000  C
  H2       1.0000 0.71870  0.35730  0.09870  Biso   1.000  H
  C8       1.0000 0.65110  0.29760  0.14770  Biso   1.000  C
  C9       1.0000 0.53670  0.27860  0.16850  Biso   1.000  C
  H3       1.0000 0.54370  0.24880  0.19190  Biso   1.000  H
  C10      1.0000 0.05930  0.18570  0.28290  Biso   1.000  C
  C11      1.0000 0.57900  0.17190  0.31590  Biso   1.000  C
  C12      1.0000 0.92580  0.06620  0.42870  Biso   1.000  C
  C13      1.0000 0.95420  0.16390  0.31550  Biso   1.000  C
  C14      1.0000 0.82180  0.17870  0.30130  Biso   1.000  C
  H4       1.0000 0.79920  0.20230  0.27370  Biso   1.000  H
  C15      1.0000 0.72390  0.15650  0.33040  Biso   1.000  C
  C16      1.0000 0.75750  0.12390  0.37180  Biso   1.000  C
  H5       1.0000 0.69150  0.11330  0.39220  Biso   1.000  H
  C17      1.0000 0.88650  0.10630  0.38420  Biso   1.000  C
  C18      1.0000 0.99130  0.12600  0.35670  Biso   1.000  C
  H6       1.0000 0.07940  0.11490  0.36490  Biso   1.000  H
  C19      1.0000 0.53420  0.87860  0.80790  Biso   1.000  C
  H7       1.0000 0.48740  0.84560  0.81570  Biso   1.000  H
  C20      1.0000 0.66470  0.93540  0.77280  Biso   1.000  C
  H8       1.0000 0.72540  0.94970  0.75170  Biso   1.000  H
  C21      1.0000 0.60620  0.96760  0.80950  Biso   1.000  C
  H9       1.0000 0.62080  0.00650  0.81760  Biso   1.000  H
  C22      1.0000 0.44320  0.93800  0.87250  Biso   1.000  C
  C23      1.0000 0.35590  0.89450  0.88360  Biso   1.000  C
  H10      1.0000 0.34000  0.86170  0.86390  Biso   1.000  H
  C24      1.0000 0.29210  0.90520  0.92840  Biso   1.000  C
  H11      1.0000 0.23410  0.87710  0.93870  Biso   1.000  H
  C25      1.0000 0.31130  0.95420  0.95700  Biso   1.000  C
  C26      1.0000 0.39500  0.99700  0.94260  Biso   1.000  C
  H12      1.0000 0.40590  0.03060  0.96180  Biso   1.000  H
  C27      1.0000 0.46490  0.99130  0.89940  Biso   1.000  C
  H13      1.0000 0.52100  0.02010  0.88910  Biso   1.000  H
  C28      1.0000 0.16020  0.01250  0.07250  Biso   1.000  C
  C29      1.0000 0.20260  0.01240  0.02310  Biso   1.000  C
  H14      1.0000 0.20320  0.04580  0.00380  Biso   1.000  H
  C30      1.0000 0.24350  0.95790  0.00550  Biso   1.000  C
  C31      1.0000 0.23320  0.90580  0.03320  Biso   1.000  C
  H15      1.0000 0.25500  0.87010  0.02010  Biso   1.000  H
  C32      1.0000 0.18700  0.91080  0.08300  Biso   1.000  C
  C33      1.0000 0.13400  0.16960  0.10420  Biso   1.000  C
  H16      1.0000 0.16740  0.20450  0.09330  Biso   1.000  H
  C34      1.0000 0.16390  0.11680  0.07900  Biso   1.000  C
  H17      1.0000 0.21340  0.11800  0.05140  Biso   1.000  H
  C35      1.0000 0.12130  0.06680  0.09480  Biso   1.000  C
  C36      1.0000 0.05140  0.06560  0.13440  Biso   1.000  C
  H18      1.0000 0.01950  0.03060  0.14590  Biso   1.000  H
  C37      1.0000 0.02580  0.11840  0.15910  Biso   1.000  C
  H19      1.0000 0.98250  0.11690  0.18820  Biso   1.000  H
  C38      1.0000 0.15170  0.82350  0.19490  Biso   1.000  C
  H20      1.0000 0.13160  0.83040  0.22750  Biso   1.000  H
  C39      1.0000 0.15880  0.87130  0.16270  Biso   1.000  C
  H21      1.0000 0.14910  0.90890  0.17440  Biso   1.000  H
  C40      1.0000 0.17980  0.86140  0.11460  Biso   1.000  C
  C41      1.0000 0.20160  0.80720  0.09860  Biso   1.000  C
  H22      1.0000 0.22010  0.80000  0.06590  Biso   1.000  H
  C42      1.0000 0.19530  0.76240  0.13320  Biso   1.000  C
  H23      1.0000 0.20820  0.72490  0.12160  Biso   1.000  H
  Zn4      1.0000 0.15104  0.69271  0.22804  Biso   1.000  Zn
  Zn5      1.0000 0.46185  0.74475  0.31699  Biso   1.000  Zn
  Zn6      1.0000 0.14327  0.00827  0.49190  Biso   1.000  Zn
  N6       1.0000 0.97640  0.43000  0.66930  Biso   1.000  N
  N7       1.0000 0.88060  0.38050  0.72720  Biso   1.000  N
  N8       1.0000 0.35160  0.46420  0.40060  Biso   1.000  N
  N9       1.0000 0.43920  0.66960  0.35760  Biso   1.000  N
  N10      1.0000 0.32730  0.26770  0.31910  Biso   1.000  N
  O13      1.0000 0.19550  0.73870  0.29270  Biso   1.000  O
  O14      1.0000 0.32090  0.79690  0.34120  Biso   1.000  O
  O15      1.0000 0.10560  0.94000  0.44510  Biso   1.000  O
  O16      1.0000 0.88790  0.92810  0.45650  Biso   1.000  O
  O17      1.0000 0.61110  0.79430  0.34230  Biso   1.000  O
  O18      1.0000 0.71660  0.71560  0.32210  Biso   1.000  O
  O19      1.0000 0.32670  0.66220  0.20860  Biso   1.000  O
  O20      1.0000 0.46780  0.72790  0.24700  Biso   1.000  O
  O21      1.0000 0.94280  0.70600  0.22160  Biso   1.000  O
  O22      1.0000 0.01150  0.64880  0.16240  Biso   1.000  O
  O23      1.0000 0.45510  0.55930  0.06080  Biso   1.000  O
  O24      1.0000 0.66710  0.54900  0.04930  Biso   1.000  O
  C43      1.0000 0.20790  0.77970  0.32430  Biso   1.000  C
  C44      1.0000 0.99170  0.91680  0.43700  Biso   1.000  C
  C45      1.0000 0.71870  0.76670  0.33820  Biso   1.000  C
  C46      1.0000 0.08870  0.80350  0.34490  Biso   1.000  C
  C47      1.0000 0.09640  0.84680  0.37890  Biso   1.000  C
  H24      1.0000 0.17850  0.86380  0.38860  Biso   1.000  H
  C48      1.0000 0.98180  0.86620  0.39970  Biso   1.000  C
  C49      1.0000 0.85640  0.84340  0.38740  Biso   1.000  C
  H25      1.0000 0.78130  0.85730  0.40130  Biso   1.000  H
  C50      1.0000 0.84890  0.79760  0.35230  Biso   1.000  C
  C51      1.0000 0.96330  0.77860  0.33150  Biso   1.000  C
  H26      1.0000 0.95630  0.74880  0.30810  Biso   1.000  H
  C52      1.0000 0.44070  0.68570  0.21710  Biso   1.000  C
  C53      1.0000 0.92100  0.67190  0.18410  Biso   1.000  C
  C54      1.0000 0.57420  0.56620  0.07130  Biso   1.000  C
  C55      1.0000 0.54580  0.66390  0.18450  Biso   1.000  C
  C56      1.0000 0.67820  0.67870  0.19870  Biso   1.000  C
  H27      1.0000 0.70080  0.70230  0.22630  Biso   1.000  H
  C57      1.0000 0.77610  0.65650  0.16960  Biso   1.000  C
  C58      1.0000 0.74250  0.62390  0.12820  Biso   1.000  C
  H28      1.0000 0.80850  0.61330  0.10780  Biso   1.000  H
  C59      1.0000 0.61350  0.60630  0.11580  Biso   1.000  C
  C60      1.0000 0.50870  0.62600  0.14330  Biso   1.000  C
  H29      1.0000 0.42060  0.61490  0.13510  Biso   1.000  H
  C61      1.0000 0.96580  0.37860  0.69210  Biso   1.000  C
  H30      1.0000 0.01260  0.34560  0.68430  Biso   1.000  H
  C62      1.0000 0.83530  0.43540  0.72720  Biso   1.000  C
  H31      1.0000 0.77460  0.44970  0.74830  Biso   1.000  H
  C63      1.0000 0.89380  0.46760  0.69050  Biso   1.000  C
  H32      1.0000 0.87920  0.50650  0.68240  Biso   1.000  H
  C64      1.0000 0.05680  0.43800  0.62750  Biso   1.000  C
  C65      1.0000 0.14410  0.39450  0.61640  Biso   1.000  C
  H33      1.0000 0.16000  0.36170  0.63610  Biso   1.000  H
  C66      1.0000 0.20790  0.40520  0.57160  Biso   1.000  C
  H34      1.0000 0.26590  0.37710  0.56130  Biso   1.000  H
  C67      1.0000 0.18870  0.45420  0.54300  Biso   1.000  C
  C68      1.0000 0.10500  0.49700  0.55740  Biso   1.000  C
  H35      1.0000 0.09410  0.53060  0.53820  Biso   1.000  H
  C69      1.0000 0.03510  0.49130  0.60060  Biso   1.000  C
  H36      1.0000 0.97900  0.52010  0.61090  Biso   1.000  H
  C70      1.0000 0.33980  0.51250  0.42750  Biso   1.000  C
  C71      1.0000 0.29740  0.51240  0.47690  Biso   1.000  C
  H37      1.0000 0.29680  0.54580  0.49620  Biso   1.000  H
  C72      1.0000 0.25650  0.45790  0.49450  Biso   1.000  C
  C73      1.0000 0.26680  0.40580  0.46680  Biso   1.000  C
  H38      1.0000 0.24500  0.37010  0.47990  Biso   1.000  H
  C74      1.0000 0.31300  0.41080  0.41700  Biso   1.000  C
  C75      1.0000 0.36600  0.66960  0.39580  Biso   1.000  C
  H39      1.0000 0.33260  0.70450  0.40670  Biso   1.000  H
  C76      1.0000 0.33610  0.61680  0.42100  Biso   1.000  C
  H40      1.0000 0.28660  0.61800  0.44860  Biso   1.000  H
  C77      1.0000 0.37870  0.56680  0.40520  Biso   1.000  C
  C78      1.0000 0.44860  0.56560  0.36560  Biso   1.000  C
  H41      1.0000 0.48050  0.53060  0.35410  Biso   1.000  H
  C79      1.0000 0.47420  0.61840  0.34090  Biso   1.000  C
  H42      1.0000 0.51750  0.61690  0.31180  Biso   1.000  H
  C80      1.0000 0.34830  0.32350  0.30510  Biso   1.000  C
  H43      1.0000 0.36840  0.33040  0.27250  Biso   1.000  H
  C81      1.0000 0.34120  0.37130  0.33730  Biso   1.000  C
  H44      1.0000 0.35090  0.40890  0.32560  Biso   1.000  H
  C82      1.0000 0.32020  0.36140  0.38540  Biso   1.000  C
  C83      1.0000 0.29840  0.30720  0.40140  Biso   1.000  C
  H45      1.0000 0.27990  0.30000  0.43410  Biso   1.000  H
  C84      1.0000 0.30470  0.26240  0.36680  Biso   1.000  C
  H46      1.0000 0.29180  0.22490  0.37840  Biso   1.000  H
  Zn7      1.0000 0.65104  0.80729  0.72804  Biso   1.000  Zn
  Zn8      1.0000 0.96185  0.75525  0.81699  Biso   1.000  Zn
  Zn9      1.0000 0.64327  0.49173  0.99190  Biso   1.000  Zn
  N11      1.0000 0.47640  0.07000  0.16930  Biso   1.000  N
  N12      1.0000 0.38060  0.11950  0.22720  Biso   1.000  N
  N13      1.0000 0.85160  0.03580  0.90060  Biso   1.000  N
  N14      1.0000 0.93920  0.83040  0.85760  Biso   1.000  N
  N15      1.0000 0.82730  0.23230  0.81910  Biso   1.000  N
  O25      1.0000 0.69550  0.76130  0.79270  Biso   1.000  O
  O26      1.0000 0.82090  0.70310  0.84120  Biso   1.000  O
  O27      1.0000 0.60560  0.56000  0.94510  Biso   1.000  O
  O28      1.0000 0.38790  0.57190  0.95650  Biso   1.000  O
  O29      1.0000 0.11110  0.70570  0.84230  Biso   1.000  O
  O30      1.0000 0.21660  0.78440  0.82210  Biso   1.000  O
  O31      1.0000 0.82670  0.83780  0.70860  Biso   1.000  O
  O32      1.0000 0.96780  0.77210  0.74700  Biso   1.000  O
  O33      1.0000 0.44280  0.79400  0.72160  Biso   1.000  O
  O34      1.0000 0.51150  0.85120  0.66240  Biso   1.000  O
  O35      1.0000 0.95510  0.94070  0.56080  Biso   1.000  O
  O36      1.0000 0.16710  0.95100  0.54930  Biso   1.000  O
  C85      1.0000 0.70790  0.72030  0.82430  Biso   1.000  C
  C86      1.0000 0.49170  0.58320  0.93700  Biso   1.000  C
  C87      1.0000 0.21870  0.73330  0.83820  Biso   1.000  C
  C88      1.0000 0.58870  0.69650  0.84490  Biso   1.000  C
  C89      1.0000 0.59640  0.65320  0.87890  Biso   1.000  C
  H47      1.0000 0.67850  0.63620  0.88860  Biso   1.000  H
  C90      1.0000 0.48180  0.63380  0.89970  Biso   1.000  C
  C91      1.0000 0.35640  0.65660  0.88740  Biso   1.000  C
  H48      1.0000 0.28130  0.64270  0.90130  Biso   1.000  H
  C92      1.0000 0.34890  0.70240  0.85230  Biso   1.000  C
  C93      1.0000 0.46330  0.72140  0.83150  Biso   1.000  C
  H49      1.0000 0.45630  0.75120  0.80810  Biso   1.000  H
  C94      1.0000 0.94070  0.81430  0.71710  Biso   1.000  C
  C95      1.0000 0.42100  0.82810  0.68410  Biso   1.000  C
  C96      1.0000 0.07420  0.93380  0.57130  Biso   1.000  C
  C97      1.0000 0.04580  0.83610  0.68450  Biso   1.000  C
  C98      1.0000 0.17820  0.82130  0.69870  Biso   1.000  C
  H50      1.0000 0.20080  0.79770  0.72630  Biso   1.000  H
  C99      1.0000 0.27610  0.84350  0.66960  Biso   1.000  C
  C100     1.0000 0.24250  0.87610  0.62820  Biso   1.000  C
  H51      1.0000 0.30850  0.88670  0.60780  Biso   1.000  H
  C101     1.0000 0.11350  0.89370  0.61580  Biso   1.000  C
  C102     1.0000 0.00870  0.87400  0.64330  Biso   1.000  C
  H52      1.0000 0.92060  0.88510  0.63510  Biso   1.000  H
  C103     1.0000 0.46580  0.12140  0.19210  Biso   1.000  C
  H53      1.0000 0.51260  0.15440  0.18430  Biso   1.000  H
  C104     1.0000 0.33530  0.06460  0.22720  Biso   1.000  C
  H54      1.0000 0.27460  0.05030  0.24830  Biso   1.000  H
  C105     1.0000 0.39380  0.03240  0.19050  Biso   1.000  C
  H55      1.0000 0.37920  0.99350  0.18240  Biso   1.000  H
  C106     1.0000 0.55680  0.06200  0.12750  Biso   1.000  C
  C107     1.0000 0.64410  0.10550  0.11640  Biso   1.000  C
  H56      1.0000 0.66000  0.13830  0.13610  Biso   1.000  H
  C108     1.0000 0.70790  0.09480  0.07160  Biso   1.000  C
  H57      1.0000 0.76590  0.12290  0.06130  Biso   1.000  H
  C109     1.0000 0.68870  0.04580  0.04300  Biso   1.000  C
  C110     1.0000 0.60500  0.00300  0.05740  Biso   1.000  C
  H58      1.0000 0.59410  0.96940  0.03820  Biso   1.000  H
  C111     1.0000 0.53510  0.00870  0.10060  Biso   1.000  C
  H59      1.0000 0.47900  0.97990  0.11090  Biso   1.000  H
  C112     1.0000 0.83980  0.98750  0.92750  Biso   1.000  C
  C113     1.0000 0.79740  0.98760  0.97690  Biso   1.000  C
  H60      1.0000 0.79680  0.95420  0.99620  Biso   1.000  H
  C114     1.0000 0.75650  0.04210  0.99450  Biso   1.000  C
  C115     1.0000 0.76680  0.09420  0.96680  Biso   1.000  C
  H61      1.0000 0.74500  0.12990  0.97990  Biso   1.000  H
  C116     1.0000 0.81300  0.08920  0.91700  Biso   1.000  C
  C117     1.0000 0.86600  0.83040  0.89580  Biso   1.000  C
  H62      1.0000 0.83260  0.79550  0.90670  Biso   1.000  H
  C118     1.0000 0.83610  0.88320  0.92100  Biso   1.000  C
  H63      1.0000 0.78660  0.88200  0.94860  Biso   1.000  H
  C119     1.0000 0.87870  0.93320  0.90520  Biso   1.000  C
  C120     1.0000 0.94860  0.93440  0.86560  Biso   1.000  C
  H64      1.0000 0.98050  0.96940  0.85410  Biso   1.000  H
  C121     1.0000 0.97420  0.88160  0.84090  Biso   1.000  C
  H65      1.0000 0.01750  0.88310  0.81180  Biso   1.000  H
  C122     1.0000 0.84830  0.17650  0.80510  Biso   1.000  C
  H66      1.0000 0.86840  0.16960  0.77250  Biso   1.000  H
  C123     1.0000 0.84120  0.12870  0.83730  Biso   1.000  C
  H67      1.0000 0.85090  0.09110  0.82560  Biso   1.000  H
  C124     1.0000 0.82020  0.13860  0.88540  Biso   1.000  C
  C125     1.0000 0.79840  0.19280  0.90140  Biso   1.000  C
  H68      1.0000 0.77990  0.20000  0.93410  Biso   1.000  H
  C126     1.0000 0.80470  0.23760  0.86680  Biso   1.000  C
  H69      1.0000 0.79180  0.27510  0.87840  Biso   1.000  H
  Zn10     1.0000 0.84896  0.30729  0.77196  Biso   1.000  Zn
  Zn11     1.0000 0.53815  0.25525  0.68301  Biso   1.000  Zn
  Zn12     1.0000 0.85673  0.99173  0.50810  Biso   1.000  Zn
  N16      1.0000 0.02360  0.57000  0.33070  Biso   1.000  N
  N17      1.0000 0.11940  0.61950  0.27280  Biso   1.000  N
  N18      1.0000 0.64840  0.53580  0.59940  Biso   1.000  N
  N19      1.0000 0.56080  0.33040  0.64240  Biso   1.000  N
  N20      1.0000 0.67270  0.73230  0.68090  Biso   1.000  N
  O37      1.0000 0.80450  0.26130  0.70730  Biso   1.000  O
  O38      1.0000 0.67910  0.20310  0.65880  Biso   1.000  O
  O39      1.0000 0.89440  0.06000  0.55490  Biso   1.000  O
  O40      1.0000 0.11210  0.07190  0.54350  Biso   1.000  O
  O41      1.0000 0.38890  0.20570  0.65770  Biso   1.000  O
  O42      1.0000 0.28340  0.28440  0.67790  Biso   1.000  O
  O43      1.0000 0.67330  0.33780  0.79140  Biso   1.000  O
  O44      1.0000 0.53220  0.27210  0.75300  Biso   1.000  O
  O45      1.0000 0.05720  0.29400  0.77840  Biso   1.000  O
  O46      1.0000 0.98850  0.35120  0.83760  Biso   1.000  O
  O47      1.0000 0.54490  0.44070  0.93920  Biso   1.000  O
  O48      1.0000 0.33290  0.45100  0.95070  Biso   1.000  O
  C127     1.0000 0.79210  0.22030  0.67570  Biso   1.000  C
  C128     1.0000 0.00830  0.08320  0.56300  Biso   1.000  C
  C129     1.0000 0.28130  0.23330  0.66180  Biso   1.000  C
  C130     1.0000 0.91130  0.19650  0.65510  Biso   1.000  C
  C131     1.0000 0.90360  0.15320  0.62110  Biso   1.000  C
  H70      1.0000 0.82150  0.13620  0.61140  Biso   1.000  H
  C132     1.0000 0.01820  0.13380  0.60030  Biso   1.000  C
  C133     1.0000 0.14360  0.15660  0.61260  Biso   1.000  C
  H71      1.0000 0.21870  0.14270  0.59870  Biso   1.000  H
  C134     1.0000 0.15110  0.20240  0.64770  Biso   1.000  C
  C135     1.0000 0.03670  0.22140  0.66850  Biso   1.000  C
  H72      1.0000 0.04370  0.25120  0.69190  Biso   1.000  H
  C136     1.0000 0.55930  0.31430  0.78290  Biso   1.000  C
  C137     1.0000 0.07900  0.32810  0.81590  Biso   1.000  C
  C138     1.0000 0.42580  0.43380  0.92870  Biso   1.000  C
  C139     1.0000 0.45420  0.33610  0.81550  Biso   1.000  C
  C140     1.0000 0.32180  0.32130  0.80130  Biso   1.000  C
  H73      1.0000 0.29920  0.29770  0.77370  Biso   1.000  H
  C141     1.0000 0.22390  0.34350  0.83040  Biso   1.000  C
  C142     1.0000 0.25750  0.37610  0.87180  Biso   1.000  C
  H74      1.0000 0.19150  0.38670  0.89220  Biso   1.000  H
  C143     1.0000 0.38650  0.39370  0.88420  Biso   1.000  C
  C144     1.0000 0.49130  0.37400  0.85670  Biso   1.000  C
  H75      1.0000 0.57940  0.38510  0.86490  Biso   1.000  H
  C145     1.0000 0.03420  0.62140  0.30790  Biso   1.000  C
  H76      1.0000 0.98740  0.65440  0.31570  Biso   1.000  H
  C146     1.0000 0.16470  0.56460  0.27280  Biso   1.000  C
  H77      1.0000 0.22540  0.55030  0.25170  Biso   1.000  H
  C147     1.0000 0.10620  0.53240  0.30950  Biso   1.000  C
  H78      1.0000 0.12080  0.49350  0.31760  Biso   1.000  H
  C148     1.0000 0.94320  0.56200  0.37250  Biso   1.000  C
  C149     1.0000 0.85590  0.60550  0.38360  Biso   1.000  C
  H79      1.0000 0.84000  0.63830  0.36390  Biso   1.000  H
  C150     1.0000 0.79210  0.59480  0.42840  Biso   1.000  C
  H80      1.0000 0.73410  0.62290  0.43870  Biso   1.000  H
  C151     1.0000 0.81130  0.54580  0.45700  Biso   1.000  C
  C152     1.0000 0.89500  0.50300  0.44260  Biso   1.000  C
  H81      1.0000 0.90590  0.46940  0.46180  Biso   1.000  H
  C153     1.0000 0.96490  0.50870  0.39940  Biso   1.000  C
  H82      1.0000 0.02100  0.47990  0.38910  Biso   1.000  H
  C154     1.0000 0.66020  0.48750  0.57250  Biso   1.000  C
  C155     1.0000 0.70260  0.48760  0.52310  Biso   1.000  C
  H83      1.0000 0.70320  0.45420  0.50380  Biso   1.000  H
  C156     1.0000 0.74350  0.54210  0.50550  Biso   1.000  C
  C157     1.0000 0.73320  0.59420  0.53320  Biso   1.000  C
  H84      1.0000 0.75500  0.62990  0.52010  Biso   1.000  H
  C158     1.0000 0.68700  0.58920  0.58300  Biso   1.000  C
  C159     1.0000 0.63400  0.33040  0.60420  Biso   1.000  C
  H85      1.0000 0.66740  0.29550  0.59330  Biso   1.000  H
  C160     1.0000 0.66390  0.38320  0.57900  Biso   1.000  C
  H86      1.0000 0.71340  0.38200  0.55140  Biso   1.000  H
  C161     1.0000 0.62130  0.43320  0.59480  Biso   1.000  C
  C162     1.0000 0.55140  0.43440  0.63440  Biso   1.000  C
  H87      1.0000 0.51950  0.46940  0.64590  Biso   1.000  H
  C163     1.0000 0.52580  0.38160  0.65910  Biso   1.000  C
  H88      1.0000 0.48250  0.38310  0.68820  Biso   1.000  H
  C164     1.0000 0.65170  0.67650  0.69490  Biso   1.000  C
  H89      1.0000 0.63160  0.66960  0.72750  Biso   1.000  H
  C165     1.0000 0.65880  0.62870  0.66270  Biso   1.000  C
  H90      1.0000 0.64910  0.59110  0.67440  Biso   1.000  H
  C166     1.0000 0.67980  0.63860  0.61460  Biso   1.000  C
  C167     1.0000 0.70160  0.69280  0.59860  Biso   1.000  C
  H91      1.0000 0.72010  0.70000  0.56590  Biso   1.000  H
  C168     1.0000 0.69530  0.73760  0.63320  Biso   1.000  C
  H92      1.0000 0.70820  0.77510  0.62160  Biso   1.000  H
