data_image0
_cell_length_a       13.758
_cell_length_b       8.18
_cell_length_c       18.037
_cell_angle_alpha    90
_cell_angle_beta     106.647
_cell_angle_gamma    90

_symmetry_space_group_name_H-M    "P 1"
_symmetry_int_tables_number       1

loop_
  _symmetry_equiv_pos_as_xyz
  'x, y, z'

loop_
  _atom_site_label
  _atom_site_occupancy
  _atom_site_fract_x
  _atom_site_fract_y
  _atom_site_fract_z
  _atom_site_thermal_displace_type
  _atom_site_B_iso_or_equiv
  _atom_site_type_symbol
  U1       1.0000 0.76746  0.07603  0.45994  Biso   1.000  U
  U2       1.0000 0.91195  0.78605  0.73467  Biso   1.000  U
  P1       1.0000 0.00490  0.05500  0.60960  Biso   1.000  P
  H1       1.0000 0.02720  0.12110  0.65670  Biso   1.000  H
  P2       1.0000 0.76930  0.15530  0.65780  Biso   1.000  P
  H2       1.0000 0.83810  0.20010  0.67580  Biso   1.000  H
  O1       1.0000 0.92610  0.15730  0.55030  Biso   1.000  O
  O2       1.0000 0.95460  0.90330  0.63040  Biso   1.000  O
  O3       1.0000 0.09750  0.01780  0.58530  Biso   1.000  O
  O4       1.0000 0.73280  0.17700  0.57010  Biso   1.000  O
  O5       1.0000 0.69850  0.98810  0.32710  Biso   1.000  O
  O6       1.0000 0.77550  0.97520  0.67960  Biso   1.000  O
  O7       1.0000 0.70380  0.25300  0.69460  Biso   1.000  O
  O8       1.0000 0.48440  0.89260  0.34550  Biso   1.000  O
  O9       1.0000 0.57650  0.80880  0.23010  Biso   1.000  O
  O10      1.0000 0.58520  0.12210  0.42660  Biso   1.000  O
  P3       1.0000 0.49830  0.07390  0.35810  Biso   1.000  P
  H3       1.0000 0.50960  0.12240  0.31160  Biso   1.000  H
  P4       1.0000 0.67840  0.82550  0.28900  Biso   1.000  P
  H4       1.0000 0.67950  0.74610  0.33000  Biso   1.000  H
  O11      1.0000 0.40400  0.15630  0.37260  Biso   1.000  O
  H5       1.0000 0.39840  0.12670  0.41460  Biso   1.000  H
  O12      1.0000 0.76790  0.78300  0.25780  Biso   1.000  O
  H6       1.0000 0.79050  0.86650  0.24410  Biso   1.000  H
  U3       1.0000 0.73254  0.57603  0.04006  Biso   1.000  U
  U4       1.0000 0.58805  0.28605  0.76533  Biso   1.000  U
  P5       1.0000 0.49510  0.55500  0.89040  Biso   1.000  P
  H7       1.0000 0.47280  0.62110  0.84330  Biso   1.000  H
  P6       1.0000 0.73070  0.65530  0.84220  Biso   1.000  P
  H8       1.0000 0.66190  0.70010  0.82420  Biso   1.000  H
  O13      1.0000 0.57390  0.65730  0.94970  Biso   1.000  O
  O14      1.0000 0.54540  0.40330  0.86960  Biso   1.000  O
  O15      1.0000 0.40250  0.51780  0.91470  Biso   1.000  O
  O16      1.0000 0.76720  0.67700  0.92990  Biso   1.000  O
  O17      1.0000 0.80150  0.48810  0.17290  Biso   1.000  O
  O18      1.0000 0.72450  0.47520  0.82040  Biso   1.000  O
  O19      1.0000 0.79620  0.75300  0.80540  Biso   1.000  O
  O20      1.0000 0.01560  0.39260  0.15450  Biso   1.000  O
  O21      1.0000 0.92350  0.30880  0.26990  Biso   1.000  O
  O22      1.0000 0.91480  0.62210  0.07340  Biso   1.000  O
  P7       1.0000 0.00170  0.57390  0.14190  Biso   1.000  P
  H9       1.0000 0.99040  0.62240  0.18840  Biso   1.000  H
  P8       1.0000 0.82160  0.32550  0.21100  Biso   1.000  P
  H10      1.0000 0.82050  0.24610  0.17000  Biso   1.000  H
  O23      1.0000 0.09600  0.65630  0.12740  Biso   1.000  O
  H11      1.0000 0.10160  0.62670  0.08540  Biso   1.000  H
  O24      1.0000 0.73210  0.28300  0.24220  Biso   1.000  O
  H12      1.0000 0.70950  0.36650  0.25590  Biso   1.000  H
  U5       1.0000 0.23254  0.92397  0.54006  Biso   1.000  U
  U6       1.0000 0.08805  0.21395  0.26533  Biso   1.000  U
  P9       1.0000 0.99510  0.94500  0.39040  Biso   1.000  P
  H13      1.0000 0.97280  0.87890  0.34330  Biso   1.000  H
  P10      1.0000 0.23070  0.84470  0.34220  Biso   1.000  P
  H14      1.0000 0.16190  0.79990  0.32420  Biso   1.000  H
  O25      1.0000 0.07390  0.84270  0.44970  Biso   1.000  O
  O26      1.0000 0.04540  0.09670  0.36960  Biso   1.000  O
  O27      1.0000 0.90250  0.98220  0.41470  Biso   1.000  O
  O28      1.0000 0.26720  0.82300  0.42990  Biso   1.000  O
  O29      1.0000 0.30150  0.01190  0.67290  Biso   1.000  O
  O30      1.0000 0.22450  0.02480  0.32040  Biso   1.000  O
  O31      1.0000 0.29620  0.74700  0.30540  Biso   1.000  O
  O32      1.0000 0.51560  0.10740  0.65450  Biso   1.000  O
  O33      1.0000 0.42350  0.19120  0.76990  Biso   1.000  O
  O34      1.0000 0.41480  0.87790  0.57340  Biso   1.000  O
  P11      1.0000 0.50170  0.92610  0.64190  Biso   1.000  P
  H15      1.0000 0.49040  0.87760  0.68840  Biso   1.000  H
  P12      1.0000 0.32160  0.17450  0.71100  Biso   1.000  P
  H16      1.0000 0.32050  0.25390  0.67000  Biso   1.000  H
  O35      1.0000 0.59600  0.84370  0.62740  Biso   1.000  O
  H17      1.0000 0.60160  0.87330  0.58540  Biso   1.000  H
  O36      1.0000 0.23210  0.21700  0.74220  Biso   1.000  O
  H18      1.0000 0.20950  0.13350  0.75590  Biso   1.000  H
  U7       1.0000 0.26746  0.42397  0.95994  Biso   1.000  U
  U8       1.0000 0.41195  0.71395  0.23467  Biso   1.000  U
  P13      1.0000 0.50490  0.44500  0.10960  Biso   1.000  P
  H19      1.0000 0.52720  0.37890  0.15670  Biso   1.000  H
  P14      1.0000 0.26930  0.34470  0.15780  Biso   1.000  P
  H20      1.0000 0.33810  0.29990  0.17580  Biso   1.000  H
  O37      1.0000 0.42610  0.34270  0.05030  Biso   1.000  O
  O38      1.0000 0.45460  0.59670  0.13040  Biso   1.000  O
  O39      1.0000 0.59750  0.48220  0.08530  Biso   1.000  O
  O40      1.0000 0.23280  0.32300  0.07010  Biso   1.000  O
  O41      1.0000 0.19850  0.51190  0.82710  Biso   1.000  O
  O42      1.0000 0.27550  0.52480  0.17960  Biso   1.000  O
  O43      1.0000 0.20380  0.24700  0.19460  Biso   1.000  O
  O44      1.0000 0.98440  0.60740  0.84550  Biso   1.000  O
  O45      1.0000 0.07650  0.69120  0.73010  Biso   1.000  O
  O46      1.0000 0.08520  0.37790  0.92660  Biso   1.000  O
  P15      1.0000 0.99830  0.42610  0.85810  Biso   1.000  P
  H21      1.0000 0.00960  0.37760  0.81160  Biso   1.000  H
  P16      1.0000 0.17840  0.67450  0.78900  Biso   1.000  P
  H22      1.0000 0.17950  0.75390  0.83000  Biso   1.000  H
  O47      1.0000 0.90400  0.34370  0.87260  Biso   1.000  O
  H23      1.0000 0.89840  0.37330  0.91460  Biso   1.000  H
  O48      1.0000 0.26790  0.71700  0.75780  Biso   1.000  O
  H24      1.0000 0.29050  0.63350  0.74410  Biso   1.000  H
