data_image0
_cell_length_a       19.862
_cell_length_b       11.645
_cell_length_c       22.813
_cell_angle_alpha    90
_cell_angle_beta     90
_cell_angle_gamma    90

_symmetry_space_group_name_H-M    "P 1"
_symmetry_int_tables_number       1

loop_
  _symmetry_equiv_pos_as_xyz
  'x, y, z'

loop_
  _atom_site_label
  _atom_site_occupancy
  _atom_site_fract_x
  _atom_site_fract_y
  _atom_site_fract_z
  _atom_site_thermal_displace_type
  _atom_site_B_iso_or_equiv
  _atom_site_type_symbol
  Zn1      1.0000 0.08241  0.57661  0.61832  Biso   1.000  Zn
  O1       1.0000 0.07305  0.68257  0.53751  Biso   1.000  O
  O2       1.0000 0.05825  0.66067  0.44047  Biso   1.000  O
  O3       1.0000 0.09746  0.41549  0.66211  Biso   1.000  O
  O4       1.0000 0.10072  0.22497  0.64604  Biso   1.000  O
  O5       1.0000 0.18658  0.14096  0.52683  Biso   1.000  O
  O6       1.0000 0.08076  0.07103  0.53086  Biso   1.000  O
  O7       1.0000 0.13139  0.47699  0.36132  Biso   1.000  O
  O8       1.0000 0.02137  0.44064  0.36207  Biso   1.000  O
  N1       1.0000 0.08479  0.46036  0.55138  Biso   1.000  N
  N2       1.0000 0.09457  0.30522  0.46181  Biso   1.000  N
  N3       1.0000 0.08405  0.70498  0.67974  Biso   1.000  N
  N4       1.0000 0.05826  0.14693  0.88645  Biso   1.000  N
  H1       1.0000 0.05420  0.20570  0.91220  Biso   1.000  H
  C1       1.0000 0.06981  0.62496  0.49081  Biso   1.000  C
  C2       1.0000 0.07957  0.49638  0.49644  Biso   1.000  C
  C3       1.0000 0.08325  0.41701  0.45060  Biso   1.000  C
  C4       1.0000 0.07778  0.44974  0.38612  Biso   1.000  C
  C5       1.0000 0.09803  0.32554  0.62982  Biso   1.000  C
  C6       1.0000 0.09425  0.35067  0.56419  Biso   1.000  C
  C7       1.0000 0.10044  0.27229  0.51816  Biso   1.000  C
  C8       1.0000 0.12252  0.14889  0.52689  Biso   1.000  C
  C9       1.0000 0.08766  0.68327  0.73726  Biso   1.000  C
  H2       1.0000 0.08950  0.60730  0.74970  Biso   1.000  H
  C10      1.0000 0.08871  0.76919  0.77878  Biso   1.000  C
  H3       1.0000 0.09170  0.75070  0.81840  Biso   1.000  H
  C11      1.0000 0.08523  0.88321  0.76155  Biso   1.000  C
  C12      1.0000 0.08440  0.90585  0.70147  Biso   1.000  C
  H4       1.0000 0.08430  0.98110  0.68780  Biso   1.000  H
  C13      1.0000 0.08367  0.81497  0.66262  Biso   1.000  C
  H5       1.0000 0.08290  0.83090  0.62270  Biso   1.000  H
  C14      1.0000 0.07850  0.97688  0.80526  Biso   1.000  C
  C15      1.0000 0.07214  0.95114  0.86507  Biso   1.000  C
  H6       1.0000 0.07530  0.87550  0.87790  Biso   1.000  H
  C16      1.0000 0.06126  0.03811  0.90462  Biso   1.000  C
  H7       1.0000 0.05600  0.02110  0.94420  Biso   1.000  H
  C17      1.0000 0.06469  0.17538  0.82992  Biso   1.000  C
  H8       1.0000 0.06230  0.25210  0.81880  Biso   1.000  H
  C18      1.0000 0.07483  0.09180  0.78818  Biso   1.000  C
  H9       1.0000 0.07920  0.11180  0.74890  Biso   1.000  H
  C19      1.0000 0.23818  0.09632  0.65288  Biso   1.000  C
  H10      1.0000 0.23030  0.16400  0.63230  Biso   1.000  H
  C20      1.0000 0.23718  0.09998  0.71366  Biso   1.000  C
  H11      1.0000 0.22800  0.16850  0.73300  Biso   1.000  H
  C21      1.0000 0.24006  0.10069  0.84304  Biso   1.000  C
  H12      1.0000 0.23340  0.17010  0.82370  Biso   1.000  H
  C22      1.0000 0.24011  0.09708  0.90368  Biso   1.000  C
  H13      1.0000 0.23300  0.16500  0.92420  Biso   1.000  H
  Zn2      1.0000 0.41759  0.42339  0.61832  Biso   1.000  Zn
  O9       1.0000 0.42695  0.31743  0.53751  Biso   1.000  O
  O10      1.0000 0.44175  0.33933  0.44047  Biso   1.000  O
  O11      1.0000 0.40254  0.58451  0.66211  Biso   1.000  O
  O12      1.0000 0.39928  0.77503  0.64604  Biso   1.000  O
  O13      1.0000 0.31342  0.85904  0.52683  Biso   1.000  O
  O14      1.0000 0.41924  0.92897  0.53086  Biso   1.000  O
  O15      1.0000 0.36861  0.52301  0.36132  Biso   1.000  O
  O16      1.0000 0.47863  0.55936  0.36207  Biso   1.000  O
  N5       1.0000 0.41521  0.53964  0.55138  Biso   1.000  N
  N6       1.0000 0.40543  0.69478  0.46181  Biso   1.000  N
  N7       1.0000 0.41595  0.29502  0.67974  Biso   1.000  N
  N8       1.0000 0.44174  0.85307  0.88645  Biso   1.000  N
  H14      1.0000 0.44580  0.79430  0.91220  Biso   1.000  H
  C23      1.0000 0.43019  0.37504  0.49081  Biso   1.000  C
  C24      1.0000 0.42043  0.50362  0.49644  Biso   1.000  C
  C25      1.0000 0.41675  0.58299  0.45060  Biso   1.000  C
  C26      1.0000 0.42222  0.55026  0.38612  Biso   1.000  C
  C27      1.0000 0.40197  0.67446  0.62982  Biso   1.000  C
  C28      1.0000 0.40575  0.64933  0.56419  Biso   1.000  C
  C29      1.0000 0.39956  0.72771  0.51816  Biso   1.000  C
  C30      1.0000 0.37748  0.85111  0.52689  Biso   1.000  C
  C31      1.0000 0.41234  0.31673  0.73726  Biso   1.000  C
  H15      1.0000 0.41050  0.39270  0.74970  Biso   1.000  H
  C32      1.0000 0.41129  0.23081  0.77878  Biso   1.000  C
  H16      1.0000 0.40830  0.24930  0.81840  Biso   1.000  H
  C33      1.0000 0.41477  0.11679  0.76155  Biso   1.000  C
  C34      1.0000 0.41560  0.09415  0.70147  Biso   1.000  C
  H17      1.0000 0.41570  0.01890  0.68780  Biso   1.000  H
  C35      1.0000 0.41633  0.18503  0.66262  Biso   1.000  C
  H18      1.0000 0.41710  0.16910  0.62270  Biso   1.000  H
  C36      1.0000 0.42150  0.02312  0.80526  Biso   1.000  C
  C37      1.0000 0.42786  0.04886  0.86507  Biso   1.000  C
  H19      1.0000 0.42470  0.12450  0.87790  Biso   1.000  H
  C38      1.0000 0.43874  0.96189  0.90462  Biso   1.000  C
  H20      1.0000 0.44400  0.97890  0.94420  Biso   1.000  H
  C39      1.0000 0.43531  0.82462  0.82992  Biso   1.000  C
  H21      1.0000 0.43770  0.74790  0.81880  Biso   1.000  H
  C40      1.0000 0.42517  0.90820  0.78818  Biso   1.000  C
  H22      1.0000 0.42080  0.88820  0.74890  Biso   1.000  H
  C41      1.0000 0.26182  0.90368  0.65288  Biso   1.000  C
  H23      1.0000 0.26970  0.83600  0.63230  Biso   1.000  H
  C42      1.0000 0.26282  0.90002  0.71366  Biso   1.000  C
  H24      1.0000 0.27200  0.83150  0.73300  Biso   1.000  H
  C43      1.0000 0.25994  0.89931  0.84304  Biso   1.000  C
  H25      1.0000 0.26660  0.82990  0.82370  Biso   1.000  H
  C44      1.0000 0.25989  0.90292  0.90368  Biso   1.000  C
  H26      1.0000 0.26700  0.83500  0.92420  Biso   1.000  H
  Zn3      1.0000 0.91759  0.57661  0.88168  Biso   1.000  Zn
  O17      1.0000 0.92695  0.68257  0.96249  Biso   1.000  O
  O18      1.0000 0.94175  0.66067  0.05953  Biso   1.000  O
  O19      1.0000 0.90254  0.41549  0.83789  Biso   1.000  O
  O20      1.0000 0.89928  0.22497  0.85396  Biso   1.000  O
  O21      1.0000 0.81342  0.14096  0.97317  Biso   1.000  O
  O22      1.0000 0.91924  0.07103  0.96914  Biso   1.000  O
  O23      1.0000 0.86861  0.47699  0.13868  Biso   1.000  O
  O24      1.0000 0.97863  0.44064  0.13793  Biso   1.000  O
  N9       1.0000 0.91521  0.46036  0.94862  Biso   1.000  N
  N10      1.0000 0.90543  0.30522  0.03819  Biso   1.000  N
  N11      1.0000 0.91595  0.70498  0.82026  Biso   1.000  N
  N12      1.0000 0.94174  0.14693  0.61355  Biso   1.000  N
  H27      1.0000 0.94580  0.20570  0.58780  Biso   1.000  H
  C45      1.0000 0.93019  0.62496  0.00919  Biso   1.000  C
  C46      1.0000 0.92043  0.49638  0.00356  Biso   1.000  C
  C47      1.0000 0.91675  0.41701  0.04940  Biso   1.000  C
  C48      1.0000 0.92222  0.44974  0.11388  Biso   1.000  C
  C49      1.0000 0.90197  0.32554  0.87018  Biso   1.000  C
  C50      1.0000 0.90575  0.35067  0.93581  Biso   1.000  C
  C51      1.0000 0.89956  0.27229  0.98184  Biso   1.000  C
  C52      1.0000 0.87748  0.14889  0.97311  Biso   1.000  C
  C53      1.0000 0.91234  0.68327  0.76274  Biso   1.000  C
  H28      1.0000 0.91050  0.60730  0.75030  Biso   1.000  H
  C54      1.0000 0.91129  0.76919  0.72122  Biso   1.000  C
  H29      1.0000 0.90830  0.75070  0.68160  Biso   1.000  H
  C55      1.0000 0.91477  0.88321  0.73845  Biso   1.000  C
  C56      1.0000 0.91560  0.90585  0.79853  Biso   1.000  C
  H30      1.0000 0.91570  0.98110  0.81220  Biso   1.000  H
  C57      1.0000 0.91633  0.81497  0.83738  Biso   1.000  C
  H31      1.0000 0.91710  0.83090  0.87730  Biso   1.000  H
  C58      1.0000 0.92150  0.97688  0.69474  Biso   1.000  C
  C59      1.0000 0.92786  0.95114  0.63493  Biso   1.000  C
  H32      1.0000 0.92470  0.87550  0.62210  Biso   1.000  H
  C60      1.0000 0.93874  0.03811  0.59538  Biso   1.000  C
  H33      1.0000 0.94400  0.02110  0.55580  Biso   1.000  H
  C61      1.0000 0.93531  0.17538  0.67008  Biso   1.000  C
  H34      1.0000 0.93770  0.25210  0.68120  Biso   1.000  H
  C62      1.0000 0.92517  0.09180  0.71182  Biso   1.000  C
  H35      1.0000 0.92080  0.11180  0.75110  Biso   1.000  H
  C63      1.0000 0.76182  0.09632  0.84712  Biso   1.000  C
  H36      1.0000 0.76970  0.16400  0.86770  Biso   1.000  H
  C64      1.0000 0.76282  0.09998  0.78634  Biso   1.000  C
  H37      1.0000 0.77200  0.16850  0.76700  Biso   1.000  H
  C65      1.0000 0.75994  0.10069  0.65696  Biso   1.000  C
  H38      1.0000 0.76660  0.17010  0.67630  Biso   1.000  H
  C66      1.0000 0.75989  0.09708  0.59632  Biso   1.000  C
  H39      1.0000 0.76700  0.16500  0.57580  Biso   1.000  H
  Zn4      1.0000 0.58241  0.42339  0.88168  Biso   1.000  Zn
  O25      1.0000 0.57305  0.31743  0.96249  Biso   1.000  O
  O26      1.0000 0.55825  0.33933  0.05953  Biso   1.000  O
  O27      1.0000 0.59746  0.58451  0.83789  Biso   1.000  O
  O28      1.0000 0.60072  0.77503  0.85396  Biso   1.000  O
  O29      1.0000 0.68658  0.85904  0.97317  Biso   1.000  O
  O30      1.0000 0.58076  0.92897  0.96914  Biso   1.000  O
  O31      1.0000 0.63139  0.52301  0.13868  Biso   1.000  O
  O32      1.0000 0.52137  0.55936  0.13793  Biso   1.000  O
  N13      1.0000 0.58479  0.53964  0.94862  Biso   1.000  N
  N14      1.0000 0.59457  0.69478  0.03819  Biso   1.000  N
  N15      1.0000 0.58405  0.29502  0.82026  Biso   1.000  N
  N16      1.0000 0.55826  0.85307  0.61355  Biso   1.000  N
  H40      1.0000 0.55420  0.79430  0.58780  Biso   1.000  H
  C67      1.0000 0.56981  0.37504  0.00919  Biso   1.000  C
  C68      1.0000 0.57957  0.50362  0.00356  Biso   1.000  C
  C69      1.0000 0.58325  0.58299  0.04940  Biso   1.000  C
  C70      1.0000 0.57778  0.55026  0.11388  Biso   1.000  C
  C71      1.0000 0.59803  0.67446  0.87018  Biso   1.000  C
  C72      1.0000 0.59425  0.64933  0.93581  Biso   1.000  C
  C73      1.0000 0.60044  0.72771  0.98184  Biso   1.000  C
  C74      1.0000 0.62252  0.85111  0.97311  Biso   1.000  C
  C75      1.0000 0.58766  0.31673  0.76274  Biso   1.000  C
  H41      1.0000 0.58950  0.39270  0.75030  Biso   1.000  H
  C76      1.0000 0.58871  0.23081  0.72122  Biso   1.000  C
  H42      1.0000 0.59170  0.24930  0.68160  Biso   1.000  H
  C77      1.0000 0.58523  0.11679  0.73845  Biso   1.000  C
  C78      1.0000 0.58440  0.09415  0.79853  Biso   1.000  C
  H43      1.0000 0.58430  0.01890  0.81220  Biso   1.000  H
  C79      1.0000 0.58367  0.18503  0.83738  Biso   1.000  C
  H44      1.0000 0.58290  0.16910  0.87730  Biso   1.000  H
  C80      1.0000 0.57850  0.02312  0.69474  Biso   1.000  C
  C81      1.0000 0.57214  0.04886  0.63493  Biso   1.000  C
  H45      1.0000 0.57530  0.12450  0.62210  Biso   1.000  H
  C82      1.0000 0.56126  0.96189  0.59538  Biso   1.000  C
  H46      1.0000 0.55600  0.97890  0.55580  Biso   1.000  H
  C83      1.0000 0.56469  0.82462  0.67008  Biso   1.000  C
  H47      1.0000 0.56230  0.74790  0.68120  Biso   1.000  H
  C84      1.0000 0.57483  0.90820  0.71182  Biso   1.000  C
  H48      1.0000 0.57920  0.88820  0.75110  Biso   1.000  H
  C85      1.0000 0.73818  0.90368  0.84712  Biso   1.000  C
  H49      1.0000 0.73030  0.83600  0.86770  Biso   1.000  H
  C86      1.0000 0.73718  0.90002  0.78634  Biso   1.000  C
  H50      1.0000 0.72800  0.83150  0.76700  Biso   1.000  H
  C87      1.0000 0.74006  0.89931  0.65696  Biso   1.000  C
  H51      1.0000 0.73340  0.82990  0.67630  Biso   1.000  H
  C88      1.0000 0.74011  0.90292  0.59632  Biso   1.000  C
  H52      1.0000 0.73300  0.83500  0.57580  Biso   1.000  H
  Zn5      1.0000 0.91759  0.42339  0.38168  Biso   1.000  Zn
  O33      1.0000 0.92695  0.31743  0.46249  Biso   1.000  O
  O34      1.0000 0.94175  0.33933  0.55953  Biso   1.000  O
  O35      1.0000 0.90254  0.58451  0.33789  Biso   1.000  O
  O36      1.0000 0.89928  0.77503  0.35396  Biso   1.000  O
  O37      1.0000 0.81342  0.85904  0.47317  Biso   1.000  O
  O38      1.0000 0.91924  0.92897  0.46914  Biso   1.000  O
  O39      1.0000 0.86861  0.52301  0.63868  Biso   1.000  O
  O40      1.0000 0.97863  0.55936  0.63793  Biso   1.000  O
  N17      1.0000 0.91521  0.53964  0.44862  Biso   1.000  N
  N18      1.0000 0.90543  0.69478  0.53819  Biso   1.000  N
  N19      1.0000 0.91595  0.29502  0.32026  Biso   1.000  N
  N20      1.0000 0.94174  0.85307  0.11355  Biso   1.000  N
  H53      1.0000 0.94580  0.79430  0.08780  Biso   1.000  H
  C89      1.0000 0.93019  0.37504  0.50919  Biso   1.000  C
  C90      1.0000 0.92043  0.50362  0.50356  Biso   1.000  C
  C91      1.0000 0.91675  0.58299  0.54940  Biso   1.000  C
  C92      1.0000 0.92222  0.55026  0.61388  Biso   1.000  C
  C93      1.0000 0.90197  0.67446  0.37018  Biso   1.000  C
  C94      1.0000 0.90575  0.64933  0.43581  Biso   1.000  C
  C95      1.0000 0.89956  0.72771  0.48184  Biso   1.000  C
  C96      1.0000 0.87748  0.85111  0.47311  Biso   1.000  C
  C97      1.0000 0.91234  0.31673  0.26274  Biso   1.000  C
  H54      1.0000 0.91050  0.39270  0.25030  Biso   1.000  H
  C98      1.0000 0.91129  0.23081  0.22122  Biso   1.000  C
  H55      1.0000 0.90830  0.24930  0.18160  Biso   1.000  H
  C99      1.0000 0.91477  0.11679  0.23845  Biso   1.000  C
  C100     1.0000 0.91560  0.09415  0.29853  Biso   1.000  C
  H56      1.0000 0.91570  0.01890  0.31220  Biso   1.000  H
  C101     1.0000 0.91633  0.18503  0.33738  Biso   1.000  C
  H57      1.0000 0.91710  0.16910  0.37730  Biso   1.000  H
  C102     1.0000 0.92150  0.02312  0.19474  Biso   1.000  C
  C103     1.0000 0.92786  0.04886  0.13493  Biso   1.000  C
  H58      1.0000 0.92470  0.12450  0.12210  Biso   1.000  H
  C104     1.0000 0.93874  0.96189  0.09538  Biso   1.000  C
  H59      1.0000 0.94400  0.97890  0.05580  Biso   1.000  H
  C105     1.0000 0.93531  0.82462  0.17008  Biso   1.000  C
  H60      1.0000 0.93770  0.74790  0.18120  Biso   1.000  H
  C106     1.0000 0.92517  0.90820  0.21182  Biso   1.000  C
  H61      1.0000 0.92080  0.88820  0.25110  Biso   1.000  H
  C107     1.0000 0.76182  0.90368  0.34712  Biso   1.000  C
  H62      1.0000 0.76970  0.83600  0.36770  Biso   1.000  H
  C108     1.0000 0.76282  0.90002  0.28634  Biso   1.000  C
  H63      1.0000 0.77200  0.83150  0.26700  Biso   1.000  H
  C109     1.0000 0.75994  0.89931  0.15696  Biso   1.000  C
  H64      1.0000 0.76660  0.82990  0.17630  Biso   1.000  H
  C110     1.0000 0.75989  0.90292  0.09632  Biso   1.000  C
  H65      1.0000 0.76700  0.83500  0.07580  Biso   1.000  H
  Zn6      1.0000 0.58241  0.57661  0.38168  Biso   1.000  Zn
  O41      1.0000 0.57305  0.68257  0.46249  Biso   1.000  O
  O42      1.0000 0.55825  0.66067  0.55953  Biso   1.000  O
  O43      1.0000 0.59746  0.41549  0.33789  Biso   1.000  O
  O44      1.0000 0.60072  0.22497  0.35396  Biso   1.000  O
  O45      1.0000 0.68658  0.14096  0.47317  Biso   1.000  O
  O46      1.0000 0.58076  0.07103  0.46914  Biso   1.000  O
  O47      1.0000 0.63139  0.47699  0.63868  Biso   1.000  O
  O48      1.0000 0.52137  0.44064  0.63793  Biso   1.000  O
  N21      1.0000 0.58479  0.46036  0.44862  Biso   1.000  N
  N22      1.0000 0.59457  0.30522  0.53819  Biso   1.000  N
  N23      1.0000 0.58405  0.70498  0.32026  Biso   1.000  N
  N24      1.0000 0.55826  0.14693  0.11355  Biso   1.000  N
  H66      1.0000 0.55420  0.20570  0.08780  Biso   1.000  H
  C111     1.0000 0.56981  0.62496  0.50919  Biso   1.000  C
  C112     1.0000 0.57957  0.49638  0.50356  Biso   1.000  C
  C113     1.0000 0.58325  0.41701  0.54940  Biso   1.000  C
  C114     1.0000 0.57778  0.44974  0.61388  Biso   1.000  C
  C115     1.0000 0.59803  0.32554  0.37018  Biso   1.000  C
  C116     1.0000 0.59425  0.35067  0.43581  Biso   1.000  C
  C117     1.0000 0.60044  0.27229  0.48184  Biso   1.000  C
  C118     1.0000 0.62252  0.14889  0.47311  Biso   1.000  C
  C119     1.0000 0.58766  0.68327  0.26274  Biso   1.000  C
  H67      1.0000 0.58950  0.60730  0.25030  Biso   1.000  H
  C120     1.0000 0.58871  0.76919  0.22122  Biso   1.000  C
  H68      1.0000 0.59170  0.75070  0.18160  Biso   1.000  H
  C121     1.0000 0.58523  0.88321  0.23845  Biso   1.000  C
  C122     1.0000 0.58440  0.90585  0.29853  Biso   1.000  C
  H69      1.0000 0.58430  0.98110  0.31220  Biso   1.000  H
  C123     1.0000 0.58367  0.81497  0.33738  Biso   1.000  C
  H70      1.0000 0.58290  0.83090  0.37730  Biso   1.000  H
  C124     1.0000 0.57850  0.97688  0.19474  Biso   1.000  C
  C125     1.0000 0.57214  0.95114  0.13493  Biso   1.000  C
  H71      1.0000 0.57530  0.87550  0.12210  Biso   1.000  H
  C126     1.0000 0.56126  0.03811  0.09538  Biso   1.000  C
  H72      1.0000 0.55600  0.02110  0.05580  Biso   1.000  H
  C127     1.0000 0.56469  0.17538  0.17008  Biso   1.000  C
  H73      1.0000 0.56230  0.25210  0.18120  Biso   1.000  H
  C128     1.0000 0.57483  0.09180  0.21182  Biso   1.000  C
  H74      1.0000 0.57920  0.11180  0.25110  Biso   1.000  H
  C129     1.0000 0.73818  0.09632  0.34712  Biso   1.000  C
  H75      1.0000 0.73030  0.16400  0.36770  Biso   1.000  H
  C130     1.0000 0.73718  0.09998  0.28634  Biso   1.000  C
  H76      1.0000 0.72800  0.16850  0.26700  Biso   1.000  H
  C131     1.0000 0.74006  0.10069  0.15696  Biso   1.000  C
  H77      1.0000 0.73340  0.17010  0.17630  Biso   1.000  H
  C132     1.0000 0.74011  0.09708  0.09632  Biso   1.000  C
  H78      1.0000 0.73300  0.16500  0.07580  Biso   1.000  H
  Zn7      1.0000 0.08241  0.42339  0.11832  Biso   1.000  Zn
  O49      1.0000 0.07305  0.31743  0.03751  Biso   1.000  O
  O50      1.0000 0.05825  0.33933  0.94047  Biso   1.000  O
  O51      1.0000 0.09746  0.58451  0.16211  Biso   1.000  O
  O52      1.0000 0.10072  0.77503  0.14604  Biso   1.000  O
  O53      1.0000 0.18658  0.85904  0.02683  Biso   1.000  O
  O54      1.0000 0.08076  0.92897  0.03086  Biso   1.000  O
  O55      1.0000 0.13139  0.52301  0.86132  Biso   1.000  O
  O56      1.0000 0.02137  0.55936  0.86207  Biso   1.000  O
  N25      1.0000 0.08479  0.53964  0.05138  Biso   1.000  N
  N26      1.0000 0.09457  0.69478  0.96181  Biso   1.000  N
  N27      1.0000 0.08405  0.29502  0.17974  Biso   1.000  N
  N28      1.0000 0.05826  0.85307  0.38645  Biso   1.000  N
  H79      1.0000 0.05420  0.79430  0.41220  Biso   1.000  H
  C133     1.0000 0.06981  0.37504  0.99081  Biso   1.000  C
  C134     1.0000 0.07957  0.50362  0.99644  Biso   1.000  C
  C135     1.0000 0.08325  0.58299  0.95060  Biso   1.000  C
  C136     1.0000 0.07778  0.55026  0.88612  Biso   1.000  C
  C137     1.0000 0.09803  0.67446  0.12982  Biso   1.000  C
  C138     1.0000 0.09425  0.64933  0.06419  Biso   1.000  C
  C139     1.0000 0.10044  0.72771  0.01816  Biso   1.000  C
  C140     1.0000 0.12252  0.85111  0.02689  Biso   1.000  C
  C141     1.0000 0.08766  0.31673  0.23726  Biso   1.000  C
  H80      1.0000 0.08950  0.39270  0.24970  Biso   1.000  H
  C142     1.0000 0.08871  0.23081  0.27878  Biso   1.000  C
  H81      1.0000 0.09170  0.24930  0.31840  Biso   1.000  H
  C143     1.0000 0.08523  0.11679  0.26155  Biso   1.000  C
  C144     1.0000 0.08440  0.09415  0.20147  Biso   1.000  C
  H82      1.0000 0.08430  0.01890  0.18780  Biso   1.000  H
  C145     1.0000 0.08367  0.18503  0.16262  Biso   1.000  C
  H83      1.0000 0.08290  0.16910  0.12270  Biso   1.000  H
  C146     1.0000 0.07850  0.02312  0.30526  Biso   1.000  C
  C147     1.0000 0.07214  0.04886  0.36507  Biso   1.000  C
  H84      1.0000 0.07530  0.12450  0.37790  Biso   1.000  H
  C148     1.0000 0.06126  0.96189  0.40462  Biso   1.000  C
  H85      1.0000 0.05600  0.97890  0.44420  Biso   1.000  H
  C149     1.0000 0.06469  0.82462  0.32992  Biso   1.000  C
  H86      1.0000 0.06230  0.74790  0.31880  Biso   1.000  H
  C150     1.0000 0.07483  0.90820  0.28818  Biso   1.000  C
  H87      1.0000 0.07920  0.88820  0.24890  Biso   1.000  H
  C151     1.0000 0.23818  0.90368  0.15288  Biso   1.000  C
  H88      1.0000 0.23030  0.83600  0.13230  Biso   1.000  H
  C152     1.0000 0.23718  0.90002  0.21366  Biso   1.000  C
  H89      1.0000 0.22800  0.83150  0.23300  Biso   1.000  H
  C153     1.0000 0.24006  0.89931  0.34304  Biso   1.000  C
  H90      1.0000 0.23340  0.82990  0.32370  Biso   1.000  H
  C154     1.0000 0.24011  0.90292  0.40368  Biso   1.000  C
  H91      1.0000 0.23300  0.83500  0.42420  Biso   1.000  H
  Zn8      1.0000 0.41759  0.57661  0.11832  Biso   1.000  Zn
  O57      1.0000 0.42695  0.68257  0.03751  Biso   1.000  O
  O58      1.0000 0.44175  0.66067  0.94047  Biso   1.000  O
  O59      1.0000 0.40254  0.41549  0.16211  Biso   1.000  O
  O60      1.0000 0.39928  0.22497  0.14604  Biso   1.000  O
  O61      1.0000 0.31342  0.14096  0.02683  Biso   1.000  O
  O62      1.0000 0.41924  0.07103  0.03086  Biso   1.000  O
  O63      1.0000 0.36861  0.47699  0.86132  Biso   1.000  O
  O64      1.0000 0.47863  0.44064  0.86207  Biso   1.000  O
  N29      1.0000 0.41521  0.46036  0.05138  Biso   1.000  N
  N30      1.0000 0.40543  0.30522  0.96181  Biso   1.000  N
  N31      1.0000 0.41595  0.70498  0.17974  Biso   1.000  N
  N32      1.0000 0.44174  0.14693  0.38645  Biso   1.000  N
  H92      1.0000 0.44580  0.20570  0.41220  Biso   1.000  H
  C155     1.0000 0.43019  0.62496  0.99081  Biso   1.000  C
  C156     1.0000 0.42043  0.49638  0.99644  Biso   1.000  C
  C157     1.0000 0.41675  0.41701  0.95060  Biso   1.000  C
  C158     1.0000 0.42222  0.44974  0.88612  Biso   1.000  C
  C159     1.0000 0.40197  0.32554  0.12982  Biso   1.000  C
  C160     1.0000 0.40575  0.35067  0.06419  Biso   1.000  C
  C161     1.0000 0.39956  0.27229  0.01816  Biso   1.000  C
  C162     1.0000 0.37748  0.14889  0.02689  Biso   1.000  C
  C163     1.0000 0.41234  0.68327  0.23726  Biso   1.000  C
  H93      1.0000 0.41050  0.60730  0.24970  Biso   1.000  H
  C164     1.0000 0.41129  0.76919  0.27878  Biso   1.000  C
  H94      1.0000 0.40830  0.75070  0.31840  Biso   1.000  H
  C165     1.0000 0.41477  0.88321  0.26155  Biso   1.000  C
  C166     1.0000 0.41560  0.90585  0.20147  Biso   1.000  C
  H95      1.0000 0.41570  0.98110  0.18780  Biso   1.000  H
  C167     1.0000 0.41633  0.81497  0.16262  Biso   1.000  C
  H96      1.0000 0.41710  0.83090  0.12270  Biso   1.000  H
  C168     1.0000 0.42150  0.97688  0.30526  Biso   1.000  C
  C169     1.0000 0.42786  0.95114  0.36507  Biso   1.000  C
  H97      1.0000 0.42470  0.87550  0.37790  Biso   1.000  H
  C170     1.0000 0.43874  0.03811  0.40462  Biso   1.000  C
  H98      1.0000 0.44400  0.02110  0.44420  Biso   1.000  H
  C171     1.0000 0.43531  0.17538  0.32992  Biso   1.000  C
  H99      1.0000 0.43770  0.25210  0.31880  Biso   1.000  H
  C172     1.0000 0.42517  0.09180  0.28818  Biso   1.000  C
  H100     1.0000 0.42080  0.11180  0.24890  Biso   1.000  H
  C173     1.0000 0.26182  0.09632  0.15288  Biso   1.000  C
  H101     1.0000 0.26970  0.16400  0.13230  Biso   1.000  H
  C174     1.0000 0.26282  0.09998  0.21366  Biso   1.000  C
  H102     1.0000 0.27200  0.16850  0.23300  Biso   1.000  H
  C175     1.0000 0.25994  0.10069  0.34304  Biso   1.000  C
  H103     1.0000 0.26660  0.17010  0.32370  Biso   1.000  H
  C176     1.0000 0.25989  0.09708  0.40368  Biso   1.000  C
  H104     1.0000 0.26700  0.16500  0.42420  Biso   1.000  H
  Zn9      1.0000 0.25000  0.00000  0.52911  Biso   1.000  Zn
  N33      1.0000 0.25000  0.00000  0.62225  Biso   1.000  N
  N34      1.0000 0.25000  0.00000  0.93419  Biso   1.000  N
  C177     1.0000 0.25000  0.00000  0.74548  Biso   1.000  C
  C178     1.0000 0.25000  0.00000  0.81083  Biso   1.000  C
  Zn10     1.0000 0.75000  0.00000  0.97089  Biso   1.000  Zn
  N35      1.0000 0.75000  0.00000  0.87775  Biso   1.000  N
  N36      1.0000 0.75000  0.00000  0.56581  Biso   1.000  N
  C179     1.0000 0.75000  0.00000  0.75452  Biso   1.000  C
  C180     1.0000 0.75000  0.00000  0.68917  Biso   1.000  C
  Zn11     1.0000 0.75000  0.00000  0.47089  Biso   1.000  Zn
  N37      1.0000 0.75000  0.00000  0.37775  Biso   1.000  N
  N38      1.0000 0.75000  0.00000  0.06581  Biso   1.000  N
  C181     1.0000 0.75000  0.00000  0.25452  Biso   1.000  C
  C182     1.0000 0.75000  0.00000  0.18917  Biso   1.000  C
  Zn12     1.0000 0.25000  0.00000  0.02911  Biso   1.000  Zn
  N39      1.0000 0.25000  0.00000  0.12225  Biso   1.000  N
  N40      1.0000 0.25000  0.00000  0.43419  Biso   1.000  N
  C183     1.0000 0.25000  0.00000  0.24548  Biso   1.000  C
  C184     1.0000 0.25000  0.00000  0.31083  Biso   1.000  C
