data_BUCROH_charged
_audit_creation_date              2014-07-02
_audit_creation_method            'Materials Studio'
_symmetry_space_group_name_H-M    'P1'
_symmetry_Int_Tables_number       1
_symmetry_cell_setting            triclinic
loop_
_symmetry_equiv_pos_as_xyz
  x,y,z
_cell_length_a                    13.5320
_cell_length_b                    14.6610
_cell_length_c                    16.9310
_cell_angle_alpha                 90.0000
_cell_angle_beta                  90.0000
_cell_angle_gamma                 90.0000
loop_
_atom_site_label
_atom_site_type_symbol
_atom_site_fract_x
_atom_site_fract_y
_atom_site_fract_z
_atom_site_U_iso_or_equiv
_atom_site_adp_type
_atom_site_occupancy
Fe1    Fe    0.77467   0.89314   0.28086   0.01267  Uiso   1.00
Fe2    Fe    0.22533   0.10686   0.28086   0.01267  Uiso   1.00
Fe3    Fe    0.72533   0.39314   0.21914   0.01267  Uiso   1.00
Fe4    Fe    0.27467   0.60686   0.21914   0.01267  Uiso   1.00
Fe5    Fe    0.22533   0.10686   0.71914   0.01267  Uiso   1.00
Fe6    Fe    0.77467   0.89314   0.71914   0.01267  Uiso   1.00
Fe7    Fe    0.27467   0.60686   0.78086   0.01267  Uiso   1.00
Fe8    Fe    0.72533   0.39314   0.78086   0.01267  Uiso   1.00
Ni1    Ni    0.00000   0.00000   0.00000   0.01267  Uiso   1.00
Ni2    Ni    0.50000   0.50000   0.50000   0.01267  Uiso   1.00
Ni3    Ni    0.73853   0.59176   0.50000   0.01267  Uiso   1.00
Ni4    Ni    0.26147   0.40824   0.50000   0.01267  Uiso   1.00
Ni5    Ni    0.76147   0.09176   0.00000   0.01267  Uiso   1.00
Ni6    Ni    0.23853   0.90824   0.00000   0.01267  Uiso   1.00
H1     H     0.87910   0.72900   0.30240   0.01267  Uiso   1.00
H2     H     0.93480   0.81800   0.19550   0.01267  Uiso   1.00
H3     H     0.91000   0.56700   0.46500   0.01267  Uiso   1.00
H4     H     0.65060   0.89250   0.14710   0.01267  Uiso   1.00
H5     H     0.08200   0.85300   0.03700   0.01267  Uiso   1.00
H6     H     0.59470   0.80170   0.25290   0.01267  Uiso   1.00
H7     H     0.73500   0.90080   0.43730   0.01267  Uiso   1.00
H8     H     0.61370   0.98130   0.34680   0.01267  Uiso   1.00
H9     H     0.71210   0.06560   0.24220   0.01267  Uiso   1.00
H10    H     0.89420   0.03720   0.26810   0.01267  Uiso   1.00
H11    H     0.90830   0.93530   0.38860   0.01267  Uiso   1.00
H12    H     0.12090   0.27100   0.30240   0.01267  Uiso   1.00
H13    H     0.06520   0.18200   0.19550   0.01267  Uiso   1.00
H14    H     0.09000   0.43300   0.46500   0.01267  Uiso   1.00
H15    H     0.34940   0.10750   0.14710   0.01267  Uiso   1.00
H16    H     0.91800   0.14700   0.03700   0.01267  Uiso   1.00
H17    H     0.40530   0.19830   0.25290   0.01267  Uiso   1.00
H18    H     0.26500   0.09920   0.43730   0.01267  Uiso   1.00
H19    H     0.38630   0.01870   0.34680   0.01267  Uiso   1.00
H20    H     0.28790   0.93440   0.24220   0.01267  Uiso   1.00
H21    H     0.10580   0.96280   0.26810   0.01267  Uiso   1.00
H22    H     0.09170   0.06470   0.38860   0.01267  Uiso   1.00
H23    H     0.62090   0.22900   0.19760   0.01267  Uiso   1.00
H24    H     0.56520   0.31800   0.30450   0.01267  Uiso   1.00
H25    H     0.59000   0.06700   0.03500   0.01267  Uiso   1.00
H26    H     0.84940   0.39250   0.35290   0.01267  Uiso   1.00
H27    H     0.41800   0.35300   0.46300   0.01267  Uiso   1.00
H28    H     0.90530   0.30170   0.24710   0.01267  Uiso   1.00
H29    H     0.76500   0.40080   0.06270   0.01267  Uiso   1.00
H30    H     0.88630   0.48130   0.15320   0.01267  Uiso   1.00
H31    H     0.78790   0.56560   0.25780   0.01267  Uiso   1.00
H32    H     0.60580   0.53720   0.23190   0.01267  Uiso   1.00
H33    H     0.59170   0.43530   0.11140   0.01267  Uiso   1.00
H34    H     0.37910   0.77100   0.19760   0.01267  Uiso   1.00
H35    H     0.43480   0.68200   0.30450   0.01267  Uiso   1.00
H36    H     0.41000   0.93300   0.03500   0.01267  Uiso   1.00
H37    H     0.15060   0.60750   0.35290   0.01267  Uiso   1.00
H38    H     0.58200   0.64700   0.46300   0.01267  Uiso   1.00
H39    H     0.09470   0.69830   0.24710   0.01267  Uiso   1.00
H40    H     0.23500   0.59920   0.06270   0.01267  Uiso   1.00
H41    H     0.11370   0.51870   0.15320   0.01267  Uiso   1.00
H42    H     0.21210   0.43440   0.25780   0.01267  Uiso   1.00
H43    H     0.39420   0.46280   0.23190   0.01267  Uiso   1.00
H44    H     0.40830   0.56470   0.11140   0.01267  Uiso   1.00
H45    H     0.12090   0.27100   0.69760   0.01267  Uiso   1.00
H46    H     0.06520   0.18200   0.80450   0.01267  Uiso   1.00
H47    H     0.09000   0.43300   0.53500   0.01267  Uiso   1.00
H48    H     0.34940   0.10750   0.85290   0.01267  Uiso   1.00
H49    H     0.91800   0.14700   0.96300   0.01267  Uiso   1.00
H50    H     0.40530   0.19830   0.74710   0.01267  Uiso   1.00
H51    H     0.26500   0.09920   0.56270   0.01267  Uiso   1.00
H52    H     0.38630   0.01870   0.65320   0.01267  Uiso   1.00
H53    H     0.28790   0.93440   0.75780   0.01267  Uiso   1.00
H54    H     0.10580   0.96280   0.73190   0.01267  Uiso   1.00
H55    H     0.09170   0.06470   0.61140   0.01267  Uiso   1.00
H56    H     0.87910   0.72900   0.69760   0.01267  Uiso   1.00
H57    H     0.93480   0.81800   0.80450   0.01267  Uiso   1.00
H58    H     0.91000   0.56700   0.53500   0.01267  Uiso   1.00
H59    H     0.65060   0.89250   0.85290   0.01267  Uiso   1.00
H60    H     0.08200   0.85300   0.96300   0.01267  Uiso   1.00
H61    H     0.59470   0.80170   0.74710   0.01267  Uiso   1.00
H62    H     0.73500   0.90080   0.56270   0.01267  Uiso   1.00
H63    H     0.61370   0.98130   0.65320   0.01267  Uiso   1.00
H64    H     0.71210   0.06560   0.75780   0.01267  Uiso   1.00
H65    H     0.89420   0.03720   0.73190   0.01267  Uiso   1.00
H66    H     0.90830   0.93530   0.61140   0.01267  Uiso   1.00
H67    H     0.37910   0.77100   0.80240   0.01267  Uiso   1.00
H68    H     0.43480   0.68200   0.69550   0.01267  Uiso   1.00
H69    H     0.41000   0.93300   0.96500   0.01267  Uiso   1.00
H70    H     0.15060   0.60750   0.64710   0.01267  Uiso   1.00
H71    H     0.58200   0.64700   0.53700   0.01267  Uiso   1.00
H72    H     0.09470   0.69830   0.75290   0.01267  Uiso   1.00
H73    H     0.23500   0.59920   0.93730   0.01267  Uiso   1.00
H74    H     0.11370   0.51870   0.84680   0.01267  Uiso   1.00
H75    H     0.21210   0.43440   0.74220   0.01267  Uiso   1.00
H76    H     0.39420   0.46280   0.76810   0.01267  Uiso   1.00
H77    H     0.40830   0.56470   0.88860   0.01267  Uiso   1.00
H78    H     0.62090   0.22900   0.80240   0.01267  Uiso   1.00
H79    H     0.56520   0.31800   0.69550   0.01267  Uiso   1.00
H80    H     0.59000   0.06700   0.96500   0.01267  Uiso   1.00
H81    H     0.84940   0.39250   0.64710   0.01267  Uiso   1.00
H82    H     0.41800   0.35300   0.53700   0.01267  Uiso   1.00
H83    H     0.90530   0.30170   0.75290   0.01267  Uiso   1.00
H84    H     0.76500   0.40080   0.93730   0.01267  Uiso   1.00
H85    H     0.88630   0.48130   0.84680   0.01267  Uiso   1.00
H86    H     0.78790   0.56560   0.74220   0.01267  Uiso   1.00
H87    H     0.60580   0.53720   0.76810   0.01267  Uiso   1.00
H88    H     0.59170   0.43530   0.88860   0.01267  Uiso   1.00
C1     C     0.73190   0.75810   0.28944   0.01267  Uiso   1.00
C2     C     0.83300   0.76250   0.27153   0.01267  Uiso   1.00
C3     C     0.86640   0.81620   0.20809   0.01267  Uiso   1.00
C4     C     0.79830   0.86740   0.16330   0.01267  Uiso   1.00
C5     C     0.69680   0.86050   0.17900   0.01267  Uiso   1.00
C6     C     0.66340   0.80610   0.24210   0.01267  Uiso   1.00
C7     C     0.69460   0.70970   0.36290   0.01267  Uiso   1.00
C8     C     0.83270   0.93890   0.10420   0.01267  Uiso   1.00
C9     C     0.75160   0.93750   0.39300   0.01267  Uiso   1.00
C10    C     0.68370   0.98250   0.34230   0.01267  Uiso   1.00
C11    C     0.73880   0.02970   0.28370   0.01267  Uiso   1.00
C12    C     0.84070   0.01380   0.29820   0.01267  Uiso   1.00
C13    C     0.84860   0.95680   0.36570   0.01267  Uiso   1.00
C14    C     0.26810   0.24190   0.28944   0.01267  Uiso   1.00
C15    C     0.16700   0.23750   0.27153   0.01267  Uiso   1.00
C16    C     0.13360   0.18380   0.20809   0.01267  Uiso   1.00
C17    C     0.20170   0.13260   0.16330   0.01267  Uiso   1.00
C18    C     0.30320   0.13950   0.17900   0.01267  Uiso   1.00
C19    C     0.33660   0.19390   0.24210   0.01267  Uiso   1.00
C20    C     0.30540   0.29030   0.36290   0.01267  Uiso   1.00
C21    C     0.16730   0.06110   0.10420   0.01267  Uiso   1.00
C22    C     0.24840   0.06250   0.39300   0.01267  Uiso   1.00
C23    C     0.31630   0.01750   0.34230   0.01267  Uiso   1.00
C24    C     0.26120   0.97030   0.28370   0.01267  Uiso   1.00
C25    C     0.15930   0.98620   0.29820   0.01267  Uiso   1.00
C26    C     0.15140   0.04320   0.36570   0.01267  Uiso   1.00
C27    C     0.76810   0.25810   0.21056   0.01267  Uiso   1.00
C28    C     0.66700   0.26250   0.22847   0.01267  Uiso   1.00
C29    C     0.63360   0.31620   0.29191   0.01267  Uiso   1.00
C30    C     0.70170   0.36740   0.33670   0.01267  Uiso   1.00
C31    C     0.80320   0.36050   0.32100   0.01267  Uiso   1.00
C32    C     0.83660   0.30610   0.25790   0.01267  Uiso   1.00
C33    C     0.80540   0.20970   0.13710   0.01267  Uiso   1.00
C34    C     0.66730   0.43890   0.39580   0.01267  Uiso   1.00
C35    C     0.74840   0.43750   0.10700   0.01267  Uiso   1.00
C36    C     0.81630   0.48250   0.15770   0.01267  Uiso   1.00
C37    C     0.76120   0.52970   0.21630   0.01267  Uiso   1.00
C38    C     0.65930   0.51380   0.20180   0.01267  Uiso   1.00
C39    C     0.65140   0.45680   0.13430   0.01267  Uiso   1.00
C40    C     0.23190   0.74190   0.21056   0.01267  Uiso   1.00
C41    C     0.33300   0.73750   0.22847   0.01267  Uiso   1.00
C42    C     0.36640   0.68380   0.29191   0.01267  Uiso   1.00
C43    C     0.29830   0.63260   0.33670   0.01267  Uiso   1.00
C44    C     0.19680   0.63950   0.32100   0.01267  Uiso   1.00
C45    C     0.16340   0.69390   0.25790   0.01267  Uiso   1.00
C46    C     0.19460   0.79030   0.13710   0.01267  Uiso   1.00
C47    C     0.33270   0.56110   0.39580   0.01267  Uiso   1.00
C48    C     0.25160   0.56250   0.10700   0.01267  Uiso   1.00
C49    C     0.18370   0.51750   0.15770   0.01267  Uiso   1.00
C50    C     0.23880   0.47030   0.21630   0.01267  Uiso   1.00
C51    C     0.34070   0.48620   0.20180   0.01267  Uiso   1.00
C52    C     0.34860   0.54320   0.13430   0.01267  Uiso   1.00
C53    C     0.26810   0.24190   0.71056   0.01267  Uiso   1.00
C54    C     0.16700   0.23750   0.72847   0.01267  Uiso   1.00
C55    C     0.13360   0.18380   0.79191   0.01267  Uiso   1.00
C56    C     0.20170   0.13260   0.83670   0.01267  Uiso   1.00
C57    C     0.30320   0.13950   0.82100   0.01267  Uiso   1.00
C58    C     0.33660   0.19390   0.75790   0.01267  Uiso   1.00
C59    C     0.30540   0.29030   0.63710   0.01267  Uiso   1.00
C60    C     0.16730   0.06110   0.89580   0.01267  Uiso   1.00
C61    C     0.24840   0.06250   0.60700   0.01267  Uiso   1.00
C62    C     0.31630   0.01750   0.65770   0.01267  Uiso   1.00
C63    C     0.26120   0.97030   0.71630   0.01267  Uiso   1.00
C64    C     0.15930   0.98620   0.70180   0.01267  Uiso   1.00
C65    C     0.15140   0.04320   0.63430   0.01267  Uiso   1.00
C66    C     0.73190   0.75810   0.71056   0.01267  Uiso   1.00
C67    C     0.83300   0.76250   0.72847   0.01267  Uiso   1.00
C68    C     0.86640   0.81620   0.79191   0.01267  Uiso   1.00
C69    C     0.79830   0.86740   0.83670   0.01267  Uiso   1.00
C70    C     0.69680   0.86050   0.82100   0.01267  Uiso   1.00
C71    C     0.66340   0.80610   0.75790   0.01267  Uiso   1.00
C72    C     0.69460   0.70970   0.63710   0.01267  Uiso   1.00
C73    C     0.83270   0.93890   0.89580   0.01267  Uiso   1.00
C74    C     0.75160   0.93750   0.60700   0.01267  Uiso   1.00
C75    C     0.68370   0.98250   0.65770   0.01267  Uiso   1.00
C76    C     0.73880   0.02970   0.71630   0.01267  Uiso   1.00
C77    C     0.84070   0.01380   0.70180   0.01267  Uiso   1.00
C78    C     0.84860   0.95680   0.63430   0.01267  Uiso   1.00
C79    C     0.23190   0.74190   0.78944   0.01267  Uiso   1.00
C80    C     0.33300   0.73750   0.77153   0.01267  Uiso   1.00
C81    C     0.36640   0.68380   0.70809   0.01267  Uiso   1.00
C82    C     0.29830   0.63260   0.66330   0.01267  Uiso   1.00
C83    C     0.19680   0.63950   0.67900   0.01267  Uiso   1.00
C84    C     0.16340   0.69390   0.74210   0.01267  Uiso   1.00
C85    C     0.19460   0.79030   0.86290   0.01267  Uiso   1.00
C86    C     0.33270   0.56110   0.60420   0.01267  Uiso   1.00
C87    C     0.25160   0.56250   0.89300   0.01267  Uiso   1.00
C88    C     0.18370   0.51750   0.84230   0.01267  Uiso   1.00
C89    C     0.23880   0.47030   0.78370   0.01267  Uiso   1.00
C90    C     0.34070   0.48620   0.79820   0.01267  Uiso   1.00
C91    C     0.34860   0.54320   0.86570   0.01267  Uiso   1.00
C92    C     0.76810   0.25810   0.78944   0.01267  Uiso   1.00
C93    C     0.66700   0.26250   0.77153   0.01267  Uiso   1.00
C94    C     0.63360   0.31620   0.70809   0.01267  Uiso   1.00
C95    C     0.70170   0.36740   0.66330   0.01267  Uiso   1.00
C96    C     0.80320   0.36050   0.67900   0.01267  Uiso   1.00
C97    C     0.83660   0.30610   0.74210   0.01267  Uiso   1.00
C98    C     0.80540   0.20970   0.86290   0.01267  Uiso   1.00
C99    C     0.66730   0.43890   0.60420   0.01267  Uiso   1.00
C100   C     0.74840   0.43750   0.89300   0.01267  Uiso   1.00
C101   C     0.81630   0.48250   0.84230   0.01267  Uiso   1.00
C102   C     0.76120   0.52970   0.78370   0.01267  Uiso   1.00
C103   C     0.65930   0.51380   0.79820   0.01267  Uiso   1.00
C104   C     0.65140   0.45680   0.86570   0.01267  Uiso   1.00
O1     O     0.60385   0.69930   0.36855   0.01267  Uiso   1.00
O2     O     0.75896   0.68541   0.41162   0.01267  Uiso   1.00
O3     O     0.92089   0.93533   0.08533   0.01267  Uiso   1.00
O4     O     0.76830   0.99373   0.08315   0.01267  Uiso   1.00
O5     O     0.39615   0.30070   0.36855   0.01267  Uiso   1.00
O6     O     0.24104   0.31459   0.41162   0.01267  Uiso   1.00
O7     O     0.07911   0.06467   0.08533   0.01267  Uiso   1.00
O8     O     0.23170   0.00627   0.08315   0.01267  Uiso   1.00
O9     O     0.89615   0.19930   0.13145   0.01267  Uiso   1.00
O10    O     0.74104   0.18541   0.08838   0.01267  Uiso   1.00
O11    O     0.57911   0.43533   0.41467   0.01267  Uiso   1.00
O12    O     0.73170   0.49373   0.41685   0.01267  Uiso   1.00
O13    O     0.10385   0.80070   0.13145   0.01267  Uiso   1.00
O14    O     0.25896   0.81459   0.08838   0.01267  Uiso   1.00
O15    O     0.42089   0.56467   0.41467   0.01267  Uiso   1.00
O16    O     0.26830   0.50627   0.41685   0.01267  Uiso   1.00
O17    O     0.39615   0.30070   0.63145   0.01267  Uiso   1.00
O18    O     0.24104   0.31459   0.58838   0.01267  Uiso   1.00
O19    O     0.07911   0.06467   0.91467   0.01267  Uiso   1.00
O20    O     0.23170   0.00627   0.91685   0.01267  Uiso   1.00
O21    O     0.60385   0.69930   0.63145   0.01267  Uiso   1.00
O22    O     0.75896   0.68541   0.58838   0.01267  Uiso   1.00
O23    O     0.92089   0.93533   0.91467   0.01267  Uiso   1.00
O24    O     0.76830   0.99373   0.91685   0.01267  Uiso   1.00
O25    O     0.10385   0.80070   0.86855   0.01267  Uiso   1.00
O26    O     0.25896   0.81459   0.91162   0.01267  Uiso   1.00
O27    O     0.42089   0.56467   0.58533   0.01267  Uiso   1.00
O28    O     0.26830   0.50627   0.58315   0.01267  Uiso   1.00
O29    O     0.89615   0.19930   0.86855   0.01267  Uiso   1.00
O30    O     0.74104   0.18541   0.91162   0.01267  Uiso   1.00
O31    O     0.57911   0.43533   0.58533   0.01267  Uiso   1.00
O32    O     0.73170   0.49373   0.58315   0.01267  Uiso   1.00
O33    O     0.88990   0.58530   0.50000   0.01267  Uiso   1.00
O34    O     0.11010   0.41470   0.50000   0.01267  Uiso   1.00
O35    O     0.61010   0.08530   0.00000   0.01267  Uiso   1.00
O36    O     0.38990   0.91470   0.00000   0.01267  Uiso   1.00
O37    O     0.08770   0.88708   0.00000   0.01267  Uiso   1.00
O38    O     0.91230   0.11292   0.00000   0.01267  Uiso   1.00
O39    O     0.41230   0.38708   0.50000   0.01267  Uiso   1.00
O40    O     0.58770   0.61292   0.50000   0.01267  Uiso   1.00
N1     N     0.50000   0.00000   0.81360   0.01267  Uiso   1.00
O41    O     0.47330   0.93070   0.77730   0.01267  Uiso   1.00
O42    O     0.52670   0.06930   0.77730   0.01267  Uiso   1.00
O43    O     0.50000   0.00000   0.88760   0.01267  Uiso   1.00
N2     N     0.00000   0.50000   0.68640   0.01267  Uiso   1.00
O44    O     0.02670   0.43070   0.72270   0.01267  Uiso   1.00
O45    O     0.97330   0.56930   0.72270   0.01267  Uiso   1.00
O46    O     0.00000   0.50000   0.61240   0.01267  Uiso   1.00
N3     N     0.50000   0.00000   0.18640   0.01267  Uiso   1.00
O47    O     0.52670   0.06930   0.22270   0.01267  Uiso   1.00
O48    O     0.47330   0.93070   0.22270   0.01267  Uiso   1.00
O49    O     0.50000   0.00000   0.11240   0.01267  Uiso   1.00
N4     N     0.00000   0.50000   0.31360   0.01267  Uiso   1.00
O50    O     0.97330   0.56930   0.27730   0.01267  Uiso   1.00
O51    O     0.02670   0.43070   0.27730   0.01267  Uiso   1.00
O52    O     0.00000   0.50000   0.38760   0.01267  Uiso   1.00
