data_BUCSIC_charged
_audit_creation_date              2014-07-02
_audit_creation_method            'Materials Studio'
_symmetry_space_group_name_H-M    'P1'
_symmetry_Int_Tables_number       1
_symmetry_cell_setting            triclinic
loop_
_symmetry_equiv_pos_as_xyz
  x,y,z
_cell_length_a                    13.5960
_cell_length_b                    14.6760
_cell_length_c                    17.1600
_cell_angle_alpha                 90.0000
_cell_angle_beta                  90.0000
_cell_angle_gamma                 90.0000
loop_
_atom_site_label
_atom_site_type_symbol
_atom_site_fract_x
_atom_site_fract_y
_atom_site_fract_z
_atom_site_U_iso_or_equiv
_atom_site_adp_type
_atom_site_occupancy
Fe1    Fe    0.22412   0.60746   0.72028   0.01267  Uiso   1.00
Fe2    Fe    0.77588   0.39254   0.72028   0.01267  Uiso   1.00
Fe3    Fe    0.27588   0.10746   0.77972   0.01267  Uiso   1.00
Fe4    Fe    0.72412   0.89254   0.77972   0.01267  Uiso   1.00
Fe5    Fe    0.77588   0.39254   0.27972   0.01267  Uiso   1.00
Fe6    Fe    0.22412   0.60746   0.27972   0.01267  Uiso   1.00
Fe7    Fe    0.72412   0.89254   0.22028   0.01267  Uiso   1.00
Fe8    Fe    0.27588   0.10746   0.22028   0.01267  Uiso   1.00
Co1    Co    0.50000   0.00000   0.50000   0.01267  Uiso   1.00
Co2    Co    0.00000   0.50000   0.00000   0.01267  Uiso   1.00
Co3    Co    0.25914   0.90864   0.50000   0.01267  Uiso   1.00
Co4    Co    0.74086   0.09136   0.50000   0.01267  Uiso   1.00
Co5    Co    0.24086   0.40864   0.00000   0.01267  Uiso   1.00
Co6    Co    0.75914   0.59136   0.00000   0.01267  Uiso   1.00
H1     H     0.42880   0.84680   0.45350   0.01267  Uiso   1.00
H2     H     0.12180   0.77090   0.69890   0.01267  Uiso   1.00
H3     H     0.06510   0.68150   0.80390   0.01267  Uiso   1.00
H4     H     0.34700   0.60940   0.85160   0.01267  Uiso   1.00
H5     H     0.40230   0.69660   0.74660   0.01267  Uiso   1.00
H6     H     0.25510   0.59750   0.56500   0.01267  Uiso   1.00
H7     H     0.38100   0.52080   0.65210   0.01267  Uiso   1.00
H8     H     0.28910   0.43470   0.75760   0.01267  Uiso   1.00
H9     H     0.10630   0.45820   0.73570   0.01267  Uiso   1.00
H10    H     0.08530   0.55880   0.61660   0.01267  Uiso   1.00
H11    H     0.08970   0.94900   0.53420   0.01267  Uiso   1.00
H12    H     0.57120   0.15320   0.45350   0.01267  Uiso   1.00
H13    H     0.87820   0.22910   0.69890   0.01267  Uiso   1.00
H14    H     0.93490   0.31850   0.80390   0.01267  Uiso   1.00
H15    H     0.65300   0.39060   0.85160   0.01267  Uiso   1.00
H16    H     0.59770   0.30340   0.74660   0.01267  Uiso   1.00
H17    H     0.74490   0.40250   0.56500   0.01267  Uiso   1.00
H18    H     0.61900   0.47920   0.65210   0.01267  Uiso   1.00
H19    H     0.71090   0.56530   0.75760   0.01267  Uiso   1.00
H20    H     0.89370   0.54180   0.73570   0.01267  Uiso   1.00
H21    H     0.91470   0.44120   0.61660   0.01267  Uiso   1.00
H22    H     0.91030   0.05100   0.53420   0.01267  Uiso   1.00
H23    H     0.07120   0.34680   0.04650   0.01267  Uiso   1.00
H24    H     0.37820   0.27090   0.80110   0.01267  Uiso   1.00
H25    H     0.43490   0.18150   0.69610   0.01267  Uiso   1.00
H26    H     0.15300   0.10940   0.64840   0.01267  Uiso   1.00
H27    H     0.09770   0.19660   0.75340   0.01267  Uiso   1.00
H28    H     0.24490   0.09750   0.93500   0.01267  Uiso   1.00
H29    H     0.11900   0.02080   0.84790   0.01267  Uiso   1.00
H30    H     0.21090   0.93470   0.74240   0.01267  Uiso   1.00
H31    H     0.39370   0.95820   0.76430   0.01267  Uiso   1.00
H32    H     0.41470   0.05880   0.88340   0.01267  Uiso   1.00
H33    H     0.41030   0.44900   0.96580   0.01267  Uiso   1.00
H34    H     0.92880   0.65320   0.04650   0.01267  Uiso   1.00
H35    H     0.62180   0.72910   0.80110   0.01267  Uiso   1.00
H36    H     0.56510   0.81850   0.69610   0.01267  Uiso   1.00
H37    H     0.84700   0.89060   0.64840   0.01267  Uiso   1.00
H38    H     0.90230   0.80340   0.75340   0.01267  Uiso   1.00
H39    H     0.75510   0.90250   0.93500   0.01267  Uiso   1.00
H40    H     0.88100   0.97920   0.84790   0.01267  Uiso   1.00
H41    H     0.78910   0.06530   0.74240   0.01267  Uiso   1.00
H42    H     0.60630   0.04180   0.76430   0.01267  Uiso   1.00
H43    H     0.58530   0.94120   0.88340   0.01267  Uiso   1.00
H44    H     0.58970   0.55100   0.96580   0.01267  Uiso   1.00
H45    H     0.57120   0.15320   0.54650   0.01267  Uiso   1.00
H46    H     0.87820   0.22910   0.30110   0.01267  Uiso   1.00
H47    H     0.93490   0.31850   0.19610   0.01267  Uiso   1.00
H48    H     0.65300   0.39060   0.14840   0.01267  Uiso   1.00
H49    H     0.59770   0.30340   0.25340   0.01267  Uiso   1.00
H50    H     0.74490   0.40250   0.43500   0.01267  Uiso   1.00
H51    H     0.61900   0.47920   0.34790   0.01267  Uiso   1.00
H52    H     0.71090   0.56530   0.24240   0.01267  Uiso   1.00
H53    H     0.89370   0.54180   0.26430   0.01267  Uiso   1.00
H54    H     0.91470   0.44120   0.38340   0.01267  Uiso   1.00
H55    H     0.91030   0.05100   0.46580   0.01267  Uiso   1.00
H56    H     0.42880   0.84680   0.54650   0.01267  Uiso   1.00
H57    H     0.12180   0.77090   0.30110   0.01267  Uiso   1.00
H58    H     0.06510   0.68150   0.19610   0.01267  Uiso   1.00
H59    H     0.34700   0.60940   0.14840   0.01267  Uiso   1.00
H60    H     0.40230   0.69660   0.25340   0.01267  Uiso   1.00
H61    H     0.25510   0.59750   0.43500   0.01267  Uiso   1.00
H62    H     0.38100   0.52080   0.34790   0.01267  Uiso   1.00
H63    H     0.28910   0.43470   0.24240   0.01267  Uiso   1.00
H64    H     0.10630   0.45820   0.26430   0.01267  Uiso   1.00
H65    H     0.08530   0.55880   0.38340   0.01267  Uiso   1.00
H66    H     0.08970   0.94900   0.46580   0.01267  Uiso   1.00
H67    H     0.92880   0.65320   0.95350   0.01267  Uiso   1.00
H68    H     0.62180   0.72910   0.19890   0.01267  Uiso   1.00
H69    H     0.56510   0.81850   0.30390   0.01267  Uiso   1.00
H70    H     0.84700   0.89060   0.35160   0.01267  Uiso   1.00
H71    H     0.90230   0.80340   0.24660   0.01267  Uiso   1.00
H72    H     0.75510   0.90250   0.06500   0.01267  Uiso   1.00
H73    H     0.88100   0.97920   0.15210   0.01267  Uiso   1.00
H74    H     0.78910   0.06530   0.25760   0.01267  Uiso   1.00
H75    H     0.60630   0.04180   0.23570   0.01267  Uiso   1.00
H76    H     0.58530   0.94120   0.11660   0.01267  Uiso   1.00
H77    H     0.58970   0.55100   0.03420   0.01267  Uiso   1.00
H78    H     0.07120   0.34680   0.95350   0.01267  Uiso   1.00
H79    H     0.37820   0.27090   0.19890   0.01267  Uiso   1.00
H80    H     0.43490   0.18150   0.30390   0.01267  Uiso   1.00
H81    H     0.15300   0.10940   0.35160   0.01267  Uiso   1.00
H82    H     0.09770   0.19660   0.24660   0.01267  Uiso   1.00
H83    H     0.24490   0.09750   0.06500   0.01267  Uiso   1.00
H84    H     0.11900   0.02080   0.15210   0.01267  Uiso   1.00
H85    H     0.21090   0.93470   0.25760   0.01267  Uiso   1.00
H86    H     0.39370   0.95820   0.23570   0.01267  Uiso   1.00
H87    H     0.41470   0.05880   0.11660   0.01267  Uiso   1.00
H88    H     0.41030   0.44900   0.03420   0.01267  Uiso   1.00
C1     C     0.30320   0.78960   0.63790   0.01267  Uiso   1.00
C2     C     0.26660   0.74130   0.71130   0.01267  Uiso   1.00
C3     C     0.16740   0.73710   0.72920   0.01267  Uiso   1.00
C4     C     0.13310   0.68370   0.79150   0.01267  Uiso   1.00
C5     C     0.20310   0.63290   0.83570   0.01267  Uiso   1.00
C6     C     0.30070   0.64050   0.81980   0.01267  Uiso   1.00
C7     C     0.33390   0.69320   0.75770   0.01267  Uiso   1.00
C8     C     0.66680   0.93700   0.60490   0.01267  Uiso   1.00
C9     C     0.24110   0.56070   0.60920   0.01267  Uiso   1.00
C10    C     0.31160   0.51780   0.65800   0.01267  Uiso   1.00
C11    C     0.26010   0.46960   0.71700   0.01267  Uiso   1.00
C12    C     0.15780   0.48280   0.70470   0.01267  Uiso   1.00
C13    C     0.14610   0.53910   0.63810   0.01267  Uiso   1.00
C14    C     0.69680   0.21040   0.63790   0.01267  Uiso   1.00
C15    C     0.73340   0.25870   0.71130   0.01267  Uiso   1.00
C16    C     0.83260   0.26290   0.72920   0.01267  Uiso   1.00
C17    C     0.86690   0.31630   0.79150   0.01267  Uiso   1.00
C18    C     0.79690   0.36710   0.83570   0.01267  Uiso   1.00
C19    C     0.69930   0.35950   0.81980   0.01267  Uiso   1.00
C20    C     0.66610   0.30680   0.75770   0.01267  Uiso   1.00
C21    C     0.33320   0.06300   0.60490   0.01267  Uiso   1.00
C22    C     0.75890   0.43930   0.60920   0.01267  Uiso   1.00
C23    C     0.68840   0.48220   0.65800   0.01267  Uiso   1.00
C24    C     0.73990   0.53040   0.71700   0.01267  Uiso   1.00
C25    C     0.84220   0.51720   0.70470   0.01267  Uiso   1.00
C26    C     0.85390   0.46090   0.63810   0.01267  Uiso   1.00
C27    C     0.19680   0.28960   0.86210   0.01267  Uiso   1.00
C28    C     0.23340   0.24130   0.78870   0.01267  Uiso   1.00
C29    C     0.33260   0.23710   0.77080   0.01267  Uiso   1.00
C30    C     0.36690   0.18370   0.70850   0.01267  Uiso   1.00
C31    C     0.29690   0.13290   0.66430   0.01267  Uiso   1.00
C32    C     0.19930   0.14050   0.68020   0.01267  Uiso   1.00
C33    C     0.16610   0.19320   0.74230   0.01267  Uiso   1.00
C34    C     0.83320   0.43700   0.89510   0.01267  Uiso   1.00
C35    C     0.25890   0.06070   0.89080   0.01267  Uiso   1.00
C36    C     0.18840   0.01780   0.84200   0.01267  Uiso   1.00
C37    C     0.23990   0.96960   0.78300   0.01267  Uiso   1.00
C38    C     0.34220   0.98280   0.79530   0.01267  Uiso   1.00
C39    C     0.35390   0.03910   0.86190   0.01267  Uiso   1.00
C40    C     0.80320   0.71040   0.86210   0.01267  Uiso   1.00
C41    C     0.76660   0.75870   0.78870   0.01267  Uiso   1.00
C42    C     0.66740   0.76290   0.77080   0.01267  Uiso   1.00
C43    C     0.63310   0.81630   0.70850   0.01267  Uiso   1.00
C44    C     0.70310   0.86710   0.66430   0.01267  Uiso   1.00
C45    C     0.80070   0.85950   0.68020   0.01267  Uiso   1.00
C46    C     0.83390   0.80680   0.74230   0.01267  Uiso   1.00
C47    C     0.16680   0.56300   0.89510   0.01267  Uiso   1.00
C48    C     0.74110   0.93930   0.89080   0.01267  Uiso   1.00
C49    C     0.81160   0.98220   0.84200   0.01267  Uiso   1.00
C50    C     0.76010   0.03040   0.78300   0.01267  Uiso   1.00
C51    C     0.65780   0.01720   0.79530   0.01267  Uiso   1.00
C52    C     0.64610   0.96090   0.86190   0.01267  Uiso   1.00
C53    C     0.69680   0.21040   0.36210   0.01267  Uiso   1.00
C54    C     0.73340   0.25870   0.28870   0.01267  Uiso   1.00
C55    C     0.83260   0.26290   0.27080   0.01267  Uiso   1.00
C56    C     0.86690   0.31630   0.20850   0.01267  Uiso   1.00
C57    C     0.79690   0.36710   0.16430   0.01267  Uiso   1.00
C58    C     0.69930   0.35950   0.18020   0.01267  Uiso   1.00
C59    C     0.66610   0.30680   0.24230   0.01267  Uiso   1.00
C60    C     0.33320   0.06300   0.39510   0.01267  Uiso   1.00
C61    C     0.75890   0.43930   0.39080   0.01267  Uiso   1.00
C62    C     0.68840   0.48220   0.34200   0.01267  Uiso   1.00
C63    C     0.73990   0.53040   0.28300   0.01267  Uiso   1.00
C64    C     0.84220   0.51720   0.29530   0.01267  Uiso   1.00
C65    C     0.85390   0.46090   0.36190   0.01267  Uiso   1.00
C66    C     0.30320   0.78960   0.36210   0.01267  Uiso   1.00
C67    C     0.26660   0.74130   0.28870   0.01267  Uiso   1.00
C68    C     0.16740   0.73710   0.27080   0.01267  Uiso   1.00
C69    C     0.13310   0.68370   0.20850   0.01267  Uiso   1.00
C70    C     0.20310   0.63290   0.16430   0.01267  Uiso   1.00
C71    C     0.30070   0.64050   0.18020   0.01267  Uiso   1.00
C72    C     0.33390   0.69320   0.24230   0.01267  Uiso   1.00
C73    C     0.66680   0.93700   0.39510   0.01267  Uiso   1.00
C74    C     0.24110   0.56070   0.39080   0.01267  Uiso   1.00
C75    C     0.31160   0.51780   0.34200   0.01267  Uiso   1.00
C76    C     0.26010   0.46960   0.28300   0.01267  Uiso   1.00
C77    C     0.15780   0.48280   0.29530   0.01267  Uiso   1.00
C78    C     0.14610   0.53910   0.36190   0.01267  Uiso   1.00
C79    C     0.80320   0.71040   0.13790   0.01267  Uiso   1.00
C80    C     0.76660   0.75870   0.21130   0.01267  Uiso   1.00
C81    C     0.66740   0.76290   0.22920   0.01267  Uiso   1.00
C82    C     0.63310   0.81630   0.29150   0.01267  Uiso   1.00
C83    C     0.70310   0.86710   0.33570   0.01267  Uiso   1.00
C84    C     0.80070   0.85950   0.31980   0.01267  Uiso   1.00
C85    C     0.83390   0.80680   0.25770   0.01267  Uiso   1.00
C86    C     0.16680   0.56300   0.10490   0.01267  Uiso   1.00
C87    C     0.74110   0.93930   0.10920   0.01267  Uiso   1.00
C88    C     0.81160   0.98220   0.15800   0.01267  Uiso   1.00
C89    C     0.76010   0.03040   0.21700   0.01267  Uiso   1.00
C90    C     0.65780   0.01720   0.20470   0.01267  Uiso   1.00
C91    C     0.64610   0.96090   0.13810   0.01267  Uiso   1.00
C92    C     0.19680   0.28960   0.13790   0.01267  Uiso   1.00
C93    C     0.23340   0.24130   0.21130   0.01267  Uiso   1.00
C94    C     0.33260   0.23710   0.22920   0.01267  Uiso   1.00
C95    C     0.36690   0.18370   0.29150   0.01267  Uiso   1.00
C96    C     0.29690   0.13290   0.33570   0.01267  Uiso   1.00
C97    C     0.19930   0.14050   0.31980   0.01267  Uiso   1.00
C98    C     0.16610   0.19320   0.25770   0.01267  Uiso   1.00
C99    C     0.83320   0.43700   0.10490   0.01267  Uiso   1.00
C100   C     0.25890   0.06070   0.10920   0.01267  Uiso   1.00
C101   C     0.18840   0.01780   0.15800   0.01267  Uiso   1.00
C102   C     0.23990   0.96960   0.21700   0.01267  Uiso   1.00
C103   C     0.34220   0.98280   0.20470   0.01267  Uiso   1.00
C104   C     0.35390   0.03910   0.13810   0.01267  Uiso   1.00
O1     O     0.23970   0.81450   0.58970   0.01267  Uiso   1.00
O2     O     0.39420   0.79910   0.63220   0.01267  Uiso   1.00
O3     O     0.58030   0.93460   0.58670   0.01267  Uiso   1.00
O4     O     0.26850   0.00740   0.58430   0.01267  Uiso   1.00
O5     O     0.76030   0.18550   0.58970   0.01267  Uiso   1.00
O6     O     0.60580   0.20090   0.63220   0.01267  Uiso   1.00
O7     O     0.41970   0.06540   0.58670   0.01267  Uiso   1.00
O8     O     0.73150   0.99260   0.58430   0.01267  Uiso   1.00
O9     O     0.26030   0.31450   0.91030   0.01267  Uiso   1.00
O10    O     0.10580   0.29910   0.86780   0.01267  Uiso   1.00
O11    O     0.91970   0.43460   0.91330   0.01267  Uiso   1.00
O12    O     0.23150   0.50740   0.91570   0.01267  Uiso   1.00
O13    O     0.73970   0.68550   0.91030   0.01267  Uiso   1.00
O14    O     0.89420   0.70090   0.86780   0.01267  Uiso   1.00
O15    O     0.08030   0.56540   0.91330   0.01267  Uiso   1.00
O16    O     0.76850   0.49260   0.91570   0.01267  Uiso   1.00
O17    O     0.76030   0.18550   0.41030   0.01267  Uiso   1.00
O18    O     0.60580   0.20090   0.36780   0.01267  Uiso   1.00
O19    O     0.41970   0.06540   0.41330   0.01267  Uiso   1.00
O20    O     0.73150   0.99260   0.41570   0.01267  Uiso   1.00
O21    O     0.23970   0.81450   0.41030   0.01267  Uiso   1.00
O22    O     0.39420   0.79910   0.36780   0.01267  Uiso   1.00
O23    O     0.58030   0.93460   0.41330   0.01267  Uiso   1.00
O24    O     0.26850   0.00740   0.41570   0.01267  Uiso   1.00
O25    O     0.73970   0.68550   0.08970   0.01267  Uiso   1.00
O26    O     0.89420   0.70090   0.13220   0.01267  Uiso   1.00
O27    O     0.08030   0.56540   0.08670   0.01267  Uiso   1.00
O28    O     0.76850   0.49260   0.08430   0.01267  Uiso   1.00
O29    O     0.26030   0.31450   0.08970   0.01267  Uiso   1.00
O30    O     0.10580   0.29910   0.13220   0.01267  Uiso   1.00
O31    O     0.91970   0.43460   0.08670   0.01267  Uiso   1.00
O32    O     0.23150   0.50740   0.08430   0.01267  Uiso   1.00
O33    O     0.41230   0.88360   0.50000   0.01267  Uiso   1.00
O34    O     0.10630   0.91590   0.50000   0.01267  Uiso   1.00
O35    O     0.58770   0.11640   0.50000   0.01267  Uiso   1.00
O36    O     0.89370   0.08410   0.50000   0.01267  Uiso   1.00
O37    O     0.08770   0.38360   0.00000   0.01267  Uiso   1.00
O38    O     0.39370   0.41590   0.00000   0.01267  Uiso   1.00
O39    O     0.91230   0.61640   0.00000   0.01267  Uiso   1.00
O40    O     0.60630   0.58410   0.00000   0.01267  Uiso   1.00
N1     N     0.00000   0.00000   0.68490   0.01267  Uiso   1.00
O41    O     0.02800   0.93020   0.72180   0.01267  Uiso   1.00
O42    O     0.97200   0.06980   0.72180   0.01267  Uiso   1.00
O43    O     0.00000   0.00000   0.61340   0.01267  Uiso   1.00
N2     N     0.50000   0.50000   0.81510   0.01267  Uiso   1.00
O44    O     0.47200   0.43020   0.77820   0.01267  Uiso   1.00
O45    O     0.52800   0.56980   0.77820   0.01267  Uiso   1.00
O46    O     0.50000   0.50000   0.88660   0.01267  Uiso   1.00
N3     N     0.00000   0.00000   0.31510   0.01267  Uiso   1.00
O47    O     0.97200   0.06980   0.27820   0.01267  Uiso   1.00
O48    O     0.02800   0.93020   0.27820   0.01267  Uiso   1.00
O49    O     0.00000   0.00000   0.38660   0.01267  Uiso   1.00
N4     N     0.50000   0.50000   0.18490   0.01267  Uiso   1.00
O50    O     0.52800   0.56980   0.22180   0.01267  Uiso   1.00
O51    O     0.47200   0.43020   0.22180   0.01267  Uiso   1.00
O52    O     0.50000   0.50000   0.11340   0.01267  Uiso   1.00
