data_image0
_cell_length_a       13.4422
_cell_length_b       15.265
_cell_length_c       15.858
_cell_angle_alpha    90
_cell_angle_beta     94.543
_cell_angle_gamma    90

_symmetry_space_group_name_H-M    "P 1"
_symmetry_int_tables_number       1

loop_
  _symmetry_equiv_pos_as_xyz
  'x, y, z'

loop_
  _atom_site_label
  _atom_site_occupancy
  _atom_site_fract_x
  _atom_site_fract_y
  _atom_site_fract_z
  _atom_site_thermal_displace_type
  _atom_site_B_iso_or_equiv
  _atom_site_type_symbol
  Ni1      1.0000 0.73796  0.40944  0.49705  Biso   1.000  Ni
  Fe1      1.0000 0.78518  0.15315  0.25792  Biso   1.000  Fe
  Fe2      1.0000 0.75615  0.18834  0.77581  Biso   1.000  Fe
  O1       1.0000 0.60150  0.33760  0.32820  Biso   1.000  O
  O2       1.0000 0.75920  0.35780  0.37830  Biso   1.000  O
  O3       1.0000 0.91710  0.08430  0.06340  Biso   1.000  O
  O4       1.0000 0.76300  0.03170  0.05340  Biso   1.000  O
  O5       1.0000 0.91390  0.89280  0.02240  Biso   1.000  O
  H1       1.0000 0.92960  0.87420  0.08180  Biso   1.000  H
  H2       1.0000 0.93360  0.84440  0.98570  Biso   1.000  H
  O6       1.0000 0.77520  0.96030  0.88470  Biso   1.000  O
  O7       1.0000 0.92240  0.02690  0.88910  Biso   1.000  O
  O8       1.0000 0.59870  0.25850  0.57950  Biso   1.000  O
  O9       1.0000 0.75440  0.28800  0.55030  Biso   1.000  O
  C1       1.0000 0.69550  0.33000  0.32680  Biso   1.000  C
  C2       1.0000 0.72920  0.27690  0.25180  Biso   1.000  C
  C3       1.0000 0.82940  0.27620  0.23100  Biso   1.000  C
  H3       1.0000 0.87640  0.31450  0.25970  Biso   1.000  H
  C4       1.0000 0.85990  0.22130  0.17040  Biso   1.000  C
  H4       1.0000 0.92640  0.22500  0.15430  Biso   1.000  H
  C5       1.0000 0.79260  0.15780  0.13030  Biso   1.000  C
  C6       1.0000 0.69200  0.16110  0.14930  Biso   1.000  C
  H5       1.0000 0.64520  0.12200  0.12150  Biso   1.000  H
  C7       1.0000 0.65910  0.22190  0.20900  Biso   1.000  C
  H6       1.0000 0.59070  0.22510  0.21960  Biso   1.000  H
  C8       1.0000 0.82560  0.08480  0.07630  Biso   1.000  C
  C9       1.0000 0.81100  0.13540  0.38690  Biso   1.000  C
  H7       1.0000 0.80650  0.17910  0.42910  Biso   1.000  H
  C10      1.0000 0.89440  0.10860  0.34400  Biso   1.000  C
  H8       1.0000 0.96000  0.13200  0.35090  Biso   1.000  H
  C11      1.0000 0.86000  0.03920  0.28830  Biso   1.000  C
  H9       1.0000 0.90170  0.00630  0.25440  Biso   1.000  H
  C12      1.0000 0.75890  0.02610  0.29020  Biso   1.000  C
  H10      1.0000 0.71790  0.98740  0.25570  Biso   1.000  H
  C13      1.0000 0.73170  0.07700  0.34820  Biso   1.000  C
  H11      1.0000 0.66550  0.07740  0.36520  Biso   1.000  H
  C14      1.0000 0.83970  0.01190  0.85790  Biso   1.000  C
  C15      1.0000 0.80350  0.06160  0.77830  Biso   1.000  C
  C16      1.0000 0.70340  0.06620  0.75250  Biso   1.000  C
  H12      1.0000 0.65750  0.03130  0.78040  Biso   1.000  H
  C17      1.0000 0.66850  0.11990  0.68750  Biso   1.000  C
  H13      1.0000 0.59940  0.11820  0.66930  Biso   1.000  H
  C18      1.0000 0.72960  0.17630  0.64740  Biso   1.000  C
  C19      1.0000 0.83090  0.17030  0.67310  Biso   1.000  C
  H14      1.0000 0.87700  0.20590  0.64620  Biso   1.000  H
  C20      1.0000 0.86620  0.11350  0.73680  Biso   1.000  C
  H15      1.0000 0.93590  0.11070  0.75200  Biso   1.000  H
  C21      1.0000 0.69160  0.24680  0.58750  Biso   1.000  C
  C22      1.0000 0.71150  0.21750  0.89250  Biso   1.000  C
  H16      1.0000 0.68030  0.18000  0.93030  Biso   1.000  H
  C23      1.0000 0.66260  0.26490  0.82410  Biso   1.000  C
  H17      1.0000 0.59300  0.26470  0.80820  Biso   1.000  H
  C24      1.0000 0.73600  0.31270  0.78380  Biso   1.000  C
  H18      1.0000 0.72420  0.35010  0.73620  Biso   1.000  H
  C25      1.0000 0.83040  0.29490  0.82730  Biso   1.000  C
  H19      1.0000 0.89270  0.31820  0.81380  Biso   1.000  H
  C26      1.0000 0.81510  0.23600  0.89440  Biso   1.000  C
  H20      1.0000 0.86550  0.21310  0.93370  Biso   1.000  H
  Ni2      1.0000 0.76204  0.90944  0.00295  Biso   1.000  Ni
  Fe3      1.0000 0.71482  0.65315  0.24208  Biso   1.000  Fe
  Fe4      1.0000 0.74385  0.68834  0.72419  Biso   1.000  Fe
  O10      1.0000 0.89850  0.83760  0.17180  Biso   1.000  O
  O11      1.0000 0.74080  0.85780  0.12170  Biso   1.000  O
  O12      1.0000 0.58290  0.58430  0.43660  Biso   1.000  O
  O13      1.0000 0.73700  0.53170  0.44660  Biso   1.000  O
  O14      1.0000 0.58610  0.39280  0.47760  Biso   1.000  O
  H21      1.0000 0.57040  0.37420  0.41820  Biso   1.000  H
  H22      1.0000 0.56640  0.34440  0.51430  Biso   1.000  H
  O15      1.0000 0.72480  0.46030  0.61530  Biso   1.000  O
  O16      1.0000 0.57760  0.52690  0.61090  Biso   1.000  O
  O17      1.0000 0.90130  0.75850  0.92050  Biso   1.000  O
  O18      1.0000 0.74560  0.78800  0.94970  Biso   1.000  O
  C27      1.0000 0.80450  0.83000  0.17320  Biso   1.000  C
  C28      1.0000 0.77080  0.77690  0.24820  Biso   1.000  C
  C29      1.0000 0.67060  0.77620  0.26900  Biso   1.000  C
  H23      1.0000 0.62360  0.81450  0.24030  Biso   1.000  H
  C30      1.0000 0.64010  0.72130  0.32960  Biso   1.000  C
  H24      1.0000 0.57360  0.72500  0.34570  Biso   1.000  H
  C31      1.0000 0.70740  0.65780  0.36970  Biso   1.000  C
  C32      1.0000 0.80800  0.66110  0.35070  Biso   1.000  C
  H25      1.0000 0.85480  0.62200  0.37850  Biso   1.000  H
  C33      1.0000 0.84090  0.72190  0.29100  Biso   1.000  C
  H26      1.0000 0.90930  0.72510  0.28040  Biso   1.000  H
  C34      1.0000 0.67440  0.58480  0.42370  Biso   1.000  C
  C35      1.0000 0.68900  0.63540  0.11310  Biso   1.000  C
  H27      1.0000 0.69350  0.67910  0.07090  Biso   1.000  H
  C36      1.0000 0.60560  0.60860  0.15600  Biso   1.000  C
  H28      1.0000 0.54000  0.63200  0.14910  Biso   1.000  H
  C37      1.0000 0.64000  0.53920  0.21170  Biso   1.000  C
  H29      1.0000 0.59830  0.50630  0.24560  Biso   1.000  H
  C38      1.0000 0.74110  0.52610  0.20980  Biso   1.000  C
  H30      1.0000 0.78210  0.48740  0.24430  Biso   1.000  H
  C39      1.0000 0.76830  0.57700  0.15180  Biso   1.000  C
  H31      1.0000 0.83450  0.57740  0.13480  Biso   1.000  H
  C40      1.0000 0.66030  0.51190  0.64210  Biso   1.000  C
  C41      1.0000 0.69650  0.56160  0.72170  Biso   1.000  C
  C42      1.0000 0.79660  0.56620  0.74750  Biso   1.000  C
  H32      1.0000 0.84250  0.53130  0.71960  Biso   1.000  H
  C43      1.0000 0.83150  0.61990  0.81250  Biso   1.000  C
  H33      1.0000 0.90060  0.61820  0.83070  Biso   1.000  H
  C44      1.0000 0.77040  0.67630  0.85260  Biso   1.000  C
  C45      1.0000 0.66910  0.67030  0.82690  Biso   1.000  C
  H34      1.0000 0.62300  0.70590  0.85380  Biso   1.000  H
  C46      1.0000 0.63380  0.61350  0.76320  Biso   1.000  C
  H35      1.0000 0.56410  0.61070  0.74800  Biso   1.000  H
  C47      1.0000 0.80840  0.74680  0.91250  Biso   1.000  C
  C48      1.0000 0.78850  0.71750  0.60750  Biso   1.000  C
  H36      1.0000 0.81970  0.68000  0.56970  Biso   1.000  H
  C49      1.0000 0.83740  0.76490  0.67590  Biso   1.000  C
  H37      1.0000 0.90700  0.76470  0.69180  Biso   1.000  H
  C50      1.0000 0.76400  0.81270  0.71620  Biso   1.000  C
  H38      1.0000 0.77580  0.85010  0.76380  Biso   1.000  H
  C51      1.0000 0.66960  0.79490  0.67270  Biso   1.000  C
  H39      1.0000 0.60730  0.81820  0.68620  Biso   1.000  H
  C52      1.0000 0.68490  0.73600  0.60560  Biso   1.000  C
  H40      1.0000 0.63450  0.71310  0.56630  Biso   1.000  H
  Ni3      1.0000 0.26204  0.59056  0.50295  Biso   1.000  Ni
  Fe5      1.0000 0.21482  0.84685  0.74208  Biso   1.000  Fe
  Fe6      1.0000 0.24385  0.81166  0.22419  Biso   1.000  Fe
  O19      1.0000 0.39850  0.66240  0.67180  Biso   1.000  O
  O20      1.0000 0.24080  0.64220  0.62170  Biso   1.000  O
  O21      1.0000 0.08290  0.91570  0.93660  Biso   1.000  O
  O22      1.0000 0.23700  0.96830  0.94660  Biso   1.000  O
  O23      1.0000 0.08610  0.10720  0.97760  Biso   1.000  O
  H41      1.0000 0.07040  0.12580  0.91820  Biso   1.000  H
  H42      1.0000 0.06640  0.15560  0.01430  Biso   1.000  H
  O24      1.0000 0.22480  0.03970  0.11530  Biso   1.000  O
  O25      1.0000 0.07760  0.97310  0.11090  Biso   1.000  O
  O26      1.0000 0.40130  0.74150  0.42050  Biso   1.000  O
  O27      1.0000 0.24560  0.71200  0.44970  Biso   1.000  O
  C53      1.0000 0.30450  0.67000  0.67320  Biso   1.000  C
  C54      1.0000 0.27080  0.72310  0.74820  Biso   1.000  C
  C55      1.0000 0.17060  0.72380  0.76900  Biso   1.000  C
  H43      1.0000 0.12360  0.68550  0.74030  Biso   1.000  H
  C56      1.0000 0.14010  0.77870  0.82960  Biso   1.000  C
  H44      1.0000 0.07360  0.77500  0.84570  Biso   1.000  H
  C57      1.0000 0.20740  0.84220  0.86970  Biso   1.000  C
  C58      1.0000 0.30800  0.83890  0.85070  Biso   1.000  C
  H45      1.0000 0.35480  0.87800  0.87850  Biso   1.000  H
  C59      1.0000 0.34090  0.77810  0.79100  Biso   1.000  C
  H46      1.0000 0.40930  0.77490  0.78040  Biso   1.000  H
  C60      1.0000 0.17440  0.91520  0.92370  Biso   1.000  C
  C61      1.0000 0.18900  0.86460  0.61310  Biso   1.000  C
  H47      1.0000 0.19350  0.82090  0.57090  Biso   1.000  H
  C62      1.0000 0.10560  0.89140  0.65600  Biso   1.000  C
  H48      1.0000 0.04000  0.86800  0.64910  Biso   1.000  H
  C63      1.0000 0.14000  0.96080  0.71170  Biso   1.000  C
  H49      1.0000 0.09830  0.99370  0.74560  Biso   1.000  H
  C64      1.0000 0.24110  0.97390  0.70980  Biso   1.000  C
  H50      1.0000 0.28210  0.01260  0.74430  Biso   1.000  H
  C65      1.0000 0.26830  0.92300  0.65180  Biso   1.000  C
  H51      1.0000 0.33450  0.92260  0.63480  Biso   1.000  H
  C66      1.0000 0.16030  0.98810  0.14210  Biso   1.000  C
  C67      1.0000 0.19650  0.93840  0.22170  Biso   1.000  C
  C68      1.0000 0.29660  0.93380  0.24750  Biso   1.000  C
  H52      1.0000 0.34250  0.96870  0.21960  Biso   1.000  H
  C69      1.0000 0.33150  0.88010  0.31250  Biso   1.000  C
  H53      1.0000 0.40060  0.88180  0.33070  Biso   1.000  H
  C70      1.0000 0.27040  0.82370  0.35260  Biso   1.000  C
  C71      1.0000 0.16910  0.82970  0.32690  Biso   1.000  C
  H54      1.0000 0.12300  0.79410  0.35380  Biso   1.000  H
  C72      1.0000 0.13380  0.88650  0.26320  Biso   1.000  C
  H55      1.0000 0.06410  0.88930  0.24800  Biso   1.000  H
  C73      1.0000 0.30840  0.75320  0.41250  Biso   1.000  C
  C74      1.0000 0.28850  0.78250  0.10750  Biso   1.000  C
  H56      1.0000 0.31970  0.82000  0.06970  Biso   1.000  H
  C75      1.0000 0.33740  0.73510  0.17590  Biso   1.000  C
  H57      1.0000 0.40700  0.73530  0.19180  Biso   1.000  H
  C76      1.0000 0.26400  0.68730  0.21620  Biso   1.000  C
  H58      1.0000 0.27580  0.64990  0.26380  Biso   1.000  H
  C77      1.0000 0.16960  0.70510  0.17270  Biso   1.000  C
  H59      1.0000 0.10730  0.68180  0.18620  Biso   1.000  H
  C78      1.0000 0.18490  0.76400  0.10560  Biso   1.000  C
  H60      1.0000 0.13450  0.78690  0.06630  Biso   1.000  H
  Ni4      1.0000 0.23796  0.09056  0.99705  Biso   1.000  Ni
  Fe7      1.0000 0.28518  0.34685  0.75792  Biso   1.000  Fe
  Fe8      1.0000 0.25615  0.31166  0.27581  Biso   1.000  Fe
  O28      1.0000 0.10150  0.16240  0.82820  Biso   1.000  O
  O29      1.0000 0.25920  0.14220  0.87830  Biso   1.000  O
  O30      1.0000 0.41710  0.41570  0.56340  Biso   1.000  O
  O31      1.0000 0.26300  0.46830  0.55340  Biso   1.000  O
  O32      1.0000 0.41390  0.60720  0.52240  Biso   1.000  O
  H61      1.0000 0.42960  0.62580  0.58180  Biso   1.000  H
  H62      1.0000 0.43360  0.65560  0.48570  Biso   1.000  H
  O33      1.0000 0.27520  0.53970  0.38470  Biso   1.000  O
  O34      1.0000 0.42240  0.47310  0.38910  Biso   1.000  O
  O35      1.0000 0.09870  0.24150  0.07950  Biso   1.000  O
  O36      1.0000 0.25440  0.21200  0.05030  Biso   1.000  O
  C79      1.0000 0.19550  0.17000  0.82680  Biso   1.000  C
  C80      1.0000 0.22920  0.22310  0.75180  Biso   1.000  C
  C81      1.0000 0.32940  0.22380  0.73100  Biso   1.000  C
  H63      1.0000 0.37640  0.18550  0.75970  Biso   1.000  H
  C82      1.0000 0.35990  0.27870  0.67040  Biso   1.000  C
  H64      1.0000 0.42640  0.27500  0.65430  Biso   1.000  H
  C83      1.0000 0.29260  0.34220  0.63030  Biso   1.000  C
  C84      1.0000 0.19200  0.33890  0.64930  Biso   1.000  C
  H65      1.0000 0.14520  0.37800  0.62150  Biso   1.000  H
  C85      1.0000 0.15910  0.27810  0.70900  Biso   1.000  C
  H66      1.0000 0.09070  0.27490  0.71960  Biso   1.000  H
  C86      1.0000 0.32560  0.41520  0.57630  Biso   1.000  C
  C87      1.0000 0.31100  0.36460  0.88690  Biso   1.000  C
  H67      1.0000 0.30650  0.32090  0.92910  Biso   1.000  H
  C88      1.0000 0.39440  0.39140  0.84400  Biso   1.000  C
  H68      1.0000 0.46000  0.36800  0.85090  Biso   1.000  H
  C89      1.0000 0.36000  0.46080  0.78830  Biso   1.000  C
  H69      1.0000 0.40170  0.49370  0.75440  Biso   1.000  H
  C90      1.0000 0.25890  0.47390  0.79020  Biso   1.000  C
  H70      1.0000 0.21790  0.51260  0.75570  Biso   1.000  H
  C91      1.0000 0.23170  0.42300  0.84820  Biso   1.000  C
  H71      1.0000 0.16550  0.42260  0.86520  Biso   1.000  H
  C92      1.0000 0.33970  0.48810  0.35790  Biso   1.000  C
  C93      1.0000 0.30350  0.43840  0.27830  Biso   1.000  C
  C94      1.0000 0.20340  0.43380  0.25250  Biso   1.000  C
  H72      1.0000 0.15750  0.46870  0.28040  Biso   1.000  H
  C95      1.0000 0.16850  0.38010  0.18750  Biso   1.000  C
  H73      1.0000 0.09940  0.38180  0.16930  Biso   1.000  H
  C96      1.0000 0.22960  0.32370  0.14740  Biso   1.000  C
  C97      1.0000 0.33090  0.32970  0.17310  Biso   1.000  C
  H74      1.0000 0.37700  0.29410  0.14620  Biso   1.000  H
  C98      1.0000 0.36620  0.38650  0.23680  Biso   1.000  C
  H75      1.0000 0.43590  0.38930  0.25200  Biso   1.000  H
  C99      1.0000 0.19160  0.25320  0.08750  Biso   1.000  C
  C100     1.0000 0.21150  0.28250  0.39250  Biso   1.000  C
  H76      1.0000 0.18030  0.32000  0.43030  Biso   1.000  H
  C101     1.0000 0.16260  0.23510  0.32410  Biso   1.000  C
  H77      1.0000 0.09300  0.23530  0.30820  Biso   1.000  H
  C102     1.0000 0.23600  0.18730  0.28380  Biso   1.000  C
  H78      1.0000 0.22420  0.14990  0.23620  Biso   1.000  H
  C103     1.0000 0.33040  0.20510  0.32730  Biso   1.000  C
  H79      1.0000 0.39270  0.18180  0.31380  Biso   1.000  H
  C104     1.0000 0.31510  0.26400  0.39440  Biso   1.000  C
  H80      1.0000 0.36550  0.28690  0.43370  Biso   1.000  H
  Ni5      1.0000 0.00000  0.00000  0.00000  Biso   1.000  Ni
  Ni6      1.0000 0.50000  0.50000  0.50000  Biso   1.000  Ni
