data_BUDDIO_clean
_audit_creation_date              2014-07-02
_audit_creation_method            'Materials Studio'
_symmetry_space_group_name_H-M    'P1'
_symmetry_Int_Tables_number       1
_symmetry_cell_setting            triclinic
loop_
_symmetry_equiv_pos_as_xyz
  x,y,z
_cell_length_a                    3.6769
_cell_length_b                    8.2042
_cell_length_c                    26.2920
_cell_angle_alpha                 90.0000
_cell_angle_beta                  92.9240
_cell_angle_gamma                 90.0000
loop_
_atom_site_label
_atom_site_type_symbol
_atom_site_fract_x
_atom_site_fract_y
_atom_site_fract_z
_atom_site_U_iso_or_equiv
_atom_site_adp_type
_atom_site_occupancy
K1     K     0.93767   0.27204   0.77711   0.01267  Uiso   1.00
K2     K     0.06233   0.77204   0.72289   0.01267  Uiso   1.00
K3     K     0.06233   0.72796   0.22289   0.01267  Uiso   1.00
K4     K     0.93767   0.22796   0.27711   0.01267  Uiso   1.00
H1     H     0.50100   0.54600   0.82520   0.01267  Uiso   1.00
H2     H     0.47200   0.46100   0.86800   0.01267  Uiso   1.00
H3     H     0.46480   0.66250   0.62080   0.01267  Uiso   1.00
H4     H     0.08620   0.20320   0.61370   0.01267  Uiso   1.00
H5     H     0.88940   0.24900   0.52930   0.01267  Uiso   1.00
H6     H     0.49900   0.04600   0.67480   0.01267  Uiso   1.00
H7     H     0.52800   0.96100   0.63200   0.01267  Uiso   1.00
H8     H     0.53520   0.16250   0.87920   0.01267  Uiso   1.00
H9     H     0.91380   0.70320   0.88630   0.01267  Uiso   1.00
H10    H     0.11060   0.74900   0.97070   0.01267  Uiso   1.00
H11    H     0.49900   0.45400   0.17480   0.01267  Uiso   1.00
H12    H     0.52800   0.53900   0.13200   0.01267  Uiso   1.00
H13    H     0.53520   0.33750   0.37920   0.01267  Uiso   1.00
H14    H     0.91380   0.79680   0.38630   0.01267  Uiso   1.00
H15    H     0.11060   0.75100   0.47070   0.01267  Uiso   1.00
H16    H     0.50100   0.95400   0.32520   0.01267  Uiso   1.00
H17    H     0.47200   0.03900   0.36800   0.01267  Uiso   1.00
H18    H     0.46480   0.83750   0.12080   0.01267  Uiso   1.00
H19    H     0.08620   0.29680   0.11370   0.01267  Uiso   1.00
H20    H     0.88940   0.25100   0.02930   0.01267  Uiso   1.00
C1     C     0.06500   0.48320   0.52690   0.01267  Uiso   1.00
C2     C     0.34730   0.57660   0.60212   0.01267  Uiso   1.00
C3     C     0.30190   0.42960   0.62636   0.01267  Uiso   1.00
C4     C     0.12560   0.30620   0.59838   0.01267  Uiso   1.00
C5     C     0.00840   0.33310   0.54857   0.01267  Uiso   1.00
C6     C     0.44180   0.40400   0.68102   0.01267  Uiso   1.00
C7     C     0.93500   0.98320   0.97310   0.01267  Uiso   1.00
C8     C     0.65270   0.07660   0.89788   0.01267  Uiso   1.00
C9     C     0.69810   0.92960   0.87364   0.01267  Uiso   1.00
C10    C     0.87440   0.80620   0.90162   0.01267  Uiso   1.00
C11    C     0.99160   0.83310   0.95143   0.01267  Uiso   1.00
C12    C     0.55820   0.90400   0.81898   0.01267  Uiso   1.00
C13    C     0.93500   0.51680   0.47310   0.01267  Uiso   1.00
C14    C     0.65270   0.42340   0.39788   0.01267  Uiso   1.00
C15    C     0.69810   0.57040   0.37364   0.01267  Uiso   1.00
C16    C     0.87440   0.69380   0.40162   0.01267  Uiso   1.00
C17    C     0.99160   0.66690   0.45143   0.01267  Uiso   1.00
C18    C     0.55820   0.59600   0.31898   0.01267  Uiso   1.00
C19    C     0.06500   0.01680   0.02690   0.01267  Uiso   1.00
C20    C     0.34730   0.92340   0.10212   0.01267  Uiso   1.00
C21    C     0.30190   0.07040   0.12636   0.01267  Uiso   1.00
C22    C     0.12560   0.19380   0.09838   0.01267  Uiso   1.00
C23    C     0.00840   0.16690   0.04857   0.01267  Uiso   1.00
C24    C     0.44180   0.09600   0.18102   0.01267  Uiso   1.00
N1     N     0.23410   0.60530   0.55333   0.01267  Uiso   1.00
N2     N     0.76590   0.10530   0.94667   0.01267  Uiso   1.00
N3     N     0.76590   0.39470   0.44667   0.01267  Uiso   1.00
N4     N     0.23410   0.89470   0.05333   0.01267  Uiso   1.00
O1     O     0.40910   0.26320   0.69934   0.01267  Uiso   1.00
O2     O     0.57840   0.52380   0.70422   0.01267  Uiso   1.00
O3     O     0.45070   0.45340   0.83661   0.01267  Uiso   1.00
O4     O     0.59090   0.76320   0.80066   0.01267  Uiso   1.00
O5     O     0.42160   0.02380   0.79578   0.01267  Uiso   1.00
O6     O     0.54930   0.95340   0.66339   0.01267  Uiso   1.00
O7     O     0.59090   0.73680   0.30066   0.01267  Uiso   1.00
O8     O     0.42160   0.47620   0.29578   0.01267  Uiso   1.00
O9     O     0.54930   0.54660   0.16339   0.01267  Uiso   1.00
O10    O     0.40910   0.23680   0.19934   0.01267  Uiso   1.00
O11    O     0.57840   0.97620   0.20422   0.01267  Uiso   1.00
O12    O     0.45070   0.04660   0.33661   0.01267  Uiso   1.00
