data_BUGSAY_clean
_audit_creation_date              2014-07-02
_audit_creation_method            'Materials Studio'
_symmetry_space_group_name_H-M    'P1'
_symmetry_Int_Tables_number       1
_symmetry_cell_setting            triclinic
loop_
_symmetry_equiv_pos_as_xyz
  x,y,z
_cell_length_a                    5.5286
_cell_length_b                    13.3140
_cell_length_c                    20.5990
_cell_angle_alpha                 90.0000
_cell_angle_beta                  95.2440
_cell_angle_gamma                 90.0000
loop_
_atom_site_label
_atom_site_type_symbol
_atom_site_fract_x
_atom_site_fract_y
_atom_site_fract_z
_atom_site_U_iso_or_equiv
_atom_site_adp_type
_atom_site_occupancy
Dy1    Dy    0.87235   0.63267   0.52782   0.01267  Uiso   1.00
Dy2    Dy    0.12765   0.13267   0.97218   0.01267  Uiso   1.00
Dy3    Dy    0.12765   0.36733   0.47218   0.01267  Uiso   1.00
Dy4    Dy    0.87235   0.86733   0.02782   0.01267  Uiso   1.00
P1     P     0.58990   0.52090   0.41395   0.01267  Uiso   1.00
P2     P     0.41010   0.02090   0.08605   0.01267  Uiso   1.00
P3     P     0.41010   0.47910   0.58605   0.01267  Uiso   1.00
P4     P     0.58990   0.97910   0.91395   0.01267  Uiso   1.00
H1     H     0.83490   0.58040   0.33660   0.01267  Uiso   1.00
H2     H     0.74080   0.47270   0.31710   0.01267  Uiso   1.00
H3     H     0.62250   0.72870   0.29830   0.01267  Uiso   1.00
H4     H     0.41440   0.69890   0.34180   0.01267  Uiso   1.00
H5     H     0.12490   0.70110   0.24880   0.01267  Uiso   1.00
H6     H     0.25330   0.80630   0.25490   0.01267  Uiso   1.00
H7     H     0.51530   0.75870   0.17530   0.01267  Uiso   1.00
H8     H     0.45170   0.59970   0.12190   0.01267  Uiso   1.00
H9     H     0.24820   0.57340   0.16770   0.01267  Uiso   1.00
H10    H     0.62550   0.49750   0.20980   0.01267  Uiso   1.00
H11    H     0.74840   0.60410   0.21500   0.01267  Uiso   1.00
H12    H     0.16510   0.08040   0.16340   0.01267  Uiso   1.00
H13    H     0.25920   0.97270   0.18290   0.01267  Uiso   1.00
H14    H     0.37750   0.22870   0.20170   0.01267  Uiso   1.00
H15    H     0.58560   0.19890   0.15820   0.01267  Uiso   1.00
H16    H     0.87510   0.20110   0.25120   0.01267  Uiso   1.00
H17    H     0.74670   0.30630   0.24510   0.01267  Uiso   1.00
H18    H     0.48470   0.25870   0.32470   0.01267  Uiso   1.00
H19    H     0.54830   0.09970   0.37810   0.01267  Uiso   1.00
H20    H     0.75180   0.07340   0.33230   0.01267  Uiso   1.00
H21    H     0.37450   0.99750   0.29020   0.01267  Uiso   1.00
H22    H     0.25160   0.10410   0.28500   0.01267  Uiso   1.00
H23    H     0.16510   0.41960   0.66340   0.01267  Uiso   1.00
H24    H     0.25920   0.52730   0.68290   0.01267  Uiso   1.00
H25    H     0.37750   0.27130   0.70170   0.01267  Uiso   1.00
H26    H     0.58560   0.30110   0.65820   0.01267  Uiso   1.00
H27    H     0.87510   0.29890   0.75120   0.01267  Uiso   1.00
H28    H     0.74670   0.19370   0.74510   0.01267  Uiso   1.00
H29    H     0.48470   0.24130   0.82470   0.01267  Uiso   1.00
H30    H     0.54830   0.40030   0.87810   0.01267  Uiso   1.00
H31    H     0.75180   0.42660   0.83230   0.01267  Uiso   1.00
H32    H     0.37450   0.50250   0.79020   0.01267  Uiso   1.00
H33    H     0.25160   0.39590   0.78500   0.01267  Uiso   1.00
H34    H     0.83490   0.91960   0.83660   0.01267  Uiso   1.00
H35    H     0.74080   0.02730   0.81710   0.01267  Uiso   1.00
H36    H     0.62250   0.77130   0.79830   0.01267  Uiso   1.00
H37    H     0.41440   0.80110   0.84180   0.01267  Uiso   1.00
H38    H     0.12490   0.79890   0.74880   0.01267  Uiso   1.00
H39    H     0.25330   0.69370   0.75490   0.01267  Uiso   1.00
H40    H     0.51530   0.74130   0.67530   0.01267  Uiso   1.00
H41    H     0.45170   0.90030   0.62190   0.01267  Uiso   1.00
H42    H     0.24820   0.92660   0.66770   0.01267  Uiso   1.00
H43    H     0.62550   0.00250   0.70980   0.01267  Uiso   1.00
H44    H     0.74840   0.89590   0.71500   0.01267  Uiso   1.00
C1     C     0.69220   0.53770   0.33280   0.01267  Uiso   1.00
C2     C     0.47100   0.69220   0.29880   0.01267  Uiso   1.00
C3     C     0.27800   0.73560   0.24640   0.01267  Uiso   1.00
C4     C     0.36100   0.72300   0.17790   0.01267  Uiso   1.00
C5     C     0.40000   0.60940   0.16510   0.01267  Uiso   1.00
C6     C     0.59700   0.56820   0.21750   0.01267  Uiso   1.00
C7     C     0.17040   0.76420   0.12510   0.01267  Uiso   1.00
C8     C     0.30780   0.03770   0.16720   0.01267  Uiso   1.00
C9     C     0.52900   0.19220   0.20120   0.01267  Uiso   1.00
C10    C     0.72200   0.23560   0.25360   0.01267  Uiso   1.00
C11    C     0.63900   0.22300   0.32210   0.01267  Uiso   1.00
C12    C     0.60000   0.10940   0.33490   0.01267  Uiso   1.00
C13    C     0.40300   0.06820   0.28250   0.01267  Uiso   1.00
C14    C     0.82960   0.26420   0.37490   0.01267  Uiso   1.00
C15    C     0.30780   0.46230   0.66720   0.01267  Uiso   1.00
C16    C     0.52900   0.30780   0.70120   0.01267  Uiso   1.00
C17    C     0.72200   0.26440   0.75360   0.01267  Uiso   1.00
C18    C     0.63900   0.27700   0.82210   0.01267  Uiso   1.00
C19    C     0.60000   0.39060   0.83490   0.01267  Uiso   1.00
C20    C     0.40300   0.43180   0.78250   0.01267  Uiso   1.00
C21    C     0.82960   0.23580   0.87490   0.01267  Uiso   1.00
C22    C     0.69220   0.96230   0.83280   0.01267  Uiso   1.00
C23    C     0.47100   0.80780   0.79880   0.01267  Uiso   1.00
C24    C     0.27800   0.76440   0.74640   0.01267  Uiso   1.00
C25    C     0.36100   0.77700   0.67790   0.01267  Uiso   1.00
C26    C     0.40000   0.89060   0.66510   0.01267  Uiso   1.00
C27    C     0.59700   0.93180   0.71750   0.01267  Uiso   1.00
C28    C     0.17040   0.73580   0.62510   0.01267  Uiso   1.00
N1     N     0.50950   0.58220   0.28340   0.01267  Uiso   1.00
N2     N     0.49050   0.08220   0.21660   0.01267  Uiso   1.00
N3     N     0.49050   0.41780   0.71660   0.01267  Uiso   1.00
N4     N     0.50950   0.91780   0.78340   0.01267  Uiso   1.00
O1     O     0.54080   0.62300   0.44440   0.01267  Uiso   1.00
O2     O     0.82240   0.48140   0.45430   0.01267  Uiso   1.00
O3     O     0.37600   0.45020   0.40910   0.01267  Uiso   1.00
O4     O     0.00200   0.81920   0.14090   0.01267  Uiso   1.00
O5     O     0.19780   0.74880   0.06740   0.01267  Uiso   1.00
O6     O     0.45920   0.12300   0.05560   0.01267  Uiso   1.00
O7     O     0.17760   0.98140   0.04570   0.01267  Uiso   1.00
O8     O     0.62400   0.95020   0.09090   0.01267  Uiso   1.00
O9     O     0.99800   0.31920   0.35910   0.01267  Uiso   1.00
O10    O     0.80220   0.24880   0.43260   0.01267  Uiso   1.00
O11    O     0.45920   0.37700   0.55560   0.01267  Uiso   1.00
O12    O     0.17760   0.51860   0.54570   0.01267  Uiso   1.00
O13    O     0.62400   0.54980   0.59090   0.01267  Uiso   1.00
O14    O     0.99800   0.18080   0.85910   0.01267  Uiso   1.00
O15    O     0.80220   0.25120   0.93260   0.01267  Uiso   1.00
O16    O     0.54080   0.87700   0.94440   0.01267  Uiso   1.00
O17    O     0.82240   0.01860   0.95430   0.01267  Uiso   1.00
O18    O     0.37600   0.04980   0.90910   0.01267  Uiso   1.00
O19    O     0.00200   0.68080   0.64090   0.01267  Uiso   1.00
O20    O     0.19780   0.75120   0.56740   0.01267  Uiso   1.00
