data_BUGSIG_clean
_audit_creation_date              2014-07-02
_audit_creation_method            'Materials Studio'
_symmetry_space_group_name_H-M    'P1'
_symmetry_Int_Tables_number       1
_symmetry_cell_setting            triclinic
loop_
_symmetry_equiv_pos_as_xyz
  x,y,z
_cell_length_a                    5.5150
_cell_length_b                    13.3930
_cell_length_c                    20.8105
_cell_angle_alpha                 90.0000
_cell_angle_beta                  95.3820
_cell_angle_gamma                 90.0000
loop_
_atom_site_label
_atom_site_type_symbol
_atom_site_fract_x
_atom_site_fract_y
_atom_site_fract_z
_atom_site_U_iso_or_equiv
_atom_site_adp_type
_atom_site_occupancy
Gd1    Gd    0.87244   0.63255   0.52777   0.01267  Uiso   1.00
Gd2    Gd    0.12756   0.13255   0.97223   0.01267  Uiso   1.00
Gd3    Gd    0.12756   0.36745   0.47223   0.01267  Uiso   1.00
Gd4    Gd    0.87244   0.86745   0.02777   0.01267  Uiso   1.00
P1     P     0.59070   0.52121   0.41416   0.01267  Uiso   1.00
P2     P     0.40930   0.02121   0.08584   0.01267  Uiso   1.00
P3     P     0.40930   0.47879   0.58584   0.01267  Uiso   1.00
P4     P     0.59070   0.97879   0.91416   0.01267  Uiso   1.00
H1     H     0.83240   0.58220   0.33670   0.01267  Uiso   1.00
H2     H     0.74350   0.47450   0.31770   0.01267  Uiso   1.00
H3     H     0.62120   0.72770   0.29920   0.01267  Uiso   1.00
H4     H     0.40950   0.69700   0.34090   0.01267  Uiso   1.00
H5     H     0.25550   0.80510   0.25590   0.01267  Uiso   1.00
H6     H     0.12650   0.70080   0.24850   0.01267  Uiso   1.00
H7     H     0.51840   0.76000   0.17500   0.01267  Uiso   1.00
H8     H     0.24730   0.57390   0.16790   0.01267  Uiso   1.00
H9     H     0.45130   0.59850   0.12240   0.01267  Uiso   1.00
H10    H     0.62530   0.49690   0.20950   0.01267  Uiso   1.00
H11    H     0.75000   0.60260   0.21490   0.01267  Uiso   1.00
H12    H     0.16760   0.08220   0.16330   0.01267  Uiso   1.00
H13    H     0.25650   0.97450   0.18230   0.01267  Uiso   1.00
H14    H     0.37880   0.22770   0.20080   0.01267  Uiso   1.00
H15    H     0.59050   0.19700   0.15910   0.01267  Uiso   1.00
H16    H     0.74450   0.30510   0.24410   0.01267  Uiso   1.00
H17    H     0.87350   0.20080   0.25150   0.01267  Uiso   1.00
H18    H     0.48160   0.26000   0.32500   0.01267  Uiso   1.00
H19    H     0.75270   0.07390   0.33210   0.01267  Uiso   1.00
H20    H     0.54870   0.09850   0.37760   0.01267  Uiso   1.00
H21    H     0.37470   0.99690   0.29050   0.01267  Uiso   1.00
H22    H     0.25000   0.10260   0.28510   0.01267  Uiso   1.00
H23    H     0.16760   0.41780   0.66330   0.01267  Uiso   1.00
H24    H     0.25650   0.52550   0.68230   0.01267  Uiso   1.00
H25    H     0.37880   0.27230   0.70080   0.01267  Uiso   1.00
H26    H     0.59050   0.30300   0.65910   0.01267  Uiso   1.00
H27    H     0.74450   0.19490   0.74410   0.01267  Uiso   1.00
H28    H     0.87350   0.29920   0.75150   0.01267  Uiso   1.00
H29    H     0.48160   0.24000   0.82500   0.01267  Uiso   1.00
H30    H     0.75270   0.42610   0.83210   0.01267  Uiso   1.00
H31    H     0.54870   0.40150   0.87760   0.01267  Uiso   1.00
H32    H     0.37470   0.50310   0.79050   0.01267  Uiso   1.00
H33    H     0.25000   0.39740   0.78510   0.01267  Uiso   1.00
H34    H     0.83240   0.91780   0.83670   0.01267  Uiso   1.00
H35    H     0.74350   0.02550   0.81770   0.01267  Uiso   1.00
H36    H     0.62120   0.77230   0.79920   0.01267  Uiso   1.00
H37    H     0.40950   0.80300   0.84090   0.01267  Uiso   1.00
H38    H     0.25550   0.69490   0.75590   0.01267  Uiso   1.00
H39    H     0.12650   0.79920   0.74850   0.01267  Uiso   1.00
H40    H     0.51840   0.74000   0.67500   0.01267  Uiso   1.00
H41    H     0.24730   0.92610   0.66790   0.01267  Uiso   1.00
H42    H     0.45130   0.90150   0.62240   0.01267  Uiso   1.00
H43    H     0.62530   0.00310   0.70950   0.01267  Uiso   1.00
H44    H     0.75000   0.89740   0.71490   0.01267  Uiso   1.00
C1     C     0.69110   0.53880   0.33290   0.01267  Uiso   1.00
C2     C     0.46890   0.69130   0.29870   0.01267  Uiso   1.00
C3     C     0.28070   0.73510   0.24670   0.01267  Uiso   1.00
C4     C     0.36400   0.72470   0.17760   0.01267  Uiso   1.00
C5     C     0.40000   0.60890   0.16520   0.01267  Uiso   1.00
C6     C     0.59760   0.56720   0.21720   0.01267  Uiso   1.00
C7     C     0.17130   0.76390   0.12500   0.01267  Uiso   1.00
C8     C     0.30890   0.03880   0.16710   0.01267  Uiso   1.00
C9     C     0.53110   0.19130   0.20130   0.01267  Uiso   1.00
C10    C     0.71930   0.23510   0.25330   0.01267  Uiso   1.00
C11    C     0.63600   0.22470   0.32240   0.01267  Uiso   1.00
C12    C     0.60000   0.10890   0.33480   0.01267  Uiso   1.00
C13    C     0.40240   0.06720   0.28280   0.01267  Uiso   1.00
C14    C     0.82870   0.26390   0.37500   0.01267  Uiso   1.00
C15    C     0.30890   0.46120   0.66710   0.01267  Uiso   1.00
C16    C     0.53110   0.30870   0.70130   0.01267  Uiso   1.00
C17    C     0.71930   0.26490   0.75330   0.01267  Uiso   1.00
C18    C     0.63600   0.27530   0.82240   0.01267  Uiso   1.00
C19    C     0.60000   0.39110   0.83480   0.01267  Uiso   1.00
C20    C     0.40240   0.43280   0.78280   0.01267  Uiso   1.00
C21    C     0.82870   0.23610   0.87500   0.01267  Uiso   1.00
C22    C     0.69110   0.96120   0.83290   0.01267  Uiso   1.00
C23    C     0.46890   0.80870   0.79870   0.01267  Uiso   1.00
C24    C     0.28070   0.76490   0.74670   0.01267  Uiso   1.00
C25    C     0.36400   0.77530   0.67760   0.01267  Uiso   1.00
C26    C     0.40000   0.89110   0.66520   0.01267  Uiso   1.00
C27    C     0.59760   0.93280   0.71720   0.01267  Uiso   1.00
C28    C     0.17130   0.73610   0.62500   0.01267  Uiso   1.00
N1     N     0.50880   0.58130   0.28250   0.01267  Uiso   1.00
N2     N     0.49120   0.08130   0.21750   0.01267  Uiso   1.00
N3     N     0.49120   0.41870   0.71750   0.01267  Uiso   1.00
N4     N     0.50880   0.91870   0.78250   0.01267  Uiso   1.00
O1     O     0.54070   0.62270   0.44440   0.01267  Uiso   1.00
O2     O     0.82140   0.48080   0.45480   0.01267  Uiso   1.00
O3     O     0.37460   0.45030   0.40878   0.01267  Uiso   1.00
O4     O     0.00190   0.81910   0.14080   0.01267  Uiso   1.00
O5     O     0.19890   0.74890   0.06770   0.01267  Uiso   1.00
O6     O     0.45930   0.12270   0.05560   0.01267  Uiso   1.00
O7     O     0.17860   0.98080   0.04520   0.01267  Uiso   1.00
O8     O     0.62540   0.95030   0.09122   0.01267  Uiso   1.00
O9     O     0.99810   0.31910   0.35920   0.01267  Uiso   1.00
O10    O     0.80110   0.24890   0.43230   0.01267  Uiso   1.00
O11    O     0.45930   0.37730   0.55560   0.01267  Uiso   1.00
O12    O     0.17860   0.51920   0.54520   0.01267  Uiso   1.00
O13    O     0.62540   0.54970   0.59122   0.01267  Uiso   1.00
O14    O     0.99810   0.18090   0.85920   0.01267  Uiso   1.00
O15    O     0.80110   0.25110   0.93230   0.01267  Uiso   1.00
O16    O     0.54070   0.87730   0.94440   0.01267  Uiso   1.00
O17    O     0.82140   0.01920   0.95480   0.01267  Uiso   1.00
O18    O     0.37460   0.04970   0.90878   0.01267  Uiso   1.00
O19    O     0.00190   0.68090   0.64080   0.01267  Uiso   1.00
O20    O     0.19890   0.75110   0.56770   0.01267  Uiso   1.00
