data_image0
_cell_length_a       8.867
_cell_length_b       8.867
_cell_length_c       21.499
_cell_angle_alpha    90
_cell_angle_beta     90
_cell_angle_gamma    120

_symmetry_space_group_name_H-M    "P 1"
_symmetry_int_tables_number       1

loop_
  _symmetry_equiv_pos_as_xyz
  'x, y, z'

loop_
  _atom_site_label
  _atom_site_occupancy
  _atom_site_fract_x
  _atom_site_fract_y
  _atom_site_fract_z
  _atom_site_thermal_displace_type
  _atom_site_B_iso_or_equiv
  _atom_site_type_symbol
  Rb1      1.0000 0.00000  0.00000  0.50000  Biso   1.000  Rb
  Rb2      1.0000 0.66667  0.33333  0.83333  Biso   1.000  Rb
  Rb3      1.0000 0.33333  0.66667  0.16667  Biso   1.000  Rb
  Fe1      1.0000 0.33333  0.66667  0.66667  Biso   1.000  Fe
  Fe2      1.0000 0.00000  0.00000  0.00000  Biso   1.000  Fe
  Fe3      1.0000 0.66667  0.33333  0.33333  Biso   1.000  Fe
  C1       1.0000 0.22930  0.77070  0.61500  Biso   1.000  C
  N1       1.0000 0.17030  0.82970  0.58540  Biso   1.000  N
  C2       1.0000 0.89597  0.10403  0.94833  Biso   1.000  C
  N2       1.0000 0.83697  0.16303  0.91873  Biso   1.000  N
  C3       1.0000 0.56263  0.43737  0.28167  Biso   1.000  C
  N3       1.0000 0.50363  0.49637  0.25207  Biso   1.000  N
  C4       1.0000 0.22930  0.45860  0.61500  Biso   1.000  C
  N4       1.0000 0.17030  0.34060  0.58540  Biso   1.000  N
  C5       1.0000 0.89597  0.79193  0.94833  Biso   1.000  C
  N5       1.0000 0.83697  0.67393  0.91873  Biso   1.000  N
  C6       1.0000 0.56263  0.12527  0.28167  Biso   1.000  C
  N6       1.0000 0.50363  0.00727  0.25207  Biso   1.000  N
  C7       1.0000 0.54140  0.77070  0.61500  Biso   1.000  C
  N7       1.0000 0.65940  0.82970  0.58540  Biso   1.000  N
  C8       1.0000 0.20807  0.10403  0.94833  Biso   1.000  C
  N8       1.0000 0.32607  0.16303  0.91873  Biso   1.000  N
  C9       1.0000 0.87473  0.43737  0.28167  Biso   1.000  C
  N9       1.0000 0.99273  0.49637  0.25207  Biso   1.000  N
  C10      1.0000 0.77070  0.22930  0.38500  Biso   1.000  C
  N10      1.0000 0.82970  0.17030  0.41460  Biso   1.000  N
  C11      1.0000 0.43737  0.56263  0.71833  Biso   1.000  C
  N11      1.0000 0.49637  0.50363  0.74793  Biso   1.000  N
  C12      1.0000 0.10403  0.89597  0.05167  Biso   1.000  C
  N12      1.0000 0.16303  0.83697  0.08127  Biso   1.000  N
  C13      1.0000 0.45860  0.22930  0.38500  Biso   1.000  C
  N13      1.0000 0.34060  0.17030  0.41460  Biso   1.000  N
  C14      1.0000 0.12527  0.56263  0.71833  Biso   1.000  C
  N14      1.0000 0.00727  0.50363  0.74793  Biso   1.000  N
  C15      1.0000 0.79193  0.89597  0.05167  Biso   1.000  C
  N15      1.0000 0.67393  0.83697  0.08127  Biso   1.000  N
  C16      1.0000 0.77070  0.54140  0.38500  Biso   1.000  C
  N16      1.0000 0.82970  0.65940  0.41460  Biso   1.000  N
  C17      1.0000 0.43737  0.87473  0.71833  Biso   1.000  C
  N17      1.0000 0.49637  0.99273  0.74793  Biso   1.000  N
  C18      1.0000 0.10403  0.20807  0.05167  Biso   1.000  C
  N18      1.0000 0.16303  0.32607  0.08127  Biso   1.000  N
