data_image0
_cell_length_a       10.8285
_cell_length_b       11.1933
_cell_length_c       14.799
_cell_angle_alpha    90
_cell_angle_beta     90
_cell_angle_gamma    90

_symmetry_space_group_name_H-M    "P 1"
_symmetry_int_tables_number       1

loop_
  _symmetry_equiv_pos_as_xyz
  'x, y, z'

loop_
  _atom_site_label
  _atom_site_occupancy
  _atom_site_fract_x
  _atom_site_fract_y
  _atom_site_fract_z
  _atom_site_thermal_displace_type
  _atom_site_B_iso_or_equiv
  _atom_site_type_symbol
  Zn1      1.0000 0.34279  0.81577  0.15840  Biso   1.000  Zn
  O1       1.0000 0.26005  0.24718  0.56238  Biso   1.000  O
  O2       1.0000 0.10602  0.37047  0.52490  Biso   1.000  O
  O3       1.0000 0.40304  0.70387  0.24790  Biso   1.000  O
  O4       1.0000 0.21025  0.69836  0.29872  Biso   1.000  O
  N1       1.0000 0.49701  0.39689  0.37997  Biso   1.000  N
  C1       1.0000 0.46436  0.49909  0.33816  Biso   1.000  C
  H1       1.0000 0.52200  0.53630  0.29880  Biso   1.000  H
  C2       1.0000 0.41604  0.34601  0.43704  Biso   1.000  C
  H2       1.0000 0.43860  0.27390  0.46670  Biso   1.000  H
  C3       1.0000 0.30105  0.39490  0.45414  Biso   1.000  C
  C4       1.0000 0.26720  0.49950  0.40980  Biso   1.000  C
  H3       1.0000 0.18850  0.53450  0.42010  Biso   1.000  H
  C5       1.0000 0.35020  0.55179  0.35045  Biso   1.000  C
  C6       1.0000 0.21200  0.33560  0.51874  Biso   1.000  C
  C7       1.0000 0.31580  0.66090  0.29602  Biso   1.000  C
  Zn2      1.0000 0.15721  0.18423  0.65840  Biso   1.000  Zn
  O5       1.0000 0.23995  0.75282  0.06238  Biso   1.000  O
  O6       1.0000 0.39398  0.62953  0.02490  Biso   1.000  O
  O7       1.0000 0.09696  0.29613  0.74790  Biso   1.000  O
  O8       1.0000 0.28975  0.30164  0.79872  Biso   1.000  O
  N2       1.0000 0.00299  0.60311  0.87997  Biso   1.000  N
  C8       1.0000 0.03564  0.50091  0.83816  Biso   1.000  C
  H4       1.0000 0.97800  0.46370  0.79880  Biso   1.000  H
  C9       1.0000 0.08396  0.65399  0.93704  Biso   1.000  C
  H5       1.0000 0.06140  0.72610  0.96670  Biso   1.000  H
  C10      1.0000 0.19895  0.60510  0.95414  Biso   1.000  C
  C11      1.0000 0.23280  0.50050  0.90980  Biso   1.000  C
  H6       1.0000 0.31150  0.46550  0.92010  Biso   1.000  H
  C12      1.0000 0.14980  0.44821  0.85045  Biso   1.000  C
  C13      1.0000 0.28800  0.66440  0.01874  Biso   1.000  C
  C14      1.0000 0.18420  0.33910  0.79602  Biso   1.000  C
  Zn3      1.0000 0.65721  0.31577  0.34160  Biso   1.000  Zn
  O9       1.0000 0.73995  0.74718  0.93762  Biso   1.000  O
  O10      1.0000 0.89398  0.87047  0.97510  Biso   1.000  O
  O11      1.0000 0.59696  0.20387  0.25210  Biso   1.000  O
  O12      1.0000 0.78975  0.19836  0.20128  Biso   1.000  O
  N3       1.0000 0.50299  0.89689  0.12003  Biso   1.000  N
  C15      1.0000 0.53564  0.99909  0.16184  Biso   1.000  C
  H7       1.0000 0.47800  0.03630  0.20120  Biso   1.000  H
  C16      1.0000 0.58396  0.84601  0.06296  Biso   1.000  C
  H8       1.0000 0.56140  0.77390  0.03330  Biso   1.000  H
  C17      1.0000 0.69895  0.89490  0.04586  Biso   1.000  C
  C18      1.0000 0.73280  0.99950  0.09020  Biso   1.000  C
  H9       1.0000 0.81150  0.03450  0.07990  Biso   1.000  H
  C19      1.0000 0.64980  0.05179  0.14955  Biso   1.000  C
  C20      1.0000 0.78800  0.83560  0.98126  Biso   1.000  C
  C21      1.0000 0.68420  0.16090  0.20398  Biso   1.000  C
  Zn4      1.0000 0.84279  0.68423  0.84160  Biso   1.000  Zn
  O13      1.0000 0.76005  0.25282  0.43762  Biso   1.000  O
  O14      1.0000 0.60602  0.12953  0.47510  Biso   1.000  O
  O15      1.0000 0.90304  0.79613  0.75210  Biso   1.000  O
  O16      1.0000 0.71025  0.80164  0.70128  Biso   1.000  O
  N4       1.0000 0.99701  0.10311  0.62003  Biso   1.000  N
  C22      1.0000 0.96436  0.00091  0.66184  Biso   1.000  C
  H10      1.0000 0.02200  0.96370  0.70120  Biso   1.000  H
  C23      1.0000 0.91604  0.15399  0.56296  Biso   1.000  C
  H11      1.0000 0.93860  0.22610  0.53330  Biso   1.000  H
  C24      1.0000 0.80105  0.10510  0.54586  Biso   1.000  C
  C25      1.0000 0.76720  0.00050  0.59020  Biso   1.000  C
  H12      1.0000 0.68850  0.96550  0.57990  Biso   1.000  H
  C26      1.0000 0.85020  0.94821  0.64955  Biso   1.000  C
  C27      1.0000 0.71200  0.16440  0.48126  Biso   1.000  C
  C28      1.0000 0.81580  0.83910  0.70398  Biso   1.000  C
