data_image0
_cell_length_a       20.1616
_cell_length_b       20.1616
_cell_length_c       20.1616
_cell_angle_alpha    90
_cell_angle_beta     90
_cell_angle_gamma    90

_symmetry_space_group_name_H-M    "P 1"
_symmetry_int_tables_number       1

loop_
  _symmetry_equiv_pos_as_xyz
  'x, y, z'

loop_
  _atom_site_label
  _atom_site_occupancy
  _atom_site_fract_x
  _atom_site_fract_y
  _atom_site_fract_z
  _atom_site_thermal_displace_type
  _atom_site_B_iso_or_equiv
  _atom_site_type_symbol
  Zn1      1.0000 0.30416  0.80887  0.19746  Biso   1.000  Zn
  Zn2      1.0000 0.30281  0.80382  0.80799  Biso   1.000  Zn
  C1       1.0000 0.20980  0.70720  0.96480  Biso   1.000  C
  H1       1.0000 0.18410  0.67120  0.98100  Biso   1.000  H
  C2       1.0000 0.24030  0.75290  0.00290  Biso   1.000  C
  C3       1.0000 0.23610  0.76350  0.07490  Biso   1.000  C
  C4       1.0000 0.29230  0.77770  0.96740  Biso   1.000  C
  H2       1.0000 0.33390  0.79400  0.98230  Biso   1.000  H
  C5       1.0000 0.22890  0.94700  0.70910  Biso   1.000  C
  H3       1.0000 0.21330  0.95050  0.66480  Biso   1.000  H
  C6       1.0000 0.24800  0.00210  0.73640  Biso   1.000  C
  C7       1.0000 0.22080  0.07580  0.73130  Biso   1.000  C
  N1       1.0000 0.26670  0.77250  0.90160  Biso   1.000  N
  N2       1.0000 0.22170  0.72070  0.89780  Biso   1.000  N
  N3       1.0000 0.22820  0.89840  0.72980  Biso   1.000  N
  N4       1.0000 0.27840  0.89380  0.78000  Biso   1.000  N
  O1       1.0000 0.27550  0.78970  0.10710  Biso   1.000  O
  O2       1.0000 0.20420  0.72650  0.10740  Biso   1.000  O
  O3       1.0000 0.20820  0.10370  0.70190  Biso   1.000  O
  O4       1.0000 0.21870  0.11320  0.79050  Biso   1.000  O
  Zn3      1.0000 0.19584  0.19113  0.69746  Biso   1.000  Zn
  Zn4      1.0000 0.19719  0.19618  0.30799  Biso   1.000  Zn
  C8       1.0000 0.29020  0.29280  0.46480  Biso   1.000  C
  H4       1.0000 0.31590  0.32880  0.48100  Biso   1.000  H
  C9       1.0000 0.25970  0.24710  0.50290  Biso   1.000  C
  C10      1.0000 0.26390  0.23650  0.57490  Biso   1.000  C
  C11      1.0000 0.20770  0.22230  0.46740  Biso   1.000  C
  H5       1.0000 0.16610  0.20600  0.48230  Biso   1.000  H
  C12      1.0000 0.27110  0.05300  0.20910  Biso   1.000  C
  H6       1.0000 0.28670  0.04950  0.16480  Biso   1.000  H
  C13      1.0000 0.25200  0.99790  0.23640  Biso   1.000  C
  C14      1.0000 0.27920  0.92420  0.23130  Biso   1.000  C
  N5       1.0000 0.23330  0.22750  0.40160  Biso   1.000  N
  N6       1.0000 0.27830  0.27930  0.39780  Biso   1.000  N
  N7       1.0000 0.27180  0.10160  0.22980  Biso   1.000  N
  N8       1.0000 0.22160  0.10620  0.28000  Biso   1.000  N
  O5       1.0000 0.22450  0.21030  0.60710  Biso   1.000  O
  O6       1.0000 0.29580  0.27350  0.60740  Biso   1.000  O
  O7       1.0000 0.29180  0.89630  0.20190  Biso   1.000  O
  O8       1.0000 0.28130  0.88680  0.29050  Biso   1.000  O
  Zn5      1.0000 0.69584  0.30887  0.30254  Biso   1.000  Zn
  Zn6      1.0000 0.69719  0.30382  0.69201  Biso   1.000  Zn
  C15      1.0000 0.79020  0.20720  0.53520  Biso   1.000  C
  H7       1.0000 0.81590  0.17120  0.51900  Biso   1.000  H
  C16      1.0000 0.75970  0.25290  0.49710  Biso   1.000  C
  C17      1.0000 0.76390  0.26350  0.42510  Biso   1.000  C
  C18      1.0000 0.70770  0.27770  0.53260  Biso   1.000  C
  H8       1.0000 0.66610  0.29400  0.51770  Biso   1.000  H
  C19      1.0000 0.77110  0.44700  0.79090  Biso   1.000  C
  H9       1.0000 0.78670  0.45050  0.83520  Biso   1.000  H
  C20      1.0000 0.75200  0.50210  0.76360  Biso   1.000  C
  C21      1.0000 0.77920  0.57580  0.76870  Biso   1.000  C
  N9       1.0000 0.73330  0.27250  0.59840  Biso   1.000  N
  N10      1.0000 0.77830  0.22070  0.60220  Biso   1.000  N
  N11      1.0000 0.77180  0.39840  0.77020  Biso   1.000  N
  N12      1.0000 0.72160  0.39380  0.72000  Biso   1.000  N
  O9       1.0000 0.72450  0.28970  0.39290  Biso   1.000  O
  O10      1.0000 0.79580  0.22650  0.39260  Biso   1.000  O
  O11      1.0000 0.79180  0.60370  0.79810  Biso   1.000  O
  O12      1.0000 0.78130  0.61320  0.70950  Biso   1.000  O
  Zn7      1.0000 0.80416  0.69113  0.80254  Biso   1.000  Zn
  Zn8      1.0000 0.80281  0.69618  0.19201  Biso   1.000  Zn
  C22      1.0000 0.70980  0.79280  0.03520  Biso   1.000  C
  H10      1.0000 0.68410  0.82880  0.01900  Biso   1.000  H
  C23      1.0000 0.74030  0.74710  0.99710  Biso   1.000  C
  C24      1.0000 0.73610  0.73650  0.92510  Biso   1.000  C
  C25      1.0000 0.79230  0.72230  0.03260  Biso   1.000  C
  H11      1.0000 0.83390  0.70600  0.01770  Biso   1.000  H
  C26      1.0000 0.72890  0.55300  0.29090  Biso   1.000  C
  H12      1.0000 0.71330  0.54950  0.33520  Biso   1.000  H
  C27      1.0000 0.74800  0.49790  0.26360  Biso   1.000  C
  C28      1.0000 0.72080  0.42420  0.26870  Biso   1.000  C
  N13      1.0000 0.76670  0.72750  0.09840  Biso   1.000  N
  N14      1.0000 0.72170  0.77930  0.10220  Biso   1.000  N
  N15      1.0000 0.72820  0.60160  0.27020  Biso   1.000  N
  N16      1.0000 0.77840  0.60620  0.22000  Biso   1.000  N
  O13      1.0000 0.77550  0.71030  0.89290  Biso   1.000  O
  O14      1.0000 0.70420  0.77350  0.89260  Biso   1.000  O
  O15      1.0000 0.70820  0.39630  0.29810  Biso   1.000  O
  O16      1.0000 0.71870  0.38680  0.20950  Biso   1.000  O
  Zn9      1.0000 0.19746  0.30416  0.80887  Biso   1.000  Zn
  Zn10     1.0000 0.80799  0.30281  0.80382  Biso   1.000  Zn
  C29      1.0000 0.96480  0.20980  0.70720  Biso   1.000  C
  H13      1.0000 0.98100  0.18410  0.67120  Biso   1.000  H
  C30      1.0000 0.00290  0.24030  0.75290  Biso   1.000  C
  C31      1.0000 0.07490  0.23610  0.76350  Biso   1.000  C
  C32      1.0000 0.96740  0.29230  0.77770  Biso   1.000  C
  H14      1.0000 0.98230  0.33390  0.79400  Biso   1.000  H
  C33      1.0000 0.70910  0.22890  0.94700  Biso   1.000  C
  H15      1.0000 0.66480  0.21330  0.95050  Biso   1.000  H
  C34      1.0000 0.73640  0.24800  0.00210  Biso   1.000  C
  C35      1.0000 0.73130  0.22080  0.07580  Biso   1.000  C
  N17      1.0000 0.90160  0.26670  0.77250  Biso   1.000  N
  N18      1.0000 0.89780  0.22170  0.72070  Biso   1.000  N
  N19      1.0000 0.72980  0.22820  0.89840  Biso   1.000  N
  N20      1.0000 0.78000  0.27840  0.89380  Biso   1.000  N
  O17      1.0000 0.10710  0.27550  0.78970  Biso   1.000  O
  O18      1.0000 0.10740  0.20420  0.72650  Biso   1.000  O
  O19      1.0000 0.70190  0.20820  0.10370  Biso   1.000  O
  O20      1.0000 0.79050  0.21870  0.11320  Biso   1.000  O
  Zn11     1.0000 0.69746  0.19584  0.19113  Biso   1.000  Zn
  Zn12     1.0000 0.30799  0.19719  0.19618  Biso   1.000  Zn
  C36      1.0000 0.46480  0.29020  0.29280  Biso   1.000  C
  H16      1.0000 0.48100  0.31590  0.32880  Biso   1.000  H
  C37      1.0000 0.50290  0.25970  0.24710  Biso   1.000  C
  C38      1.0000 0.57490  0.26390  0.23650  Biso   1.000  C
  C39      1.0000 0.46740  0.20770  0.22230  Biso   1.000  C
  H17      1.0000 0.48230  0.16610  0.20600  Biso   1.000  H
  C40      1.0000 0.20910  0.27110  0.05300  Biso   1.000  C
  H18      1.0000 0.16480  0.28670  0.04950  Biso   1.000  H
  C41      1.0000 0.23640  0.25200  0.99790  Biso   1.000  C
  C42      1.0000 0.23130  0.27920  0.92420  Biso   1.000  C
  N21      1.0000 0.40160  0.23330  0.22750  Biso   1.000  N
  N22      1.0000 0.39780  0.27830  0.27930  Biso   1.000  N
  N23      1.0000 0.22980  0.27180  0.10160  Biso   1.000  N
  N24      1.0000 0.28000  0.22160  0.10620  Biso   1.000  N
  O21      1.0000 0.60710  0.22450  0.21030  Biso   1.000  O
  O22      1.0000 0.60740  0.29580  0.27350  Biso   1.000  O
  O23      1.0000 0.20190  0.29180  0.89630  Biso   1.000  O
  O24      1.0000 0.29050  0.28130  0.88680  Biso   1.000  O
  Zn13     1.0000 0.30254  0.69584  0.30887  Biso   1.000  Zn
  Zn14     1.0000 0.69201  0.69719  0.30382  Biso   1.000  Zn
  C43      1.0000 0.53520  0.79020  0.20720  Biso   1.000  C
  H19      1.0000 0.51900  0.81590  0.17120  Biso   1.000  H
  C44      1.0000 0.49710  0.75970  0.25290  Biso   1.000  C
  C45      1.0000 0.42510  0.76390  0.26350  Biso   1.000  C
  C46      1.0000 0.53260  0.70770  0.27770  Biso   1.000  C
  H20      1.0000 0.51770  0.66610  0.29400  Biso   1.000  H
  C47      1.0000 0.79090  0.77110  0.44700  Biso   1.000  C
  H21      1.0000 0.83520  0.78670  0.45050  Biso   1.000  H
  C48      1.0000 0.76360  0.75200  0.50210  Biso   1.000  C
  C49      1.0000 0.76870  0.77920  0.57580  Biso   1.000  C
  N25      1.0000 0.59840  0.73330  0.27250  Biso   1.000  N
  N26      1.0000 0.60220  0.77830  0.22070  Biso   1.000  N
  N27      1.0000 0.77020  0.77180  0.39840  Biso   1.000  N
  N28      1.0000 0.72000  0.72160  0.39380  Biso   1.000  N
  O25      1.0000 0.39290  0.72450  0.28970  Biso   1.000  O
  O26      1.0000 0.39260  0.79580  0.22650  Biso   1.000  O
  O27      1.0000 0.79810  0.79180  0.60370  Biso   1.000  O
  O28      1.0000 0.70950  0.78130  0.61320  Biso   1.000  O
  Zn15     1.0000 0.80254  0.80416  0.69113  Biso   1.000  Zn
  Zn16     1.0000 0.19201  0.80281  0.69618  Biso   1.000  Zn
  C50      1.0000 0.03520  0.70980  0.79280  Biso   1.000  C
  H22      1.0000 0.01900  0.68410  0.82880  Biso   1.000  H
  C51      1.0000 0.99710  0.74030  0.74710  Biso   1.000  C
  C52      1.0000 0.92510  0.73610  0.73650  Biso   1.000  C
  C53      1.0000 0.03260  0.79230  0.72230  Biso   1.000  C
  H23      1.0000 0.01770  0.83390  0.70600  Biso   1.000  H
  C54      1.0000 0.29090  0.72890  0.55300  Biso   1.000  C
  H24      1.0000 0.33520  0.71330  0.54950  Biso   1.000  H
  C55      1.0000 0.26360  0.74800  0.49790  Biso   1.000  C
  C56      1.0000 0.26870  0.72080  0.42420  Biso   1.000  C
  N29      1.0000 0.09840  0.76670  0.72750  Biso   1.000  N
  N30      1.0000 0.10220  0.72170  0.77930  Biso   1.000  N
  N31      1.0000 0.27020  0.72820  0.60160  Biso   1.000  N
  N32      1.0000 0.22000  0.77840  0.60620  Biso   1.000  N
  O29      1.0000 0.89290  0.77550  0.71030  Biso   1.000  O
  O30      1.0000 0.89260  0.70420  0.77350  Biso   1.000  O
  O31      1.0000 0.29810  0.70820  0.39630  Biso   1.000  O
  O32      1.0000 0.20950  0.71870  0.38680  Biso   1.000  O
  Zn17     1.0000 0.80887  0.19746  0.30416  Biso   1.000  Zn
  Zn18     1.0000 0.80382  0.80799  0.30281  Biso   1.000  Zn
  C57      1.0000 0.70720  0.96480  0.20980  Biso   1.000  C
  H25      1.0000 0.67120  0.98100  0.18410  Biso   1.000  H
  C58      1.0000 0.75290  0.00290  0.24030  Biso   1.000  C
  C59      1.0000 0.76350  0.07490  0.23610  Biso   1.000  C
  C60      1.0000 0.77770  0.96740  0.29230  Biso   1.000  C
  H26      1.0000 0.79400  0.98230  0.33390  Biso   1.000  H
  C61      1.0000 0.94700  0.70910  0.22890  Biso   1.000  C
  H27      1.0000 0.95050  0.66480  0.21330  Biso   1.000  H
  C62      1.0000 0.00210  0.73640  0.24800  Biso   1.000  C
  C63      1.0000 0.07580  0.73130  0.22080  Biso   1.000  C
  N33      1.0000 0.77250  0.90160  0.26670  Biso   1.000  N
  N34      1.0000 0.72070  0.89780  0.22170  Biso   1.000  N
  N35      1.0000 0.89840  0.72980  0.22820  Biso   1.000  N
  N36      1.0000 0.89380  0.78000  0.27840  Biso   1.000  N
  O33      1.0000 0.78970  0.10710  0.27550  Biso   1.000  O
  O34      1.0000 0.72650  0.10740  0.20420  Biso   1.000  O
  O35      1.0000 0.10370  0.70190  0.20820  Biso   1.000  O
  O36      1.0000 0.11320  0.79050  0.21870  Biso   1.000  O
  Zn19     1.0000 0.19113  0.69746  0.19584  Biso   1.000  Zn
  Zn20     1.0000 0.19618  0.30799  0.19719  Biso   1.000  Zn
  C64      1.0000 0.29280  0.46480  0.29020  Biso   1.000  C
  H28      1.0000 0.32880  0.48100  0.31590  Biso   1.000  H
  C65      1.0000 0.24710  0.50290  0.25970  Biso   1.000  C
  C66      1.0000 0.23650  0.57490  0.26390  Biso   1.000  C
  C67      1.0000 0.22230  0.46740  0.20770  Biso   1.000  C
  H29      1.0000 0.20600  0.48230  0.16610  Biso   1.000  H
  C68      1.0000 0.05300  0.20910  0.27110  Biso   1.000  C
  H30      1.0000 0.04950  0.16480  0.28670  Biso   1.000  H
  C69      1.0000 0.99790  0.23640  0.25200  Biso   1.000  C
  C70      1.0000 0.92420  0.23130  0.27920  Biso   1.000  C
  N37      1.0000 0.22750  0.40160  0.23330  Biso   1.000  N
  N38      1.0000 0.27930  0.39780  0.27830  Biso   1.000  N
  N39      1.0000 0.10160  0.22980  0.27180  Biso   1.000  N
  N40      1.0000 0.10620  0.28000  0.22160  Biso   1.000  N
  O37      1.0000 0.21030  0.60710  0.22450  Biso   1.000  O
  O38      1.0000 0.27350  0.60740  0.29580  Biso   1.000  O
  O39      1.0000 0.89630  0.20190  0.29180  Biso   1.000  O
  O40      1.0000 0.88680  0.29050  0.28130  Biso   1.000  O
  Zn21     1.0000 0.30887  0.30254  0.69584  Biso   1.000  Zn
  Zn22     1.0000 0.30382  0.69201  0.69719  Biso   1.000  Zn
  C71      1.0000 0.20720  0.53520  0.79020  Biso   1.000  C
  H31      1.0000 0.17120  0.51900  0.81590  Biso   1.000  H
  C72      1.0000 0.25290  0.49710  0.75970  Biso   1.000  C
  C73      1.0000 0.26350  0.42510  0.76390  Biso   1.000  C
  C74      1.0000 0.27770  0.53260  0.70770  Biso   1.000  C
  H32      1.0000 0.29400  0.51770  0.66610  Biso   1.000  H
  C75      1.0000 0.44700  0.79090  0.77110  Biso   1.000  C
  H33      1.0000 0.45050  0.83520  0.78670  Biso   1.000  H
  C76      1.0000 0.50210  0.76360  0.75200  Biso   1.000  C
  C77      1.0000 0.57580  0.76870  0.77920  Biso   1.000  C
  N41      1.0000 0.27250  0.59840  0.73330  Biso   1.000  N
  N42      1.0000 0.22070  0.60220  0.77830  Biso   1.000  N
  N43      1.0000 0.39840  0.77020  0.77180  Biso   1.000  N
  N44      1.0000 0.39380  0.72000  0.72160  Biso   1.000  N
  O41      1.0000 0.28970  0.39290  0.72450  Biso   1.000  O
  O42      1.0000 0.22650  0.39260  0.79580  Biso   1.000  O
  O43      1.0000 0.60370  0.79810  0.79180  Biso   1.000  O
  O44      1.0000 0.61320  0.70950  0.78130  Biso   1.000  O
  Zn23     1.0000 0.69113  0.80254  0.80416  Biso   1.000  Zn
  Zn24     1.0000 0.69618  0.19201  0.80281  Biso   1.000  Zn
  C78      1.0000 0.79280  0.03520  0.70980  Biso   1.000  C
  H34      1.0000 0.82880  0.01900  0.68410  Biso   1.000  H
  C79      1.0000 0.74710  0.99710  0.74030  Biso   1.000  C
  C80      1.0000 0.73650  0.92510  0.73610  Biso   1.000  C
  C81      1.0000 0.72230  0.03260  0.79230  Biso   1.000  C
  H35      1.0000 0.70600  0.01770  0.83390  Biso   1.000  H
  C82      1.0000 0.55300  0.29090  0.72890  Biso   1.000  C
  H36      1.0000 0.54950  0.33520  0.71330  Biso   1.000  H
  C83      1.0000 0.49790  0.26360  0.74800  Biso   1.000  C
  C84      1.0000 0.42420  0.26870  0.72080  Biso   1.000  C
  N45      1.0000 0.72750  0.09840  0.76670  Biso   1.000  N
  N46      1.0000 0.77930  0.10220  0.72170  Biso   1.000  N
  N47      1.0000 0.60160  0.27020  0.72820  Biso   1.000  N
  N48      1.0000 0.60620  0.22000  0.77840  Biso   1.000  N
  O45      1.0000 0.71030  0.89290  0.77550  Biso   1.000  O
  O46      1.0000 0.77350  0.89260  0.70420  Biso   1.000  O
  O47      1.0000 0.39630  0.29810  0.70820  Biso   1.000  O
  O48      1.0000 0.38680  0.20950  0.71870  Biso   1.000  O
  Zn25     1.0000 0.18975  0.68975  0.81025  Biso   1.000  Zn
  O49      1.0000 0.24700  0.74700  0.75300  Biso   1.000  O
  Zn26     1.0000 0.31025  0.31025  0.31025  Biso   1.000  Zn
  O50      1.0000 0.25300  0.25300  0.25300  Biso   1.000  O
  Zn27     1.0000 0.81025  0.18975  0.68975  Biso   1.000  Zn
  O51      1.0000 0.75300  0.24700  0.74700  Biso   1.000  O
  Zn28     1.0000 0.68975  0.81025  0.18975  Biso   1.000  Zn
  O52      1.0000 0.74700  0.75300  0.24700  Biso   1.000  O
  O53      1.0000 0.24500  0.75500  0.25500  Biso   1.000  O
  O54      1.0000 0.25500  0.24500  0.75500  Biso   1.000  O
  O55      1.0000 0.75500  0.25500  0.24500  Biso   1.000  O
  O56      1.0000 0.74500  0.74500  0.74500  Biso   1.000  O
