data_image0
_cell_length_a       20.1405
_cell_length_b       20.1405
_cell_length_c       20.1405
_cell_angle_alpha    90
_cell_angle_beta     90
_cell_angle_gamma    90

_symmetry_space_group_name_H-M    "P 1"
_symmetry_int_tables_number       1

loop_
  _symmetry_equiv_pos_as_xyz
  'x, y, z'

loop_
  _atom_site_label
  _atom_site_occupancy
  _atom_site_fract_x
  _atom_site_fract_y
  _atom_site_fract_z
  _atom_site_thermal_displace_type
  _atom_site_B_iso_or_equiv
  _atom_site_type_symbol
  Zn1      1.0000 0.30330  0.80890  0.19697  Biso   1.000  Zn
  Zn2      1.0000 0.30332  0.80404  0.80794  Biso   1.000  Zn
  C1       1.0000 0.20990  0.70800  0.96380  Biso   1.000  C
  H1       1.0000 0.18300  0.67210  0.97840  Biso   1.000  H
  C2       1.0000 0.24150  0.75260  0.00540  Biso   1.000  C
  C3       1.0000 0.23880  0.75570  0.07480  Biso   1.000  C
  C4       1.0000 0.29020  0.77980  0.96130  Biso   1.000  C
  H2       1.0000 0.33070  0.79970  0.97480  Biso   1.000  H
  C5       1.0000 0.23730  0.95261  0.71060  Biso   1.000  C
  H3       1.0000 0.23530  0.95640  0.66360  Biso   1.000  H
  C6       1.0000 0.29330  0.96976  0.78410  Biso   1.000  C
  H4       1.0000 0.32520  0.98920  0.81290  Biso   1.000  H
  C7       1.0000 0.25090  0.00330  0.73660  Biso   1.000  C
  N1       1.0000 0.27040  0.77300  0.89810  Biso   1.000  N
  N2       1.0000 0.22230  0.72220  0.90090  Biso   1.000  N
  N3       1.0000 0.22530  0.89640  0.72980  Biso   1.000  N
  N4       1.0000 0.27540  0.89690  0.77780  Biso   1.000  N
  O1       1.0000 0.27770  0.79220  0.10580  Biso   1.000  O
  O2       1.0000 0.20470  0.72680  0.10650  Biso   1.000  O
  Zn3      1.0000 0.19670  0.19110  0.69697  Biso   1.000  Zn
  Zn4      1.0000 0.19668  0.19596  0.30794  Biso   1.000  Zn
  C8       1.0000 0.29010  0.29200  0.46380  Biso   1.000  C
  H5       1.0000 0.31700  0.32790  0.47840  Biso   1.000  H
  C9       1.0000 0.25850  0.24740  0.50540  Biso   1.000  C
  C10      1.0000 0.26120  0.24430  0.57480  Biso   1.000  C
  C11      1.0000 0.20980  0.22020  0.46130  Biso   1.000  C
  H6       1.0000 0.16930  0.20030  0.47480  Biso   1.000  H
  C12      1.0000 0.26270  0.04739  0.21060  Biso   1.000  C
  H7       1.0000 0.26470  0.04360  0.16360  Biso   1.000  H
  C13      1.0000 0.20670  0.03024  0.28410  Biso   1.000  C
  H8       1.0000 0.17480  0.01080  0.31290  Biso   1.000  H
  C14      1.0000 0.24910  0.99670  0.23660  Biso   1.000  C
  N5       1.0000 0.22960  0.22700  0.39810  Biso   1.000  N
  N6       1.0000 0.27770  0.27780  0.40090  Biso   1.000  N
  N7       1.0000 0.27470  0.10360  0.22980  Biso   1.000  N
  N8       1.0000 0.22460  0.10310  0.27780  Biso   1.000  N
  O3       1.0000 0.22230  0.20780  0.60580  Biso   1.000  O
  O4       1.0000 0.29530  0.27320  0.60650  Biso   1.000  O
  Zn5      1.0000 0.69670  0.30890  0.30303  Biso   1.000  Zn
  Zn6      1.0000 0.69668  0.30404  0.69206  Biso   1.000  Zn
  C15      1.0000 0.79010  0.20800  0.53620  Biso   1.000  C
  H9       1.0000 0.81700  0.17210  0.52160  Biso   1.000  H
  C16      1.0000 0.75850  0.25260  0.49460  Biso   1.000  C
  C17      1.0000 0.76120  0.25570  0.42520  Biso   1.000  C
  C18      1.0000 0.70980  0.27980  0.53870  Biso   1.000  C
  H10      1.0000 0.66930  0.29970  0.52520  Biso   1.000  H
  C19      1.0000 0.76270  0.45261  0.78940  Biso   1.000  C
  H11      1.0000 0.76470  0.45640  0.83640  Biso   1.000  H
  C20      1.0000 0.70670  0.46976  0.71590  Biso   1.000  C
  H12      1.0000 0.67480  0.48920  0.68710  Biso   1.000  H
  C21      1.0000 0.74910  0.50330  0.76340  Biso   1.000  C
  N9       1.0000 0.72960  0.27300  0.60190  Biso   1.000  N
  N10      1.0000 0.77770  0.22220  0.59910  Biso   1.000  N
  N11      1.0000 0.77470  0.39640  0.77020  Biso   1.000  N
  N12      1.0000 0.72460  0.39690  0.72220  Biso   1.000  N
  O5       1.0000 0.72230  0.29220  0.39420  Biso   1.000  O
  O6       1.0000 0.79530  0.22680  0.39350  Biso   1.000  O
  Zn7      1.0000 0.80330  0.69110  0.80303  Biso   1.000  Zn
  Zn8      1.0000 0.80332  0.69596  0.19206  Biso   1.000  Zn
  C22      1.0000 0.70990  0.79200  0.03620  Biso   1.000  C
  H13      1.0000 0.68300  0.82790  0.02160  Biso   1.000  H
  C23      1.0000 0.74150  0.74740  0.99460  Biso   1.000  C
  C24      1.0000 0.73880  0.74430  0.92520  Biso   1.000  C
  C25      1.0000 0.79020  0.72020  0.03870  Biso   1.000  C
  H14      1.0000 0.83070  0.70030  0.02520  Biso   1.000  H
  C26      1.0000 0.73730  0.54739  0.28940  Biso   1.000  C
  H15      1.0000 0.73530  0.54360  0.33640  Biso   1.000  H
  C27      1.0000 0.79330  0.53024  0.21590  Biso   1.000  C
  H16      1.0000 0.82520  0.51080  0.18710  Biso   1.000  H
  C28      1.0000 0.75090  0.49670  0.26340  Biso   1.000  C
  N13      1.0000 0.77040  0.72700  0.10190  Biso   1.000  N
  N14      1.0000 0.72230  0.77780  0.09910  Biso   1.000  N
  N15      1.0000 0.72530  0.60360  0.27020  Biso   1.000  N
  N16      1.0000 0.77540  0.60310  0.22220  Biso   1.000  N
  O7       1.0000 0.77770  0.70780  0.89420  Biso   1.000  O
  O8       1.0000 0.70470  0.77320  0.89350  Biso   1.000  O
  Zn9      1.0000 0.19697  0.30330  0.80890  Biso   1.000  Zn
  Zn10     1.0000 0.80794  0.30332  0.80404  Biso   1.000  Zn
  C29      1.0000 0.96380  0.20990  0.70800  Biso   1.000  C
  H17      1.0000 0.97840  0.18300  0.67210  Biso   1.000  H
  C30      1.0000 0.00540  0.24150  0.75260  Biso   1.000  C
  C31      1.0000 0.07480  0.23880  0.75570  Biso   1.000  C
  C32      1.0000 0.96130  0.29020  0.77980  Biso   1.000  C
  H18      1.0000 0.97480  0.33070  0.79970  Biso   1.000  H
  C33      1.0000 0.71060  0.23730  0.95261  Biso   1.000  C
  H19      1.0000 0.66360  0.23530  0.95640  Biso   1.000  H
  C34      1.0000 0.78410  0.29330  0.96976  Biso   1.000  C
  H20      1.0000 0.81290  0.32520  0.98920  Biso   1.000  H
  C35      1.0000 0.73660  0.25090  0.00330  Biso   1.000  C
  N17      1.0000 0.89810  0.27040  0.77300  Biso   1.000  N
  N18      1.0000 0.90090  0.22230  0.72220  Biso   1.000  N
  N19      1.0000 0.72980  0.22530  0.89640  Biso   1.000  N
  N20      1.0000 0.77780  0.27540  0.89690  Biso   1.000  N
  O9       1.0000 0.10580  0.27770  0.79220  Biso   1.000  O
  O10      1.0000 0.10650  0.20470  0.72680  Biso   1.000  O
  Zn11     1.0000 0.69697  0.19670  0.19110  Biso   1.000  Zn
  Zn12     1.0000 0.30794  0.19668  0.19596  Biso   1.000  Zn
  C36      1.0000 0.46380  0.29010  0.29200  Biso   1.000  C
  H21      1.0000 0.47840  0.31700  0.32790  Biso   1.000  H
  C37      1.0000 0.50540  0.25850  0.24740  Biso   1.000  C
  C38      1.0000 0.57480  0.26120  0.24430  Biso   1.000  C
  C39      1.0000 0.46130  0.20980  0.22020  Biso   1.000  C
  H22      1.0000 0.47480  0.16930  0.20030  Biso   1.000  H
  C40      1.0000 0.21060  0.26270  0.04739  Biso   1.000  C
  H23      1.0000 0.16360  0.26470  0.04360  Biso   1.000  H
  C41      1.0000 0.28410  0.20670  0.03024  Biso   1.000  C
  H24      1.0000 0.31290  0.17480  0.01080  Biso   1.000  H
  C42      1.0000 0.23660  0.24910  0.99670  Biso   1.000  C
  N21      1.0000 0.39810  0.22960  0.22700  Biso   1.000  N
  N22      1.0000 0.40090  0.27770  0.27780  Biso   1.000  N
  N23      1.0000 0.22980  0.27470  0.10360  Biso   1.000  N
  N24      1.0000 0.27780  0.22460  0.10310  Biso   1.000  N
  O11      1.0000 0.60580  0.22230  0.20780  Biso   1.000  O
  O12      1.0000 0.60650  0.29530  0.27320  Biso   1.000  O
  Zn13     1.0000 0.30303  0.69670  0.30890  Biso   1.000  Zn
  Zn14     1.0000 0.69206  0.69668  0.30404  Biso   1.000  Zn
  C43      1.0000 0.53620  0.79010  0.20800  Biso   1.000  C
  H25      1.0000 0.52160  0.81700  0.17210  Biso   1.000  H
  C44      1.0000 0.49460  0.75850  0.25260  Biso   1.000  C
  C45      1.0000 0.42520  0.76120  0.25570  Biso   1.000  C
  C46      1.0000 0.53870  0.70980  0.27980  Biso   1.000  C
  H26      1.0000 0.52520  0.66930  0.29970  Biso   1.000  H
  C47      1.0000 0.78940  0.76270  0.45261  Biso   1.000  C
  H27      1.0000 0.83640  0.76470  0.45640  Biso   1.000  H
  C48      1.0000 0.71590  0.70670  0.46976  Biso   1.000  C
  H28      1.0000 0.68710  0.67480  0.48920  Biso   1.000  H
  C49      1.0000 0.76340  0.74910  0.50330  Biso   1.000  C
  N25      1.0000 0.60190  0.72960  0.27300  Biso   1.000  N
  N26      1.0000 0.59910  0.77770  0.22220  Biso   1.000  N
  N27      1.0000 0.77020  0.77470  0.39640  Biso   1.000  N
  N28      1.0000 0.72220  0.72460  0.39690  Biso   1.000  N
  O13      1.0000 0.39420  0.72230  0.29220  Biso   1.000  O
  O14      1.0000 0.39350  0.79530  0.22680  Biso   1.000  O
  Zn15     1.0000 0.80303  0.80330  0.69110  Biso   1.000  Zn
  Zn16     1.0000 0.19206  0.80332  0.69596  Biso   1.000  Zn
  C50      1.0000 0.03620  0.70990  0.79200  Biso   1.000  C
  H29      1.0000 0.02160  0.68300  0.82790  Biso   1.000  H
  C51      1.0000 0.99460  0.74150  0.74740  Biso   1.000  C
  C52      1.0000 0.92520  0.73880  0.74430  Biso   1.000  C
  C53      1.0000 0.03870  0.79020  0.72020  Biso   1.000  C
  H30      1.0000 0.02520  0.83070  0.70030  Biso   1.000  H
  C54      1.0000 0.28940  0.73730  0.54739  Biso   1.000  C
  H31      1.0000 0.33640  0.73530  0.54360  Biso   1.000  H
  C55      1.0000 0.21590  0.79330  0.53024  Biso   1.000  C
  H32      1.0000 0.18710  0.82520  0.51080  Biso   1.000  H
  C56      1.0000 0.26340  0.75090  0.49670  Biso   1.000  C
  N29      1.0000 0.10190  0.77040  0.72700  Biso   1.000  N
  N30      1.0000 0.09910  0.72230  0.77780  Biso   1.000  N
  N31      1.0000 0.27020  0.72530  0.60360  Biso   1.000  N
  N32      1.0000 0.22220  0.77540  0.60310  Biso   1.000  N
  O15      1.0000 0.89420  0.77770  0.70780  Biso   1.000  O
  O16      1.0000 0.89350  0.70470  0.77320  Biso   1.000  O
  Zn17     1.0000 0.80890  0.19697  0.30330  Biso   1.000  Zn
  Zn18     1.0000 0.80404  0.80794  0.30332  Biso   1.000  Zn
  C57      1.0000 0.70800  0.96380  0.20990  Biso   1.000  C
  H33      1.0000 0.67210  0.97840  0.18300  Biso   1.000  H
  C58      1.0000 0.75260  0.00540  0.24150  Biso   1.000  C
  C59      1.0000 0.75570  0.07480  0.23880  Biso   1.000  C
  C60      1.0000 0.77980  0.96130  0.29020  Biso   1.000  C
  H34      1.0000 0.79970  0.97480  0.33070  Biso   1.000  H
  C61      1.0000 0.95261  0.71060  0.23730  Biso   1.000  C
  H35      1.0000 0.95640  0.66360  0.23530  Biso   1.000  H
  C62      1.0000 0.96976  0.78410  0.29330  Biso   1.000  C
  H36      1.0000 0.98920  0.81290  0.32520  Biso   1.000  H
  C63      1.0000 0.00330  0.73660  0.25090  Biso   1.000  C
  N33      1.0000 0.77300  0.89810  0.27040  Biso   1.000  N
  N34      1.0000 0.72220  0.90090  0.22230  Biso   1.000  N
  N35      1.0000 0.89640  0.72980  0.22530  Biso   1.000  N
  N36      1.0000 0.89690  0.77780  0.27540  Biso   1.000  N
  O17      1.0000 0.79220  0.10580  0.27770  Biso   1.000  O
  O18      1.0000 0.72680  0.10650  0.20470  Biso   1.000  O
  Zn19     1.0000 0.19110  0.69697  0.19670  Biso   1.000  Zn
  Zn20     1.0000 0.19596  0.30794  0.19668  Biso   1.000  Zn
  C64      1.0000 0.29200  0.46380  0.29010  Biso   1.000  C
  H37      1.0000 0.32790  0.47840  0.31700  Biso   1.000  H
  C65      1.0000 0.24740  0.50540  0.25850  Biso   1.000  C
  C66      1.0000 0.24430  0.57480  0.26120  Biso   1.000  C
  C67      1.0000 0.22020  0.46130  0.20980  Biso   1.000  C
  H38      1.0000 0.20030  0.47480  0.16930  Biso   1.000  H
  C68      1.0000 0.04739  0.21060  0.26270  Biso   1.000  C
  H39      1.0000 0.04360  0.16360  0.26470  Biso   1.000  H
  C69      1.0000 0.03024  0.28410  0.20670  Biso   1.000  C
  H40      1.0000 0.01080  0.31290  0.17480  Biso   1.000  H
  C70      1.0000 0.99670  0.23660  0.24910  Biso   1.000  C
  N37      1.0000 0.22700  0.39810  0.22960  Biso   1.000  N
  N38      1.0000 0.27780  0.40090  0.27770  Biso   1.000  N
  N39      1.0000 0.10360  0.22980  0.27470  Biso   1.000  N
  N40      1.0000 0.10310  0.27780  0.22460  Biso   1.000  N
  O19      1.0000 0.20780  0.60580  0.22230  Biso   1.000  O
  O20      1.0000 0.27320  0.60650  0.29530  Biso   1.000  O
  Zn21     1.0000 0.30890  0.30303  0.69670  Biso   1.000  Zn
  Zn22     1.0000 0.30404  0.69206  0.69668  Biso   1.000  Zn
  C71      1.0000 0.20800  0.53620  0.79010  Biso   1.000  C
  H41      1.0000 0.17210  0.52160  0.81700  Biso   1.000  H
  C72      1.0000 0.25260  0.49460  0.75850  Biso   1.000  C
  C73      1.0000 0.25570  0.42520  0.76120  Biso   1.000  C
  C74      1.0000 0.27980  0.53870  0.70980  Biso   1.000  C
  H42      1.0000 0.29970  0.52520  0.66930  Biso   1.000  H
  C75      1.0000 0.45261  0.78940  0.76270  Biso   1.000  C
  H43      1.0000 0.45640  0.83640  0.76470  Biso   1.000  H
  C76      1.0000 0.46976  0.71590  0.70670  Biso   1.000  C
  H44      1.0000 0.48920  0.68710  0.67480  Biso   1.000  H
  C77      1.0000 0.50330  0.76340  0.74910  Biso   1.000  C
  N41      1.0000 0.27300  0.60190  0.72960  Biso   1.000  N
  N42      1.0000 0.22220  0.59910  0.77770  Biso   1.000  N
  N43      1.0000 0.39640  0.77020  0.77470  Biso   1.000  N
  N44      1.0000 0.39690  0.72220  0.72460  Biso   1.000  N
  O21      1.0000 0.29220  0.39420  0.72230  Biso   1.000  O
  O22      1.0000 0.22680  0.39350  0.79530  Biso   1.000  O
  Zn23     1.0000 0.69110  0.80303  0.80330  Biso   1.000  Zn
  Zn24     1.0000 0.69596  0.19206  0.80332  Biso   1.000  Zn
  C78      1.0000 0.79200  0.03620  0.70990  Biso   1.000  C
  H45      1.0000 0.82790  0.02160  0.68300  Biso   1.000  H
  C79      1.0000 0.74740  0.99460  0.74150  Biso   1.000  C
  C80      1.0000 0.74430  0.92520  0.73880  Biso   1.000  C
  C81      1.0000 0.72020  0.03870  0.79020  Biso   1.000  C
  H46      1.0000 0.70030  0.02520  0.83070  Biso   1.000  H
  C82      1.0000 0.54739  0.28940  0.73730  Biso   1.000  C
  H47      1.0000 0.54360  0.33640  0.73530  Biso   1.000  H
  C83      1.0000 0.53024  0.21590  0.79330  Biso   1.000  C
  H48      1.0000 0.51080  0.18710  0.82520  Biso   1.000  H
  C84      1.0000 0.49670  0.26340  0.75090  Biso   1.000  C
  N45      1.0000 0.72700  0.10190  0.77040  Biso   1.000  N
  N46      1.0000 0.77780  0.09910  0.72230  Biso   1.000  N
  N47      1.0000 0.60360  0.27020  0.72530  Biso   1.000  N
  N48      1.0000 0.60310  0.22220  0.77540  Biso   1.000  N
  O23      1.0000 0.70780  0.89420  0.77770  Biso   1.000  O
  O24      1.0000 0.77320  0.89350  0.70470  Biso   1.000  O
  Zn25     1.0000 0.19033  0.69033  0.80967  Biso   1.000  Zn
  O25      1.0000 0.24830  0.74830  0.75170  Biso   1.000  O
  Zn26     1.0000 0.30967  0.30967  0.30967  Biso   1.000  Zn
  O26      1.0000 0.25170  0.25170  0.25170  Biso   1.000  O
  Zn27     1.0000 0.80967  0.19033  0.69033  Biso   1.000  Zn
  O27      1.0000 0.75170  0.24830  0.74830  Biso   1.000  O
  Zn28     1.0000 0.69033  0.80967  0.19033  Biso   1.000  Zn
  O28      1.0000 0.74830  0.75170  0.24830  Biso   1.000  O
  O29      1.0000 0.24570  0.75430  0.25430  Biso   1.000  O
  O30      1.0000 0.25430  0.24570  0.75430  Biso   1.000  O
  O31      1.0000 0.75430  0.25430  0.24570  Biso   1.000  O
  O32      1.0000 0.74570  0.74570  0.74570  Biso   1.000  O
