data_image0
_cell_length_a       20.1619
_cell_length_b       20.1619
_cell_length_c       20.1619
_cell_angle_alpha    90
_cell_angle_beta     90
_cell_angle_gamma    90

_symmetry_space_group_name_H-M    "P 1"
_symmetry_int_tables_number       1

loop_
  _symmetry_equiv_pos_as_xyz
  'x, y, z'

loop_
  _atom_site_label
  _atom_site_occupancy
  _atom_site_fract_x
  _atom_site_fract_y
  _atom_site_fract_z
  _atom_site_thermal_displace_type
  _atom_site_B_iso_or_equiv
  _atom_site_type_symbol
  N1       1.0000 0.27300  0.73740  0.10780  Biso   1.000  N
  Zn1      1.0000 0.19008  0.80983  0.19582  Biso   1.000  Zn
  N2       1.0000 0.22307  0.77977  0.10224  Biso   1.000  N
  C1       1.0000 0.29290  0.72150  0.04720  Biso   1.000  C
  N3       1.0000 0.20770  0.90080  0.21970  Biso   1.000  N
  N4       1.0000 0.09860  0.79000  0.21940  Biso   1.000  N
  C2       1.0000 0.21210  0.79000  0.03830  Biso   1.000  C
  H1       1.0000 0.32800  0.69190  0.03640  Biso   1.000  H
  C3       1.0000 0.25520  0.75390  0.00420  Biso   1.000  C
  C4       1.0000 0.21000  0.95970  0.21340  Biso   1.000  C
  C5       1.0000 0.29080  0.95850  0.28930  Biso   1.000  C
  H2       1.0000 0.17900  0.81820  0.02000  Biso   1.000  H
  C6       1.0000 0.25770  0.73590  0.93270  Biso   1.000  C
  H3       1.0000 0.18640  0.98000  0.17800  Biso   1.000  H
  C7       1.0000 0.24970  0.00270  0.26030  Biso   1.000  C
  H4       1.0000 0.32990  0.97450  0.31010  Biso   1.000  H
  O1       1.0000 0.25710  0.70360  0.89110  Biso   1.000  O
  C8       1.0000 0.25060  0.08120  0.26420  Biso   1.000  C
  Zn2      1.0000 0.30404  0.69229  0.80918  Biso   1.000  Zn
  O2       1.0000 0.21795  0.10533  0.22000  Biso   1.000  O
  O3       1.0000 0.29140  0.11150  0.29200  Biso   1.000  O
  N5       1.0000 0.22700  0.26260  0.60780  Biso   1.000  N
  Zn3      1.0000 0.30992  0.19017  0.69582  Biso   1.000  Zn
  N6       1.0000 0.27693  0.22023  0.60224  Biso   1.000  N
  C9       1.0000 0.20710  0.27850  0.54720  Biso   1.000  C
  N7       1.0000 0.29230  0.09920  0.71970  Biso   1.000  N
  N8       1.0000 0.40140  0.21000  0.71940  Biso   1.000  N
  C10      1.0000 0.28790  0.21000  0.53830  Biso   1.000  C
  H5       1.0000 0.17200  0.30810  0.53640  Biso   1.000  H
  C11      1.0000 0.24480  0.24610  0.50420  Biso   1.000  C
  C12      1.0000 0.29000  0.04030  0.71340  Biso   1.000  C
  C13      1.0000 0.20920  0.04150  0.78930  Biso   1.000  C
  H6       1.0000 0.32100  0.18180  0.52000  Biso   1.000  H
  C14      1.0000 0.24230  0.26410  0.43270  Biso   1.000  C
  H7       1.0000 0.31360  0.02000  0.67800  Biso   1.000  H
  C15      1.0000 0.25030  0.99730  0.76030  Biso   1.000  C
  H8       1.0000 0.17010  0.02550  0.81010  Biso   1.000  H
  O4       1.0000 0.24290  0.29640  0.39110  Biso   1.000  O
  C16      1.0000 0.24940  0.91880  0.76420  Biso   1.000  C
  Zn4      1.0000 0.19596  0.30771  0.30918  Biso   1.000  Zn
  O5       1.0000 0.28205  0.89467  0.72000  Biso   1.000  O
  O6       1.0000 0.20860  0.88850  0.79200  Biso   1.000  O
  N9       1.0000 0.72700  0.23740  0.39220  Biso   1.000  N
  Zn5      1.0000 0.80992  0.30983  0.30418  Biso   1.000  Zn
  N10      1.0000 0.77693  0.27977  0.39776  Biso   1.000  N
  C17      1.0000 0.70710  0.22150  0.45280  Biso   1.000  C
  N11      1.0000 0.79230  0.40080  0.28030  Biso   1.000  N
  N12      1.0000 0.90140  0.29000  0.28060  Biso   1.000  N
  C18      1.0000 0.78790  0.29000  0.46170  Biso   1.000  C
  H9       1.0000 0.67200  0.19190  0.46360  Biso   1.000  H
  C19      1.0000 0.74480  0.25390  0.49580  Biso   1.000  C
  C20      1.0000 0.79000  0.45970  0.28660  Biso   1.000  C
  C21      1.0000 0.70920  0.45850  0.21070  Biso   1.000  C
  H10      1.0000 0.82100  0.31820  0.48000  Biso   1.000  H
  C22      1.0000 0.74230  0.23590  0.56730  Biso   1.000  C
  H11      1.0000 0.81360  0.48000  0.32200  Biso   1.000  H
  C23      1.0000 0.75030  0.50270  0.23970  Biso   1.000  C
  H12      1.0000 0.67010  0.47450  0.18990  Biso   1.000  H
  O7       1.0000 0.74290  0.20360  0.60890  Biso   1.000  O
  C24      1.0000 0.74940  0.58120  0.23580  Biso   1.000  C
  Zn6      1.0000 0.69596  0.19229  0.69082  Biso   1.000  Zn
  O8       1.0000 0.78205  0.60533  0.28000  Biso   1.000  O
  O9       1.0000 0.70860  0.61150  0.20800  Biso   1.000  O
  N13      1.0000 0.77300  0.76260  0.89220  Biso   1.000  N
  Zn7      1.0000 0.69008  0.69017  0.80418  Biso   1.000  Zn
  N14      1.0000 0.72307  0.72023  0.89776  Biso   1.000  N
  C25      1.0000 0.79290  0.77850  0.95280  Biso   1.000  C
  N15      1.0000 0.70770  0.59920  0.78030  Biso   1.000  N
  N16      1.0000 0.59860  0.71000  0.78060  Biso   1.000  N
  C26      1.0000 0.71210  0.71000  0.96170  Biso   1.000  C
  H13      1.0000 0.82800  0.80810  0.96360  Biso   1.000  H
  C27      1.0000 0.75520  0.74610  0.99580  Biso   1.000  C
  C28      1.0000 0.71000  0.54030  0.78660  Biso   1.000  C
  C29      1.0000 0.79080  0.54150  0.71070  Biso   1.000  C
  H14      1.0000 0.67900  0.68180  0.98000  Biso   1.000  H
  C30      1.0000 0.75770  0.76410  0.06730  Biso   1.000  C
  H15      1.0000 0.68640  0.52000  0.82200  Biso   1.000  H
  C31      1.0000 0.74970  0.49730  0.73970  Biso   1.000  C
  H16      1.0000 0.82990  0.52550  0.68990  Biso   1.000  H
  O10      1.0000 0.75710  0.79640  0.10890  Biso   1.000  O
  C32      1.0000 0.75060  0.41880  0.73580  Biso   1.000  C
  Zn8      1.0000 0.80404  0.80771  0.19082  Biso   1.000  Zn
  O11      1.0000 0.71795  0.39467  0.78000  Biso   1.000  O
  O12      1.0000 0.79140  0.38850  0.70800  Biso   1.000  O
  N17      1.0000 0.10780  0.27300  0.73740  Biso   1.000  N
  Zn9      1.0000 0.19582  0.19008  0.80983  Biso   1.000  Zn
  N18      1.0000 0.10224  0.22307  0.77977  Biso   1.000  N
  C33      1.0000 0.04720  0.29290  0.72150  Biso   1.000  C
  N19      1.0000 0.21970  0.20770  0.90080  Biso   1.000  N
  N20      1.0000 0.21940  0.09860  0.79000  Biso   1.000  N
  C34      1.0000 0.03830  0.21210  0.79000  Biso   1.000  C
  H17      1.0000 0.03640  0.32800  0.69190  Biso   1.000  H
  C35      1.0000 0.00420  0.25520  0.75390  Biso   1.000  C
  C36      1.0000 0.21340  0.21000  0.95970  Biso   1.000  C
  C37      1.0000 0.28930  0.29080  0.95850  Biso   1.000  C
  H18      1.0000 0.02000  0.17900  0.81820  Biso   1.000  H
  C38      1.0000 0.93270  0.25770  0.73590  Biso   1.000  C
  H19      1.0000 0.17800  0.18640  0.98000  Biso   1.000  H
  C39      1.0000 0.26030  0.24970  0.00270  Biso   1.000  C
  H20      1.0000 0.31010  0.32990  0.97450  Biso   1.000  H
  O13      1.0000 0.89110  0.25710  0.70360  Biso   1.000  O
  C40      1.0000 0.26420  0.25060  0.08120  Biso   1.000  C
  Zn10     1.0000 0.80918  0.30404  0.69229  Biso   1.000  Zn
  O14      1.0000 0.22000  0.21795  0.10533  Biso   1.000  O
  O15      1.0000 0.29200  0.29140  0.11150  Biso   1.000  O
  N21      1.0000 0.60780  0.22700  0.26260  Biso   1.000  N
  Zn11     1.0000 0.69582  0.30992  0.19017  Biso   1.000  Zn
  N22      1.0000 0.60224  0.27693  0.22023  Biso   1.000  N
  C41      1.0000 0.54720  0.20710  0.27850  Biso   1.000  C
  N23      1.0000 0.71970  0.29230  0.09920  Biso   1.000  N
  N24      1.0000 0.71940  0.40140  0.21000  Biso   1.000  N
  C42      1.0000 0.53830  0.28790  0.21000  Biso   1.000  C
  H21      1.0000 0.53640  0.17200  0.30810  Biso   1.000  H
  C43      1.0000 0.50420  0.24480  0.24610  Biso   1.000  C
  C44      1.0000 0.71340  0.29000  0.04030  Biso   1.000  C
  C45      1.0000 0.78930  0.20920  0.04150  Biso   1.000  C
  H22      1.0000 0.52000  0.32100  0.18180  Biso   1.000  H
  C46      1.0000 0.43270  0.24230  0.26410  Biso   1.000  C
  H23      1.0000 0.67800  0.31360  0.02000  Biso   1.000  H
  C47      1.0000 0.76030  0.25030  0.99730  Biso   1.000  C
  H24      1.0000 0.81010  0.17010  0.02550  Biso   1.000  H
  O16      1.0000 0.39110  0.24290  0.29640  Biso   1.000  O
  C48      1.0000 0.76420  0.24940  0.91880  Biso   1.000  C
  Zn12     1.0000 0.30918  0.19596  0.30771  Biso   1.000  Zn
  O17      1.0000 0.72000  0.28205  0.89467  Biso   1.000  O
  O18      1.0000 0.79200  0.20860  0.88850  Biso   1.000  O
  N25      1.0000 0.39220  0.72700  0.23740  Biso   1.000  N
  Zn13     1.0000 0.30418  0.80992  0.30983  Biso   1.000  Zn
  N26      1.0000 0.39776  0.77693  0.27977  Biso   1.000  N
  C49      1.0000 0.45280  0.70710  0.22150  Biso   1.000  C
  N27      1.0000 0.28030  0.79230  0.40080  Biso   1.000  N
  N28      1.0000 0.28060  0.90140  0.29000  Biso   1.000  N
  C50      1.0000 0.46170  0.78790  0.29000  Biso   1.000  C
  H25      1.0000 0.46360  0.67200  0.19190  Biso   1.000  H
  C51      1.0000 0.49580  0.74480  0.25390  Biso   1.000  C
  C52      1.0000 0.28660  0.79000  0.45970  Biso   1.000  C
  C53      1.0000 0.21070  0.70920  0.45850  Biso   1.000  C
  H26      1.0000 0.48000  0.82100  0.31820  Biso   1.000  H
  C54      1.0000 0.56730  0.74230  0.23590  Biso   1.000  C
  H27      1.0000 0.32200  0.81360  0.48000  Biso   1.000  H
  C55      1.0000 0.23970  0.75030  0.50270  Biso   1.000  C
  H28      1.0000 0.18990  0.67010  0.47450  Biso   1.000  H
  O19      1.0000 0.60890  0.74290  0.20360  Biso   1.000  O
  C56      1.0000 0.23580  0.74940  0.58120  Biso   1.000  C
  Zn14     1.0000 0.69082  0.69596  0.19229  Biso   1.000  Zn
  O20      1.0000 0.28000  0.78205  0.60533  Biso   1.000  O
  O21      1.0000 0.20800  0.70860  0.61150  Biso   1.000  O
  N29      1.0000 0.89220  0.77300  0.76260  Biso   1.000  N
  Zn15     1.0000 0.80418  0.69008  0.69017  Biso   1.000  Zn
  N30      1.0000 0.89776  0.72307  0.72023  Biso   1.000  N
  C57      1.0000 0.95280  0.79290  0.77850  Biso   1.000  C
  N31      1.0000 0.78030  0.70770  0.59920  Biso   1.000  N
  N32      1.0000 0.78060  0.59860  0.71000  Biso   1.000  N
  C58      1.0000 0.96170  0.71210  0.71000  Biso   1.000  C
  H29      1.0000 0.96360  0.82800  0.80810  Biso   1.000  H
  C59      1.0000 0.99580  0.75520  0.74610  Biso   1.000  C
  C60      1.0000 0.78660  0.71000  0.54030  Biso   1.000  C
  C61      1.0000 0.71070  0.79080  0.54150  Biso   1.000  C
  H30      1.0000 0.98000  0.67900  0.68180  Biso   1.000  H
  C62      1.0000 0.06730  0.75770  0.76410  Biso   1.000  C
  H31      1.0000 0.82200  0.68640  0.52000  Biso   1.000  H
  C63      1.0000 0.73970  0.74970  0.49730  Biso   1.000  C
  H32      1.0000 0.68990  0.82990  0.52550  Biso   1.000  H
  O22      1.0000 0.10890  0.75710  0.79640  Biso   1.000  O
  C64      1.0000 0.73580  0.75060  0.41880  Biso   1.000  C
  Zn16     1.0000 0.19082  0.80404  0.80771  Biso   1.000  Zn
  O23      1.0000 0.78000  0.71795  0.39467  Biso   1.000  O
  O24      1.0000 0.70800  0.79140  0.38850  Biso   1.000  O
  N33      1.0000 0.73740  0.10780  0.27300  Biso   1.000  N
  Zn17     1.0000 0.80983  0.19582  0.19008  Biso   1.000  Zn
  N34      1.0000 0.77977  0.10224  0.22307  Biso   1.000  N
  C65      1.0000 0.72150  0.04720  0.29290  Biso   1.000  C
  N35      1.0000 0.90080  0.21970  0.20770  Biso   1.000  N
  N36      1.0000 0.79000  0.21940  0.09860  Biso   1.000  N
  C66      1.0000 0.79000  0.03830  0.21210  Biso   1.000  C
  H33      1.0000 0.69190  0.03640  0.32800  Biso   1.000  H
  C67      1.0000 0.75390  0.00420  0.25520  Biso   1.000  C
  C68      1.0000 0.95970  0.21340  0.21000  Biso   1.000  C
  C69      1.0000 0.95850  0.28930  0.29080  Biso   1.000  C
  H34      1.0000 0.81820  0.02000  0.17900  Biso   1.000  H
  C70      1.0000 0.73590  0.93270  0.25770  Biso   1.000  C
  H35      1.0000 0.98000  0.17800  0.18640  Biso   1.000  H
  C71      1.0000 0.00270  0.26030  0.24970  Biso   1.000  C
  H36      1.0000 0.97450  0.31010  0.32990  Biso   1.000  H
  O25      1.0000 0.70360  0.89110  0.25710  Biso   1.000  O
  C72      1.0000 0.08120  0.26420  0.25060  Biso   1.000  C
  Zn18     1.0000 0.69229  0.80918  0.30404  Biso   1.000  Zn
  O26      1.0000 0.10533  0.22000  0.21795  Biso   1.000  O
  O27      1.0000 0.11150  0.29200  0.29140  Biso   1.000  O
  N37      1.0000 0.26260  0.60780  0.22700  Biso   1.000  N
  Zn19     1.0000 0.19017  0.69582  0.30992  Biso   1.000  Zn
  N38      1.0000 0.22023  0.60224  0.27693  Biso   1.000  N
  C73      1.0000 0.27850  0.54720  0.20710  Biso   1.000  C
  N39      1.0000 0.09920  0.71970  0.29230  Biso   1.000  N
  N40      1.0000 0.21000  0.71940  0.40140  Biso   1.000  N
  C74      1.0000 0.21000  0.53830  0.28790  Biso   1.000  C
  H37      1.0000 0.30810  0.53640  0.17200  Biso   1.000  H
  C75      1.0000 0.24610  0.50420  0.24480  Biso   1.000  C
  C76      1.0000 0.04030  0.71340  0.29000  Biso   1.000  C
  C77      1.0000 0.04150  0.78930  0.20920  Biso   1.000  C
  H38      1.0000 0.18180  0.52000  0.32100  Biso   1.000  H
  C78      1.0000 0.26410  0.43270  0.24230  Biso   1.000  C
  H39      1.0000 0.02000  0.67800  0.31360  Biso   1.000  H
  C79      1.0000 0.99730  0.76030  0.25030  Biso   1.000  C
  H40      1.0000 0.02550  0.81010  0.17010  Biso   1.000  H
  O28      1.0000 0.29640  0.39110  0.24290  Biso   1.000  O
  C80      1.0000 0.91880  0.76420  0.24940  Biso   1.000  C
  Zn20     1.0000 0.30771  0.30918  0.19596  Biso   1.000  Zn
  O29      1.0000 0.89467  0.72000  0.28205  Biso   1.000  O
  O30      1.0000 0.88850  0.79200  0.20860  Biso   1.000  O
  N41      1.0000 0.23740  0.39220  0.72700  Biso   1.000  N
  Zn21     1.0000 0.30983  0.30418  0.80992  Biso   1.000  Zn
  N42      1.0000 0.27977  0.39776  0.77693  Biso   1.000  N
  C81      1.0000 0.22150  0.45280  0.70710  Biso   1.000  C
  N43      1.0000 0.40080  0.28030  0.79230  Biso   1.000  N
  N44      1.0000 0.29000  0.28060  0.90140  Biso   1.000  N
  C82      1.0000 0.29000  0.46170  0.78790  Biso   1.000  C
  H41      1.0000 0.19190  0.46360  0.67200  Biso   1.000  H
  C83      1.0000 0.25390  0.49580  0.74480  Biso   1.000  C
  C84      1.0000 0.45970  0.28660  0.79000  Biso   1.000  C
  C85      1.0000 0.45850  0.21070  0.70920  Biso   1.000  C
  H42      1.0000 0.31820  0.48000  0.82100  Biso   1.000  H
  C86      1.0000 0.23590  0.56730  0.74230  Biso   1.000  C
  H43      1.0000 0.48000  0.32200  0.81360  Biso   1.000  H
  C87      1.0000 0.50270  0.23970  0.75030  Biso   1.000  C
  H44      1.0000 0.47450  0.18990  0.67010  Biso   1.000  H
  O31      1.0000 0.20360  0.60890  0.74290  Biso   1.000  O
  C88      1.0000 0.58120  0.23580  0.74940  Biso   1.000  C
  Zn22     1.0000 0.19229  0.69082  0.69596  Biso   1.000  Zn
  O32      1.0000 0.60533  0.28000  0.78205  Biso   1.000  O
  O33      1.0000 0.61150  0.20800  0.70860  Biso   1.000  O
  N45      1.0000 0.76260  0.89220  0.77300  Biso   1.000  N
  Zn23     1.0000 0.69017  0.80418  0.69008  Biso   1.000  Zn
  N46      1.0000 0.72023  0.89776  0.72307  Biso   1.000  N
  C89      1.0000 0.77850  0.95280  0.79290  Biso   1.000  C
  N47      1.0000 0.59920  0.78030  0.70770  Biso   1.000  N
  N48      1.0000 0.71000  0.78060  0.59860  Biso   1.000  N
  C90      1.0000 0.71000  0.96170  0.71210  Biso   1.000  C
  H45      1.0000 0.80810  0.96360  0.82800  Biso   1.000  H
  C91      1.0000 0.74610  0.99580  0.75520  Biso   1.000  C
  C92      1.0000 0.54030  0.78660  0.71000  Biso   1.000  C
  C93      1.0000 0.54150  0.71070  0.79080  Biso   1.000  C
  H46      1.0000 0.68180  0.98000  0.67900  Biso   1.000  H
  C94      1.0000 0.76410  0.06730  0.75770  Biso   1.000  C
  H47      1.0000 0.52000  0.82200  0.68640  Biso   1.000  H
  C95      1.0000 0.49730  0.73970  0.74970  Biso   1.000  C
  H48      1.0000 0.52550  0.68990  0.82990  Biso   1.000  H
  O34      1.0000 0.79640  0.10890  0.75710  Biso   1.000  O
  C96      1.0000 0.41880  0.73580  0.75060  Biso   1.000  C
  Zn24     1.0000 0.80771  0.19082  0.80404  Biso   1.000  Zn
  O35      1.0000 0.39467  0.78000  0.71795  Biso   1.000  O
  O36      1.0000 0.38850  0.70800  0.79140  Biso   1.000  O
  Zn25     1.0000 0.30080  0.69920  0.19920  Biso   1.000  Zn
  O37      1.0000 0.24486  0.75514  0.25514  Biso   1.000  O
  Zn26     1.0000 0.19920  0.30080  0.69920  Biso   1.000  Zn
  O38      1.0000 0.25514  0.24486  0.75514  Biso   1.000  O
  Zn27     1.0000 0.69920  0.19920  0.30080  Biso   1.000  Zn
  O39      1.0000 0.75514  0.25514  0.24486  Biso   1.000  O
  Zn28     1.0000 0.80080  0.80080  0.80080  Biso   1.000  Zn
  O40      1.0000 0.74486  0.74486  0.74486  Biso   1.000  O
  O41      1.0000 0.24440  0.74440  0.75560  Biso   1.000  O
  O42      1.0000 0.25560  0.25560  0.25560  Biso   1.000  O
  O43      1.0000 0.75560  0.24440  0.74440  Biso   1.000  O
  O44      1.0000 0.74440  0.75560  0.24440  Biso   1.000  O
  Zn29     1.0000 0.19662  0.19662  0.19662  Biso   1.000  Zn
  Zn30     1.0000 0.30338  0.80338  0.69662  Biso   1.000  Zn
  Zn31     1.0000 0.80338  0.69662  0.30338  Biso   1.000  Zn
  Zn32     1.0000 0.69662  0.30338  0.80338  Biso   1.000  Zn
