data_image0
_cell_length_a       7.1555
_cell_length_b       12.4238
_cell_length_c       11.7575
_cell_angle_alpha    90
_cell_angle_beta     91.782
_cell_angle_gamma    90

_symmetry_space_group_name_H-M    "P 1"
_symmetry_int_tables_number       1

loop_
  _symmetry_equiv_pos_as_xyz
  'x, y, z'

loop_
  _atom_site_label
  _atom_site_occupancy
  _atom_site_fract_x
  _atom_site_fract_y
  _atom_site_fract_z
  _atom_site_thermal_displace_type
  _atom_site_B_iso_or_equiv
  _atom_site_type_symbol
  O1       1.0000 0.53130  0.07955  0.57876  Biso   1.000  O
  C1       1.0000 0.54210  0.15726  0.65226  Biso   1.000  C
  N1       1.0000 0.56750  0.32677  0.81497  Biso   1.000  N
  C2       1.0000 0.45080  0.15355  0.75644  Biso   1.000  C
  H1       1.0000 0.37900  0.09380  0.77420  Biso   1.000  H
  C3       1.0000 0.64480  0.25154  0.63423  Biso   1.000  C
  H2       1.0000 0.70700  0.26060  0.56660  Biso   1.000  H
  C4       1.0000 0.65380  0.33004  0.71541  Biso   1.000  C
  H3       1.0000 0.72540  0.39060  0.70050  Biso   1.000  H
  C5       1.0000 0.46710  0.23741  0.83185  Biso   1.000  C
  H4       1.0000 0.40400  0.23190  0.89960  Biso   1.000  H
  Li1      1.0000 0.60300  0.05250  0.42720  Biso   1.000  Li
  O2       1.0000 0.87330  0.01156  0.40659  Biso   1.000  O
  C6       1.0000 0.01650  0.08898  0.43040  Biso   1.000  C
  H5       1.0000 0.97400  0.15950  0.40560  Biso   1.000  H
  H6       1.0000 0.12670  0.07080  0.38850  Biso   1.000  H
  C7       1.0000 0.93450  0.90788  0.44540  Biso   1.000  C
  H7       1.0000 0.04300  0.88580  0.40370  Biso   1.000  H
  H8       1.0000 0.83610  0.85550  0.43100  Biso   1.000  H
  O3       1.0000 0.46870  0.57955  0.92124  Biso   1.000  O
  C8       1.0000 0.45790  0.65726  0.84774  Biso   1.000  C
  N2       1.0000 0.43250  0.82677  0.68503  Biso   1.000  N
  C9       1.0000 0.54920  0.65355  0.74356  Biso   1.000  C
  H9       1.0000 0.62100  0.59380  0.72580  Biso   1.000  H
  C10      1.0000 0.35520  0.75154  0.86577  Biso   1.000  C
  H10      1.0000 0.29300  0.76060  0.93340  Biso   1.000  H
  C11      1.0000 0.34620  0.83004  0.78459  Biso   1.000  C
  H11      1.0000 0.27460  0.89060  0.79950  Biso   1.000  H
  C12      1.0000 0.53290  0.73741  0.66815  Biso   1.000  C
  H12      1.0000 0.59600  0.73190  0.60040  Biso   1.000  H
  Li2      1.0000 0.39700  0.55250  0.07280  Biso   1.000  Li
  O4       1.0000 0.12670  0.51156  0.09341  Biso   1.000  O
  C13      1.0000 0.98350  0.58898  0.06960  Biso   1.000  C
  H13      1.0000 0.02600  0.65950  0.09440  Biso   1.000  H
  H14      1.0000 0.87330  0.57080  0.11150  Biso   1.000  H
  C14      1.0000 0.06550  0.40788  0.05460  Biso   1.000  C
  H15      1.0000 0.95700  0.38580  0.09630  Biso   1.000  H
  H16      1.0000 0.16390  0.35550  0.06900  Biso   1.000  H
  O5       1.0000 0.46870  0.92045  0.42124  Biso   1.000  O
  C15      1.0000 0.45790  0.84274  0.34774  Biso   1.000  C
  N3       1.0000 0.43250  0.67323  0.18503  Biso   1.000  N
  C16      1.0000 0.54920  0.84645  0.24356  Biso   1.000  C
  H17      1.0000 0.62100  0.90620  0.22580  Biso   1.000  H
  C17      1.0000 0.35520  0.74846  0.36577  Biso   1.000  C
  H18      1.0000 0.29300  0.73940  0.43340  Biso   1.000  H
  C18      1.0000 0.34620  0.66996  0.28459  Biso   1.000  C
  H19      1.0000 0.27460  0.60940  0.29950  Biso   1.000  H
  C19      1.0000 0.53290  0.76259  0.16815  Biso   1.000  C
  H20      1.0000 0.59600  0.76810  0.10040  Biso   1.000  H
  Li3      1.0000 0.39700  0.94750  0.57280  Biso   1.000  Li
  O6       1.0000 0.12670  0.98844  0.59341  Biso   1.000  O
  C20      1.0000 0.98350  0.91102  0.56960  Biso   1.000  C
  H21      1.0000 0.02600  0.84050  0.59440  Biso   1.000  H
  H22      1.0000 0.87330  0.92920  0.61150  Biso   1.000  H
  C21      1.0000 0.06550  0.09212  0.55460  Biso   1.000  C
  H23      1.0000 0.95700  0.11420  0.59630  Biso   1.000  H
  H24      1.0000 0.16390  0.14450  0.56900  Biso   1.000  H
  O7       1.0000 0.53130  0.42045  0.07876  Biso   1.000  O
  C22      1.0000 0.54210  0.34274  0.15226  Biso   1.000  C
  N4       1.0000 0.56750  0.17323  0.31497  Biso   1.000  N
  C23      1.0000 0.45080  0.34645  0.25644  Biso   1.000  C
  H25      1.0000 0.37900  0.40620  0.27420  Biso   1.000  H
  C24      1.0000 0.64480  0.24846  0.13423  Biso   1.000  C
  H26      1.0000 0.70700  0.23940  0.06660  Biso   1.000  H
  C25      1.0000 0.65380  0.16996  0.21541  Biso   1.000  C
  H27      1.0000 0.72540  0.10940  0.20050  Biso   1.000  H
  C26      1.0000 0.46710  0.26259  0.33185  Biso   1.000  C
  H28      1.0000 0.40400  0.26810  0.39960  Biso   1.000  H
  Li4      1.0000 0.60300  0.44750  0.92720  Biso   1.000  Li
  O8       1.0000 0.87330  0.48844  0.90659  Biso   1.000  O
  C27      1.0000 0.01650  0.41102  0.93040  Biso   1.000  C
  H29      1.0000 0.97400  0.34050  0.90560  Biso   1.000  H
  H30      1.0000 0.12670  0.42920  0.88850  Biso   1.000  H
  C28      1.0000 0.93450  0.59212  0.94540  Biso   1.000  C
  H31      1.0000 0.04300  0.61420  0.90370  Biso   1.000  H
  H32      1.0000 0.83610  0.64450  0.93100  Biso   1.000  H
