data_image0
_cell_length_a       23.2598
_cell_length_b       19.1365
_cell_length_c       11.8928
_cell_angle_alpha    90
_cell_angle_beta     90
_cell_angle_gamma    90

_symmetry_space_group_name_H-M    "P 1"
_symmetry_int_tables_number       1

loop_
  _symmetry_equiv_pos_as_xyz
  'x, y, z'

loop_
  _atom_site_label
  _atom_site_occupancy
  _atom_site_fract_x
  _atom_site_fract_y
  _atom_site_fract_z
  _atom_site_thermal_displace_type
  _atom_site_B_iso_or_equiv
  _atom_site_type_symbol
  O1       1.0000 0.31820  0.91720  0.79080  Biso   1.000  O
  O2       1.0000 0.37420  0.84250  0.87870  Biso   1.000  O
  O3       1.0000 0.49050  0.16300  0.10440  Biso   1.000  O
  O4       1.0000 0.48380  0.83760  0.38920  Biso   1.000  O
  O5       1.0000 0.37990  0.16010  0.63310  Biso   1.000  O
  O6       1.0000 0.31870  0.08490  0.70530  Biso   1.000  O
  C1       1.0000 0.36390  0.09930  0.65280  Biso   1.000  C
  C2       1.0000 0.48740  0.85750  0.49070  Biso   1.000  C
  C3       1.0000 0.45540  0.91990  0.53100  Biso   1.000  C
  O7       1.0000 0.52450  0.17360  0.93420  Biso   1.000  O
  O8       1.0000 0.28220  0.04010  0.92270  Biso   1.000  O
  C4       1.0000 0.39950  0.03820  0.61120  Biso   1.000  C
  C5       1.0000 0.45530  0.06520  0.85030  Biso   1.000  C
  H1       1.0000 0.47390  0.09410  0.79900  Biso   1.000  H
  C6       1.0000 0.45240  0.93340  0.64640  Biso   1.000  C
  H2       1.0000 0.46950  0.90240  0.69640  Biso   1.000  H
  C7       1.0000 0.39840  0.96340  0.88960  Biso   1.000  C
  C8       1.0000 0.42470  0.99160  0.68750  Biso   1.000  C
  C9       1.0000 0.45840  0.08030  0.96470  Biso   1.000  C
  C10      1.0000 0.40290  0.97720  0.00420  Biso   1.000  C
  H3       1.0000 0.38620  0.94690  0.05590  Biso   1.000  H
  C11      1.0000 0.42490  0.00730  0.81180  Biso   1.000  C
  C12      1.0000 0.36160  0.90290  0.85030  Biso   1.000  C
  C13      1.0000 0.43190  0.03550  0.04160  Biso   1.000  C
  H4       1.0000 0.43380  0.04500  0.11810  Biso   1.000  H
  O9       1.0000 0.51990  0.82420  0.55700  Biso   1.000  O
  C14      1.0000 0.49260  0.14200  0.00320  Biso   1.000  C
  C15      1.0000 0.40300  0.02620  0.49630  Biso   1.000  C
  H5       1.0000 0.38700  0.05790  0.44600  Biso   1.000  H
  C16      1.0000 0.43060  0.96620  0.45640  Biso   1.000  C
  H6       1.0000 0.43220  0.95750  0.37950  Biso   1.000  H
  O10      1.0000 0.68180  0.41720  0.20920  Biso   1.000  O
  O11      1.0000 0.62580  0.34250  0.12130  Biso   1.000  O
  O12      1.0000 0.50950  0.66300  0.89560  Biso   1.000  O
  O13      1.0000 0.51620  0.33760  0.61080  Biso   1.000  O
  O14      1.0000 0.62010  0.66010  0.36690  Biso   1.000  O
  O15      1.0000 0.68130  0.58490  0.29470  Biso   1.000  O
  C17      1.0000 0.63610  0.59930  0.34720  Biso   1.000  C
  C18      1.0000 0.51260  0.35750  0.50930  Biso   1.000  C
  C19      1.0000 0.54460  0.41990  0.46900  Biso   1.000  C
  O16      1.0000 0.47550  0.67360  0.06580  Biso   1.000  O
  O17      1.0000 0.71780  0.54010  0.07730  Biso   1.000  O
  C20      1.0000 0.60050  0.53820  0.38880  Biso   1.000  C
  C21      1.0000 0.54470  0.56520  0.14970  Biso   1.000  C
  H7       1.0000 0.52610  0.59410  0.20100  Biso   1.000  H
  C22      1.0000 0.54760  0.43340  0.35360  Biso   1.000  C
  H8       1.0000 0.53050  0.40240  0.30360  Biso   1.000  H
  C23      1.0000 0.60160  0.46340  0.11040  Biso   1.000  C
  C24      1.0000 0.57530  0.49160  0.31250  Biso   1.000  C
  C25      1.0000 0.54160  0.58030  0.03530  Biso   1.000  C
  C26      1.0000 0.59710  0.47720  0.99580  Biso   1.000  C
  H9       1.0000 0.61380  0.44690  0.94410  Biso   1.000  H
  C27      1.0000 0.57510  0.50730  0.18820  Biso   1.000  C
  C28      1.0000 0.63840  0.40290  0.14970  Biso   1.000  C
  C29      1.0000 0.56810  0.53550  0.95840  Biso   1.000  C
  H10      1.0000 0.56620  0.54500  0.88190  Biso   1.000  H
  O18      1.0000 0.48010  0.32420  0.44300  Biso   1.000  O
  C30      1.0000 0.50740  0.64200  0.99680  Biso   1.000  C
  C31      1.0000 0.59700  0.52620  0.50370  Biso   1.000  C
  H11      1.0000 0.61300  0.55790  0.55400  Biso   1.000  H
  C32      1.0000 0.56940  0.46620  0.54360  Biso   1.000  C
  H12      1.0000 0.56780  0.45750  0.62050  Biso   1.000  H
  O19      1.0000 0.81820  0.58280  0.20920  Biso   1.000  O
  O20      1.0000 0.87420  0.65750  0.12130  Biso   1.000  O
  O21      1.0000 0.99050  0.33700  0.89560  Biso   1.000  O
  O22      1.0000 0.98380  0.66240  0.61080  Biso   1.000  O
  O23      1.0000 0.87990  0.33990  0.36690  Biso   1.000  O
  O24      1.0000 0.81870  0.41510  0.29470  Biso   1.000  O
  C33      1.0000 0.86390  0.40070  0.34720  Biso   1.000  C
  C34      1.0000 0.98740  0.64250  0.50930  Biso   1.000  C
  C35      1.0000 0.95540  0.58010  0.46900  Biso   1.000  C
  O25      1.0000 0.02450  0.32640  0.06580  Biso   1.000  O
  O26      1.0000 0.78220  0.45990  0.07730  Biso   1.000  O
  C36      1.0000 0.89950  0.46180  0.38880  Biso   1.000  C
  C37      1.0000 0.95530  0.43480  0.14970  Biso   1.000  C
  H13      1.0000 0.97390  0.40590  0.20100  Biso   1.000  H
  C38      1.0000 0.95240  0.56660  0.35360  Biso   1.000  C
  H14      1.0000 0.96950  0.59760  0.30360  Biso   1.000  H
  C39      1.0000 0.89840  0.53660  0.11040  Biso   1.000  C
  C40      1.0000 0.92470  0.50840  0.31250  Biso   1.000  C
  C41      1.0000 0.95840  0.41970  0.03530  Biso   1.000  C
  C42      1.0000 0.90290  0.52280  0.99580  Biso   1.000  C
  H15      1.0000 0.88620  0.55310  0.94410  Biso   1.000  H
  C43      1.0000 0.92490  0.49270  0.18820  Biso   1.000  C
  C44      1.0000 0.86160  0.59710  0.14970  Biso   1.000  C
  C45      1.0000 0.93190  0.46450  0.95840  Biso   1.000  C
  H16      1.0000 0.93380  0.45500  0.88190  Biso   1.000  H
  O27      1.0000 0.01990  0.67580  0.44300  Biso   1.000  O
  C46      1.0000 0.99260  0.35800  0.99680  Biso   1.000  C
  C47      1.0000 0.90300  0.47380  0.50370  Biso   1.000  C
  H17      1.0000 0.88700  0.44210  0.55400  Biso   1.000  H
  C48      1.0000 0.93060  0.53380  0.54360  Biso   1.000  C
  H18      1.0000 0.93220  0.54250  0.62050  Biso   1.000  H
  O28      1.0000 0.18180  0.08280  0.79080  Biso   1.000  O
  O29      1.0000 0.12580  0.15750  0.87870  Biso   1.000  O
  O30      1.0000 0.00950  0.83700  0.10440  Biso   1.000  O
  O31      1.0000 0.01620  0.16240  0.38920  Biso   1.000  O
  O32      1.0000 0.12010  0.83990  0.63310  Biso   1.000  O
  O33      1.0000 0.18130  0.91510  0.70530  Biso   1.000  O
  C49      1.0000 0.13610  0.90070  0.65280  Biso   1.000  C
  C50      1.0000 0.01260  0.14250  0.49070  Biso   1.000  C
  C51      1.0000 0.04460  0.08010  0.53100  Biso   1.000  C
  O34      1.0000 0.97550  0.82640  0.93420  Biso   1.000  O
  O35      1.0000 0.21780  0.95990  0.92270  Biso   1.000  O
  C52      1.0000 0.10050  0.96180  0.61120  Biso   1.000  C
  C53      1.0000 0.04470  0.93480  0.85030  Biso   1.000  C
  H19      1.0000 0.02610  0.90590  0.79900  Biso   1.000  H
  C54      1.0000 0.04760  0.06660  0.64640  Biso   1.000  C
  H20      1.0000 0.03050  0.09760  0.69640  Biso   1.000  H
  C55      1.0000 0.10160  0.03660  0.88960  Biso   1.000  C
  C56      1.0000 0.07530  0.00840  0.68750  Biso   1.000  C
  C57      1.0000 0.04160  0.91970  0.96470  Biso   1.000  C
  C58      1.0000 0.09710  0.02280  0.00420  Biso   1.000  C
  H21      1.0000 0.11380  0.05310  0.05590  Biso   1.000  H
  C59      1.0000 0.07510  0.99270  0.81180  Biso   1.000  C
  C60      1.0000 0.13840  0.09710  0.85030  Biso   1.000  C
  C61      1.0000 0.06810  0.96450  0.04160  Biso   1.000  C
  H22      1.0000 0.06620  0.95500  0.11810  Biso   1.000  H
  O36      1.0000 0.98010  0.17580  0.55700  Biso   1.000  O
  C62      1.0000 0.00740  0.85800  0.00320  Biso   1.000  C
  C63      1.0000 0.09700  0.97380  0.49630  Biso   1.000  C
  H23      1.0000 0.11300  0.94210  0.44600  Biso   1.000  H
  C64      1.0000 0.06940  0.03380  0.45640  Biso   1.000  C
  H24      1.0000 0.06780  0.04250  0.37950  Biso   1.000  H
  O37      1.0000 0.68180  0.08280  0.20920  Biso   1.000  O
  O38      1.0000 0.62580  0.15750  0.12130  Biso   1.000  O
  O39      1.0000 0.50950  0.83700  0.89560  Biso   1.000  O
  O40      1.0000 0.51620  0.16240  0.61080  Biso   1.000  O
  O41      1.0000 0.62010  0.83990  0.36690  Biso   1.000  O
  O42      1.0000 0.68130  0.91510  0.29470  Biso   1.000  O
  C65      1.0000 0.63610  0.90070  0.34720  Biso   1.000  C
  C66      1.0000 0.51260  0.14250  0.50930  Biso   1.000  C
  C67      1.0000 0.54460  0.08010  0.46900  Biso   1.000  C
  O43      1.0000 0.47550  0.82640  0.06580  Biso   1.000  O
  O44      1.0000 0.71780  0.95990  0.07730  Biso   1.000  O
  C68      1.0000 0.60050  0.96180  0.38880  Biso   1.000  C
  C69      1.0000 0.54470  0.93480  0.14970  Biso   1.000  C
  H25      1.0000 0.52610  0.90590  0.20100  Biso   1.000  H
  C70      1.0000 0.54760  0.06660  0.35360  Biso   1.000  C
  H26      1.0000 0.53050  0.09760  0.30360  Biso   1.000  H
  C71      1.0000 0.60160  0.03660  0.11040  Biso   1.000  C
  C72      1.0000 0.57530  0.00840  0.31250  Biso   1.000  C
  C73      1.0000 0.54160  0.91970  0.03530  Biso   1.000  C
  C74      1.0000 0.59710  0.02280  0.99580  Biso   1.000  C
  H27      1.0000 0.61380  0.05310  0.94410  Biso   1.000  H
  C75      1.0000 0.57510  0.99270  0.18820  Biso   1.000  C
  C76      1.0000 0.63840  0.09710  0.14970  Biso   1.000  C
  C77      1.0000 0.56810  0.96450  0.95840  Biso   1.000  C
  H28      1.0000 0.56620  0.95500  0.88190  Biso   1.000  H
  O45      1.0000 0.48010  0.17580  0.44300  Biso   1.000  O
  C78      1.0000 0.50740  0.85800  0.99680  Biso   1.000  C
  C79      1.0000 0.59700  0.97380  0.50370  Biso   1.000  C
  H29      1.0000 0.61300  0.94210  0.55400  Biso   1.000  H
  C80      1.0000 0.56940  0.03380  0.54360  Biso   1.000  C
  H30      1.0000 0.56780  0.04250  0.62050  Biso   1.000  H
  O46      1.0000 0.31820  0.58280  0.79080  Biso   1.000  O
  O47      1.0000 0.37420  0.65750  0.87870  Biso   1.000  O
  O48      1.0000 0.49050  0.33700  0.10440  Biso   1.000  O
  O49      1.0000 0.48380  0.66240  0.38920  Biso   1.000  O
  O50      1.0000 0.37990  0.33990  0.63310  Biso   1.000  O
  O51      1.0000 0.31870  0.41510  0.70530  Biso   1.000  O
  C81      1.0000 0.36390  0.40070  0.65280  Biso   1.000  C
  C82      1.0000 0.48740  0.64250  0.49070  Biso   1.000  C
  C83      1.0000 0.45540  0.58010  0.53100  Biso   1.000  C
  O52      1.0000 0.52450  0.32640  0.93420  Biso   1.000  O
  O53      1.0000 0.28220  0.45990  0.92270  Biso   1.000  O
  C84      1.0000 0.39950  0.46180  0.61120  Biso   1.000  C
  C85      1.0000 0.45530  0.43480  0.85030  Biso   1.000  C
  H31      1.0000 0.47390  0.40590  0.79900  Biso   1.000  H
  C86      1.0000 0.45240  0.56660  0.64640  Biso   1.000  C
  H32      1.0000 0.46950  0.59760  0.69640  Biso   1.000  H
  C87      1.0000 0.39840  0.53660  0.88960  Biso   1.000  C
  C88      1.0000 0.42470  0.50840  0.68750  Biso   1.000  C
  C89      1.0000 0.45840  0.41970  0.96470  Biso   1.000  C
  C90      1.0000 0.40290  0.52280  0.00420  Biso   1.000  C
  H33      1.0000 0.38620  0.55310  0.05590  Biso   1.000  H
  C91      1.0000 0.42490  0.49270  0.81180  Biso   1.000  C
  C92      1.0000 0.36160  0.59710  0.85030  Biso   1.000  C
  C93      1.0000 0.43190  0.46450  0.04160  Biso   1.000  C
  H34      1.0000 0.43380  0.45500  0.11810  Biso   1.000  H
  O54      1.0000 0.51990  0.67580  0.55700  Biso   1.000  O
  C94      1.0000 0.49260  0.35800  0.00320  Biso   1.000  C
  C95      1.0000 0.40300  0.47380  0.49630  Biso   1.000  C
  H35      1.0000 0.38700  0.44210  0.44600  Biso   1.000  H
  C96      1.0000 0.43060  0.53380  0.45640  Biso   1.000  C
  H36      1.0000 0.43220  0.54250  0.37950  Biso   1.000  H
  O55      1.0000 0.18180  0.41720  0.79080  Biso   1.000  O
  O56      1.0000 0.12580  0.34250  0.87870  Biso   1.000  O
  O57      1.0000 0.00950  0.66300  0.10440  Biso   1.000  O
  O58      1.0000 0.01620  0.33760  0.38920  Biso   1.000  O
  O59      1.0000 0.12010  0.66010  0.63310  Biso   1.000  O
  O60      1.0000 0.18130  0.58490  0.70530  Biso   1.000  O
  C97      1.0000 0.13610  0.59930  0.65280  Biso   1.000  C
  C98      1.0000 0.01260  0.35750  0.49070  Biso   1.000  C
  C99      1.0000 0.04460  0.41990  0.53100  Biso   1.000  C
  O61      1.0000 0.97550  0.67360  0.93420  Biso   1.000  O
  O62      1.0000 0.21780  0.54010  0.92270  Biso   1.000  O
  C100     1.0000 0.10050  0.53820  0.61120  Biso   1.000  C
  C101     1.0000 0.04470  0.56520  0.85030  Biso   1.000  C
  H37      1.0000 0.02610  0.59410  0.79900  Biso   1.000  H
  C102     1.0000 0.04760  0.43340  0.64640  Biso   1.000  C
  H38      1.0000 0.03050  0.40240  0.69640  Biso   1.000  H
  C103     1.0000 0.10160  0.46340  0.88960  Biso   1.000  C
  C104     1.0000 0.07530  0.49160  0.68750  Biso   1.000  C
  C105     1.0000 0.04160  0.58030  0.96470  Biso   1.000  C
  C106     1.0000 0.09710  0.47720  0.00420  Biso   1.000  C
  H39      1.0000 0.11380  0.44690  0.05590  Biso   1.000  H
  C107     1.0000 0.07510  0.50730  0.81180  Biso   1.000  C
  C108     1.0000 0.13840  0.40290  0.85030  Biso   1.000  C
  C109     1.0000 0.06810  0.53550  0.04160  Biso   1.000  C
  H40      1.0000 0.06620  0.54500  0.11810  Biso   1.000  H
  O63      1.0000 0.98010  0.32420  0.55700  Biso   1.000  O
  C110     1.0000 0.00740  0.64200  0.00320  Biso   1.000  C
  C111     1.0000 0.09700  0.52620  0.49630  Biso   1.000  C
  H41      1.0000 0.11300  0.55790  0.44600  Biso   1.000  H
  C112     1.0000 0.06940  0.46620  0.45640  Biso   1.000  C
  H42      1.0000 0.06780  0.45750  0.37950  Biso   1.000  H
  O64      1.0000 0.81820  0.91720  0.20920  Biso   1.000  O
  O65      1.0000 0.87420  0.84250  0.12130  Biso   1.000  O
  O66      1.0000 0.99050  0.16300  0.89560  Biso   1.000  O
  O67      1.0000 0.98380  0.83760  0.61080  Biso   1.000  O
  O68      1.0000 0.87990  0.16010  0.36690  Biso   1.000  O
  O69      1.0000 0.81870  0.08490  0.29470  Biso   1.000  O
  C113     1.0000 0.86390  0.09930  0.34720  Biso   1.000  C
  C114     1.0000 0.98740  0.85750  0.50930  Biso   1.000  C
  C115     1.0000 0.95540  0.91990  0.46900  Biso   1.000  C
  O70      1.0000 0.02450  0.17360  0.06580  Biso   1.000  O
  O71      1.0000 0.78220  0.04010  0.07730  Biso   1.000  O
  C116     1.0000 0.89950  0.03820  0.38880  Biso   1.000  C
  C117     1.0000 0.95530  0.06520  0.14970  Biso   1.000  C
  H43      1.0000 0.97390  0.09410  0.20100  Biso   1.000  H
  C118     1.0000 0.95240  0.93340  0.35360  Biso   1.000  C
  H44      1.0000 0.96950  0.90240  0.30360  Biso   1.000  H
  C119     1.0000 0.89840  0.96340  0.11040  Biso   1.000  C
  C120     1.0000 0.92470  0.99160  0.31250  Biso   1.000  C
  C121     1.0000 0.95840  0.08030  0.03530  Biso   1.000  C
  C122     1.0000 0.90290  0.97720  0.99580  Biso   1.000  C
  H45      1.0000 0.88620  0.94690  0.94410  Biso   1.000  H
  C123     1.0000 0.92490  0.00730  0.18820  Biso   1.000  C
  C124     1.0000 0.86160  0.90290  0.14970  Biso   1.000  C
  C125     1.0000 0.93190  0.03550  0.95840  Biso   1.000  C
  H46      1.0000 0.93380  0.04500  0.88190  Biso   1.000  H
  O72      1.0000 0.01990  0.82420  0.44300  Biso   1.000  O
  C126     1.0000 0.99260  0.14200  0.99680  Biso   1.000  C
  C127     1.0000 0.90300  0.02620  0.50370  Biso   1.000  C
  H47      1.0000 0.88700  0.05790  0.55400  Biso   1.000  H
  C128     1.0000 0.93060  0.96620  0.54360  Biso   1.000  C
  H48      1.0000 0.93220  0.95750  0.62050  Biso   1.000  H
  Tb1      1.0000 0.43956  0.25000  0.58400  Biso   1.000  Tb
  Tb2      1.0000 0.56628  0.25000  0.07226  Biso   1.000  Tb
  Tb3      1.0000 0.56044  0.75000  0.41600  Biso   1.000  Tb
  Tb4      1.0000 0.43372  0.75000  0.92774  Biso   1.000  Tb
  Tb5      1.0000 0.93956  0.25000  0.41600  Biso   1.000  Tb
  Tb6      1.0000 0.06628  0.25000  0.92774  Biso   1.000  Tb
  Tb7      1.0000 0.06044  0.75000  0.58400  Biso   1.000  Tb
  Tb8      1.0000 0.93372  0.75000  0.07226  Biso   1.000  Tb
  Tb9      1.0000 0.25000  0.00000  0.73390  Biso   1.000  Tb
  O73      1.0000 0.25000  0.00000  0.07820  Biso   1.000  O
  N1       1.0000 0.25000  0.00000  0.97720  Biso   1.000  N
  Tb10     1.0000 0.75000  0.50000  0.26610  Biso   1.000  Tb
  O74      1.0000 0.75000  0.50000  0.92180  Biso   1.000  O
  N2       1.0000 0.75000  0.50000  0.02280  Biso   1.000  N
  Tb11     1.0000 0.75000  0.00000  0.26610  Biso   1.000  Tb
  O75      1.0000 0.75000  0.00000  0.92180  Biso   1.000  O
  N3       1.0000 0.75000  0.00000  0.02280  Biso   1.000  N
  Tb12     1.0000 0.25000  0.50000  0.73390  Biso   1.000  Tb
  O76      1.0000 0.25000  0.50000  0.07820  Biso   1.000  O
  N4       1.0000 0.25000  0.50000  0.97720  Biso   1.000  N
