data_image0
_cell_length_a       50.72
_cell_length_b       50.72
_cell_length_c       15.502
_cell_angle_alpha    90
_cell_angle_beta     90
_cell_angle_gamma    120

_symmetry_space_group_name_H-M    "P 1"
_symmetry_int_tables_number       1

loop_
  _symmetry_equiv_pos_as_xyz
  'x, y, z'

loop_
  _atom_site_label
  _atom_site_occupancy
  _atom_site_fract_x
  _atom_site_fract_y
  _atom_site_fract_z
  _atom_site_thermal_displace_type
  _atom_site_B_iso_or_equiv
  _atom_site_type_symbol
  O1       1.0000 0.51047  0.07494  0.09308  Biso   1.000  O
  O2       1.0000 0.47000  0.04220  0.16605  Biso   1.000  O
  C1       1.0000 0.48970  0.06984  0.14833  Biso   1.000  C
  C2       1.0000 0.48787  0.09579  0.19334  Biso   1.000  C
  C3       1.0000 0.45968  0.09241  0.21417  Biso   1.000  C
  C4       1.0000 0.45802  0.11594  0.25498  Biso   1.000  C
  C5       1.0000 0.48417  0.14309  0.27572  Biso   1.000  C
  C6       1.0000 0.51273  0.14622  0.25413  Biso   1.000  C
  C7       1.0000 0.51439  0.12269  0.21332  Biso   1.000  C
  C8       1.0000 0.48165  0.16790  0.31947  Biso   1.000  C
  C9       1.0000 0.45505  0.16133  0.36274  Biso   1.000  C
  C10      1.0000 0.45271  0.18448  0.40355  Biso   1.000  C
  C11      1.0000 0.47694  0.21420  0.40116  Biso   1.000  C
  C12      1.0000 0.50357  0.22075  0.35782  Biso   1.000  C
  C13      1.0000 0.50591  0.19761  0.31701  Biso   1.000  C
  H1       1.0000 0.44060  0.07306  0.19980  Biso   1.000  H
  H2       1.0000 0.43775  0.11351  0.26996  Biso   1.000  H
  H3       1.0000 0.53194  0.16549  0.26824  Biso   1.000  H
  H4       1.0000 0.53466  0.12512  0.19834  Biso   1.000  H
  H5       1.0000 0.43601  0.13801  0.36467  Biso   1.000  H
  H6       1.0000 0.43356  0.17972  0.43466  Biso   1.000  H
  H7       1.0000 0.52103  0.24212  0.35603  Biso   1.000  H
  H8       1.0000 0.52505  0.20233  0.28588  Biso   1.000  H
  O3       1.0000 0.92506  0.43553  0.09308  Biso   1.000  O
  O4       1.0000 0.95780  0.42780  0.16605  Biso   1.000  O
  C14      1.0000 0.93016  0.41986  0.14833  Biso   1.000  C
  C15      1.0000 0.90421  0.39208  0.19334  Biso   1.000  C
  C16      1.0000 0.90759  0.36727  0.21417  Biso   1.000  C
  C17      1.0000 0.88406  0.34208  0.25498  Biso   1.000  C
  C18      1.0000 0.85691  0.34108  0.27572  Biso   1.000  C
  C19      1.0000 0.85378  0.36651  0.25413  Biso   1.000  C
  C20      1.0000 0.87731  0.39170  0.21332  Biso   1.000  C
  C21      1.0000 0.83210  0.31375  0.31947  Biso   1.000  C
  C22      1.0000 0.83867  0.29372  0.36274  Biso   1.000  C
  C23      1.0000 0.81552  0.26823  0.40355  Biso   1.000  C
  C24      1.0000 0.78580  0.26274  0.40116  Biso   1.000  C
  C25      1.0000 0.77925  0.28282  0.35782  Biso   1.000  C
  C26      1.0000 0.80239  0.30830  0.31701  Biso   1.000  C
  H9       1.0000 0.92694  0.36754  0.19980  Biso   1.000  H
  H10      1.0000 0.88649  0.32424  0.26996  Biso   1.000  H
  H11      1.0000 0.83451  0.36645  0.26824  Biso   1.000  H
  H12      1.0000 0.87488  0.40954  0.19834  Biso   1.000  H
  H13      1.0000 0.86199  0.29800  0.36467  Biso   1.000  H
  H14      1.0000 0.82028  0.25384  0.43466  Biso   1.000  H
  H15      1.0000 0.75788  0.27891  0.35603  Biso   1.000  H
  H16      1.0000 0.79767  0.32272  0.28588  Biso   1.000  H
  O5       1.0000 0.56447  0.48953  0.09308  Biso   1.000  O
  O6       1.0000 0.57220  0.53000  0.16605  Biso   1.000  O
  C27      1.0000 0.58014  0.51030  0.14833  Biso   1.000  C
  C28      1.0000 0.60792  0.51213  0.19334  Biso   1.000  C
  C29      1.0000 0.63273  0.54032  0.21417  Biso   1.000  C
  C30      1.0000 0.65792  0.54198  0.25498  Biso   1.000  C
  C31      1.0000 0.65892  0.51583  0.27572  Biso   1.000  C
  C32      1.0000 0.63349  0.48727  0.25413  Biso   1.000  C
  C33      1.0000 0.60830  0.48561  0.21332  Biso   1.000  C
  C34      1.0000 0.68625  0.51835  0.31947  Biso   1.000  C
  C35      1.0000 0.70628  0.54495  0.36274  Biso   1.000  C
  C36      1.0000 0.73177  0.54729  0.40355  Biso   1.000  C
  C37      1.0000 0.73726  0.52306  0.40116  Biso   1.000  C
  C38      1.0000 0.71718  0.49643  0.35782  Biso   1.000  C
  C39      1.0000 0.69170  0.49409  0.31701  Biso   1.000  C
  H17      1.0000 0.63246  0.55940  0.19980  Biso   1.000  H
  H18      1.0000 0.67576  0.56225  0.26996  Biso   1.000  H
  H19      1.0000 0.63355  0.46806  0.26824  Biso   1.000  H
  H20      1.0000 0.59046  0.46534  0.19834  Biso   1.000  H
  H21      1.0000 0.70200  0.56399  0.36467  Biso   1.000  H
  H22      1.0000 0.74616  0.56644  0.43466  Biso   1.000  H
  H23      1.0000 0.72109  0.47897  0.35603  Biso   1.000  H
  H24      1.0000 0.67728  0.47495  0.28588  Biso   1.000  H
  O7       1.0000 0.48953  0.92506  0.09308  Biso   1.000  O
  O8       1.0000 0.53000  0.95780  0.16605  Biso   1.000  O
  C40      1.0000 0.51030  0.93016  0.14833  Biso   1.000  C
  C41      1.0000 0.51213  0.90421  0.19334  Biso   1.000  C
  C42      1.0000 0.54032  0.90759  0.21417  Biso   1.000  C
  C43      1.0000 0.54198  0.88406  0.25498  Biso   1.000  C
  C44      1.0000 0.51583  0.85691  0.27572  Biso   1.000  C
  C45      1.0000 0.48727  0.85378  0.25413  Biso   1.000  C
  C46      1.0000 0.48561  0.87731  0.21332  Biso   1.000  C
  C47      1.0000 0.51835  0.83210  0.31947  Biso   1.000  C
  C48      1.0000 0.54495  0.83867  0.36274  Biso   1.000  C
  C49      1.0000 0.54729  0.81552  0.40355  Biso   1.000  C
  C50      1.0000 0.52306  0.78580  0.40116  Biso   1.000  C
  C51      1.0000 0.49643  0.77925  0.35782  Biso   1.000  C
  C52      1.0000 0.49409  0.80239  0.31701  Biso   1.000  C
  H25      1.0000 0.55940  0.92694  0.19980  Biso   1.000  H
  H26      1.0000 0.56225  0.88649  0.26996  Biso   1.000  H
  H27      1.0000 0.46806  0.83451  0.26824  Biso   1.000  H
  H28      1.0000 0.46534  0.87488  0.19834  Biso   1.000  H
  H29      1.0000 0.56399  0.86199  0.36467  Biso   1.000  H
  H30      1.0000 0.56644  0.82028  0.43466  Biso   1.000  H
  H31      1.0000 0.47897  0.75788  0.35603  Biso   1.000  H
  H32      1.0000 0.47495  0.79767  0.28588  Biso   1.000  H
  O9       1.0000 0.07494  0.56447  0.09308  Biso   1.000  O
  O10      1.0000 0.04220  0.57220  0.16605  Biso   1.000  O
  C53      1.0000 0.06984  0.58014  0.14833  Biso   1.000  C
  C54      1.0000 0.09579  0.60792  0.19334  Biso   1.000  C
  C55      1.0000 0.09241  0.63273  0.21417  Biso   1.000  C
  C56      1.0000 0.11594  0.65792  0.25498  Biso   1.000  C
  C57      1.0000 0.14309  0.65892  0.27572  Biso   1.000  C
  C58      1.0000 0.14622  0.63349  0.25413  Biso   1.000  C
  C59      1.0000 0.12269  0.60830  0.21332  Biso   1.000  C
  C60      1.0000 0.16790  0.68625  0.31947  Biso   1.000  C
  C61      1.0000 0.16133  0.70628  0.36274  Biso   1.000  C
  C62      1.0000 0.18448  0.73177  0.40355  Biso   1.000  C
  C63      1.0000 0.21420  0.73726  0.40116  Biso   1.000  C
  C64      1.0000 0.22075  0.71718  0.35782  Biso   1.000  C
  C65      1.0000 0.19761  0.69170  0.31701  Biso   1.000  C
  H33      1.0000 0.07306  0.63246  0.19980  Biso   1.000  H
  H34      1.0000 0.11351  0.67576  0.26996  Biso   1.000  H
  H35      1.0000 0.16549  0.63355  0.26824  Biso   1.000  H
  H36      1.0000 0.12512  0.59046  0.19834  Biso   1.000  H
  H37      1.0000 0.13801  0.70200  0.36467  Biso   1.000  H
  H38      1.0000 0.17972  0.74616  0.43466  Biso   1.000  H
  H39      1.0000 0.24212  0.72109  0.35603  Biso   1.000  H
  H40      1.0000 0.20233  0.67728  0.28588  Biso   1.000  H
  O11      1.0000 0.43553  0.51047  0.09308  Biso   1.000  O
  O12      1.0000 0.42780  0.47000  0.16605  Biso   1.000  O
  C66      1.0000 0.41986  0.48970  0.14833  Biso   1.000  C
  C67      1.0000 0.39208  0.48787  0.19334  Biso   1.000  C
  C68      1.0000 0.36727  0.45968  0.21417  Biso   1.000  C
  C69      1.0000 0.34208  0.45802  0.25498  Biso   1.000  C
  C70      1.0000 0.34108  0.48417  0.27572  Biso   1.000  C
  C71      1.0000 0.36651  0.51273  0.25413  Biso   1.000  C
  C72      1.0000 0.39170  0.51439  0.21332  Biso   1.000  C
  C73      1.0000 0.31375  0.48165  0.31947  Biso   1.000  C
  C74      1.0000 0.29372  0.45505  0.36274  Biso   1.000  C
  C75      1.0000 0.26823  0.45271  0.40355  Biso   1.000  C
  C76      1.0000 0.26274  0.47694  0.40116  Biso   1.000  C
  C77      1.0000 0.28282  0.50357  0.35782  Biso   1.000  C
  C78      1.0000 0.30830  0.50591  0.31701  Biso   1.000  C
  H41      1.0000 0.36754  0.44060  0.19980  Biso   1.000  H
  H42      1.0000 0.32424  0.43775  0.26996  Biso   1.000  H
  H43      1.0000 0.36645  0.53194  0.26824  Biso   1.000  H
  H44      1.0000 0.40954  0.53466  0.19834  Biso   1.000  H
  H45      1.0000 0.29800  0.43601  0.36467  Biso   1.000  H
  H46      1.0000 0.25384  0.43356  0.43466  Biso   1.000  H
  H47      1.0000 0.27891  0.52103  0.35603  Biso   1.000  H
  H48      1.0000 0.32272  0.52505  0.28588  Biso   1.000  H
  O13      1.0000 0.07494  0.51047  0.90692  Biso   1.000  O
  O14      1.0000 0.04220  0.47000  0.83395  Biso   1.000  O
  C79      1.0000 0.06984  0.48970  0.85167  Biso   1.000  C
  C80      1.0000 0.09579  0.48787  0.80666  Biso   1.000  C
  C81      1.0000 0.09241  0.45968  0.78583  Biso   1.000  C
  C82      1.0000 0.11594  0.45802  0.74502  Biso   1.000  C
  C83      1.0000 0.14309  0.48417  0.72428  Biso   1.000  C
  C84      1.0000 0.14622  0.51273  0.74587  Biso   1.000  C
  C85      1.0000 0.12269  0.51439  0.78668  Biso   1.000  C
  C86      1.0000 0.16790  0.48165  0.68053  Biso   1.000  C
  C87      1.0000 0.16133  0.45505  0.63726  Biso   1.000  C
  C88      1.0000 0.18448  0.45271  0.59645  Biso   1.000  C
  C89      1.0000 0.21420  0.47694  0.59884  Biso   1.000  C
  C90      1.0000 0.22075  0.50357  0.64218  Biso   1.000  C
  C91      1.0000 0.19761  0.50591  0.68299  Biso   1.000  C
  H49      1.0000 0.07306  0.44060  0.80020  Biso   1.000  H
  H50      1.0000 0.11351  0.43775  0.73004  Biso   1.000  H
  H51      1.0000 0.16549  0.53194  0.73176  Biso   1.000  H
  H52      1.0000 0.12512  0.53466  0.80166  Biso   1.000  H
  H53      1.0000 0.13801  0.43601  0.63533  Biso   1.000  H
  H54      1.0000 0.17972  0.43356  0.56534  Biso   1.000  H
  H55      1.0000 0.24212  0.52103  0.64397  Biso   1.000  H
  H56      1.0000 0.20233  0.52505  0.71412  Biso   1.000  H
  O15      1.0000 0.43553  0.92506  0.90692  Biso   1.000  O
  O16      1.0000 0.42780  0.95780  0.83395  Biso   1.000  O
  C92      1.0000 0.41986  0.93016  0.85167  Biso   1.000  C
  C93      1.0000 0.39208  0.90421  0.80666  Biso   1.000  C
  C94      1.0000 0.36727  0.90759  0.78583  Biso   1.000  C
  C95      1.0000 0.34208  0.88406  0.74502  Biso   1.000  C
  C96      1.0000 0.34108  0.85691  0.72428  Biso   1.000  C
  C97      1.0000 0.36651  0.85378  0.74587  Biso   1.000  C
  C98      1.0000 0.39170  0.87731  0.78668  Biso   1.000  C
  C99      1.0000 0.31375  0.83210  0.68053  Biso   1.000  C
  C100     1.0000 0.29372  0.83867  0.63726  Biso   1.000  C
  C101     1.0000 0.26823  0.81552  0.59645  Biso   1.000  C
  C102     1.0000 0.26274  0.78580  0.59884  Biso   1.000  C
  C103     1.0000 0.28282  0.77925  0.64218  Biso   1.000  C
  C104     1.0000 0.30830  0.80239  0.68299  Biso   1.000  C
  H57      1.0000 0.36754  0.92694  0.80020  Biso   1.000  H
  H58      1.0000 0.32424  0.88649  0.73004  Biso   1.000  H
  H59      1.0000 0.36645  0.83451  0.73176  Biso   1.000  H
  H60      1.0000 0.40954  0.87488  0.80166  Biso   1.000  H
  H61      1.0000 0.29800  0.86199  0.63533  Biso   1.000  H
  H62      1.0000 0.25384  0.82028  0.56534  Biso   1.000  H
  H63      1.0000 0.27891  0.75788  0.64397  Biso   1.000  H
  H64      1.0000 0.32272  0.79767  0.71412  Biso   1.000  H
  O17      1.0000 0.48953  0.56447  0.90692  Biso   1.000  O
  O18      1.0000 0.53000  0.57220  0.83395  Biso   1.000  O
  C105     1.0000 0.51030  0.58014  0.85167  Biso   1.000  C
  C106     1.0000 0.51213  0.60792  0.80666  Biso   1.000  C
  C107     1.0000 0.54032  0.63273  0.78583  Biso   1.000  C
  C108     1.0000 0.54198  0.65792  0.74502  Biso   1.000  C
  C109     1.0000 0.51583  0.65892  0.72428  Biso   1.000  C
  C110     1.0000 0.48727  0.63349  0.74587  Biso   1.000  C
  C111     1.0000 0.48561  0.60830  0.78668  Biso   1.000  C
  C112     1.0000 0.51835  0.68625  0.68053  Biso   1.000  C
  C113     1.0000 0.54495  0.70628  0.63726  Biso   1.000  C
  C114     1.0000 0.54729  0.73177  0.59645  Biso   1.000  C
  C115     1.0000 0.52306  0.73726  0.59884  Biso   1.000  C
  C116     1.0000 0.49643  0.71718  0.64218  Biso   1.000  C
  C117     1.0000 0.49409  0.69170  0.68299  Biso   1.000  C
  H65      1.0000 0.55940  0.63246  0.80020  Biso   1.000  H
  H66      1.0000 0.56225  0.67576  0.73004  Biso   1.000  H
  H67      1.0000 0.46806  0.63355  0.73176  Biso   1.000  H
  H68      1.0000 0.46534  0.59046  0.80166  Biso   1.000  H
  H69      1.0000 0.56399  0.70200  0.63533  Biso   1.000  H
  H70      1.0000 0.56644  0.74616  0.56534  Biso   1.000  H
  H71      1.0000 0.47897  0.72109  0.64397  Biso   1.000  H
  H72      1.0000 0.47495  0.67728  0.71412  Biso   1.000  H
  O19      1.0000 0.92506  0.48953  0.90692  Biso   1.000  O
  O20      1.0000 0.95780  0.53000  0.83395  Biso   1.000  O
  C118     1.0000 0.93016  0.51030  0.85167  Biso   1.000  C
  C119     1.0000 0.90421  0.51213  0.80666  Biso   1.000  C
  C120     1.0000 0.90759  0.54032  0.78583  Biso   1.000  C
  C121     1.0000 0.88406  0.54198  0.74502  Biso   1.000  C
  C122     1.0000 0.85691  0.51583  0.72428  Biso   1.000  C
  C123     1.0000 0.85378  0.48727  0.74587  Biso   1.000  C
  C124     1.0000 0.87731  0.48561  0.78668  Biso   1.000  C
  C125     1.0000 0.83210  0.51835  0.68053  Biso   1.000  C
  C126     1.0000 0.83867  0.54495  0.63726  Biso   1.000  C
  C127     1.0000 0.81552  0.54729  0.59645  Biso   1.000  C
  C128     1.0000 0.78580  0.52306  0.59884  Biso   1.000  C
  C129     1.0000 0.77925  0.49643  0.64218  Biso   1.000  C
  C130     1.0000 0.80239  0.49409  0.68299  Biso   1.000  C
  H73      1.0000 0.92694  0.55940  0.80020  Biso   1.000  H
  H74      1.0000 0.88649  0.56225  0.73004  Biso   1.000  H
  H75      1.0000 0.83451  0.46806  0.73176  Biso   1.000  H
  H76      1.0000 0.87488  0.46534  0.80166  Biso   1.000  H
  H77      1.0000 0.86199  0.56399  0.63533  Biso   1.000  H
  H78      1.0000 0.82028  0.56644  0.56534  Biso   1.000  H
  H79      1.0000 0.75788  0.47897  0.64397  Biso   1.000  H
  H80      1.0000 0.79767  0.47495  0.71412  Biso   1.000  H
  O21      1.0000 0.56447  0.07494  0.90692  Biso   1.000  O
  O22      1.0000 0.57220  0.04220  0.83395  Biso   1.000  O
  C131     1.0000 0.58014  0.06984  0.85167  Biso   1.000  C
  C132     1.0000 0.60792  0.09579  0.80666  Biso   1.000  C
  C133     1.0000 0.63273  0.09241  0.78583  Biso   1.000  C
  C134     1.0000 0.65792  0.11594  0.74502  Biso   1.000  C
  C135     1.0000 0.65892  0.14309  0.72428  Biso   1.000  C
  C136     1.0000 0.63349  0.14622  0.74587  Biso   1.000  C
  C137     1.0000 0.60830  0.12269  0.78668  Biso   1.000  C
  C138     1.0000 0.68625  0.16790  0.68053  Biso   1.000  C
  C139     1.0000 0.70628  0.16133  0.63726  Biso   1.000  C
  C140     1.0000 0.73177  0.18448  0.59645  Biso   1.000  C
  C141     1.0000 0.73726  0.21420  0.59884  Biso   1.000  C
  C142     1.0000 0.71718  0.22075  0.64218  Biso   1.000  C
  C143     1.0000 0.69170  0.19761  0.68299  Biso   1.000  C
  H81      1.0000 0.63246  0.07306  0.80020  Biso   1.000  H
  H82      1.0000 0.67576  0.11351  0.73004  Biso   1.000  H
  H83      1.0000 0.63355  0.16549  0.73176  Biso   1.000  H
  H84      1.0000 0.59046  0.12512  0.80166  Biso   1.000  H
  H85      1.0000 0.70200  0.13801  0.63533  Biso   1.000  H
  H86      1.0000 0.74616  0.17972  0.56534  Biso   1.000  H
  H87      1.0000 0.72109  0.24212  0.64397  Biso   1.000  H
  H88      1.0000 0.67728  0.20233  0.71412  Biso   1.000  H
  O23      1.0000 0.51047  0.43553  0.90692  Biso   1.000  O
  O24      1.0000 0.47000  0.42780  0.83395  Biso   1.000  O
  C144     1.0000 0.48970  0.41986  0.85167  Biso   1.000  C
  C145     1.0000 0.48787  0.39208  0.80666  Biso   1.000  C
  C146     1.0000 0.45968  0.36727  0.78583  Biso   1.000  C
  C147     1.0000 0.45802  0.34208  0.74502  Biso   1.000  C
  C148     1.0000 0.48417  0.34108  0.72428  Biso   1.000  C
  C149     1.0000 0.51273  0.36651  0.74587  Biso   1.000  C
  C150     1.0000 0.51439  0.39170  0.78668  Biso   1.000  C
  C151     1.0000 0.48165  0.31375  0.68053  Biso   1.000  C
  C152     1.0000 0.45505  0.29372  0.63726  Biso   1.000  C
  C153     1.0000 0.45271  0.26823  0.59645  Biso   1.000  C
  C154     1.0000 0.47694  0.26274  0.59884  Biso   1.000  C
  C155     1.0000 0.50357  0.28282  0.64218  Biso   1.000  C
  C156     1.0000 0.50591  0.30830  0.68299  Biso   1.000  C
  H89      1.0000 0.44060  0.36754  0.80020  Biso   1.000  H
  H90      1.0000 0.43775  0.32424  0.73004  Biso   1.000  H
  H91      1.0000 0.53194  0.36645  0.73176  Biso   1.000  H
  H92      1.0000 0.53466  0.40954  0.80166  Biso   1.000  H
  H93      1.0000 0.43601  0.29800  0.63533  Biso   1.000  H
  H94      1.0000 0.43356  0.25384  0.56534  Biso   1.000  H
  H95      1.0000 0.52103  0.27891  0.64397  Biso   1.000  H
  H96      1.0000 0.52505  0.32272  0.71412  Biso   1.000  H
  O25      1.0000 0.48953  0.92506  0.90692  Biso   1.000  O
  O26      1.0000 0.53000  0.95780  0.83395  Biso   1.000  O
  C157     1.0000 0.51030  0.93016  0.85167  Biso   1.000  C
  C158     1.0000 0.51213  0.90421  0.80666  Biso   1.000  C
  C159     1.0000 0.54032  0.90759  0.78583  Biso   1.000  C
  C160     1.0000 0.54198  0.88406  0.74502  Biso   1.000  C
  C161     1.0000 0.51583  0.85691  0.72428  Biso   1.000  C
  C162     1.0000 0.48727  0.85378  0.74587  Biso   1.000  C
  C163     1.0000 0.48561  0.87731  0.78668  Biso   1.000  C
  C164     1.0000 0.51835  0.83210  0.68053  Biso   1.000  C
  C165     1.0000 0.54495  0.83867  0.63726  Biso   1.000  C
  C166     1.0000 0.54729  0.81552  0.59645  Biso   1.000  C
  C167     1.0000 0.52306  0.78580  0.59884  Biso   1.000  C
  C168     1.0000 0.49643  0.77925  0.64218  Biso   1.000  C
  C169     1.0000 0.49409  0.80239  0.68299  Biso   1.000  C
  H97      1.0000 0.55940  0.92694  0.80020  Biso   1.000  H
  H98      1.0000 0.56225  0.88649  0.73004  Biso   1.000  H
  H99      1.0000 0.46806  0.83451  0.73176  Biso   1.000  H
  H100     1.0000 0.46534  0.87488  0.80166  Biso   1.000  H
  H101     1.0000 0.56399  0.86199  0.63533  Biso   1.000  H
  H102     1.0000 0.56644  0.82028  0.56534  Biso   1.000  H
  H103     1.0000 0.47897  0.75788  0.64397  Biso   1.000  H
  H104     1.0000 0.47495  0.79767  0.71412  Biso   1.000  H
  O27      1.0000 0.07494  0.56447  0.90692  Biso   1.000  O
  O28      1.0000 0.04220  0.57220  0.83395  Biso   1.000  O
  C170     1.0000 0.06984  0.58014  0.85167  Biso   1.000  C
  C171     1.0000 0.09579  0.60792  0.80666  Biso   1.000  C
  C172     1.0000 0.09241  0.63273  0.78583  Biso   1.000  C
  C173     1.0000 0.11594  0.65792  0.74502  Biso   1.000  C
  C174     1.0000 0.14309  0.65892  0.72428  Biso   1.000  C
  C175     1.0000 0.14622  0.63349  0.74587  Biso   1.000  C
  C176     1.0000 0.12269  0.60830  0.78668  Biso   1.000  C
  C177     1.0000 0.16790  0.68625  0.68053  Biso   1.000  C
  C178     1.0000 0.16133  0.70628  0.63726  Biso   1.000  C
  C179     1.0000 0.18448  0.73177  0.59645  Biso   1.000  C
  C180     1.0000 0.21420  0.73726  0.59884  Biso   1.000  C
  C181     1.0000 0.22075  0.71718  0.64218  Biso   1.000  C
  C182     1.0000 0.19761  0.69170  0.68299  Biso   1.000  C
  H105     1.0000 0.07306  0.63246  0.80020  Biso   1.000  H
  H106     1.0000 0.11351  0.67576  0.73004  Biso   1.000  H
  H107     1.0000 0.16549  0.63355  0.73176  Biso   1.000  H
  H108     1.0000 0.12512  0.59046  0.80166  Biso   1.000  H
  H109     1.0000 0.13801  0.70200  0.63533  Biso   1.000  H
  H110     1.0000 0.17972  0.74616  0.56534  Biso   1.000  H
  H111     1.0000 0.24212  0.72109  0.64397  Biso   1.000  H
  H112     1.0000 0.20233  0.67728  0.71412  Biso   1.000  H
  O29      1.0000 0.43553  0.51047  0.90692  Biso   1.000  O
  O30      1.0000 0.42780  0.47000  0.83395  Biso   1.000  O
  C183     1.0000 0.41986  0.48970  0.85167  Biso   1.000  C
  C184     1.0000 0.39208  0.48787  0.80666  Biso   1.000  C
  C185     1.0000 0.36727  0.45968  0.78583  Biso   1.000  C
  C186     1.0000 0.34208  0.45802  0.74502  Biso   1.000  C
  C187     1.0000 0.34108  0.48417  0.72428  Biso   1.000  C
  C188     1.0000 0.36651  0.51273  0.74587  Biso   1.000  C
  C189     1.0000 0.39170  0.51439  0.78668  Biso   1.000  C
  C190     1.0000 0.31375  0.48165  0.68053  Biso   1.000  C
  C191     1.0000 0.29372  0.45505  0.63726  Biso   1.000  C
  C192     1.0000 0.26823  0.45271  0.59645  Biso   1.000  C
  C193     1.0000 0.26274  0.47694  0.59884  Biso   1.000  C
  C194     1.0000 0.28282  0.50357  0.64218  Biso   1.000  C
  C195     1.0000 0.30830  0.50591  0.68299  Biso   1.000  C
  H113     1.0000 0.36754  0.44060  0.80020  Biso   1.000  H
  H114     1.0000 0.32424  0.43775  0.73004  Biso   1.000  H
  H115     1.0000 0.36645  0.53194  0.73176  Biso   1.000  H
  H116     1.0000 0.40954  0.53466  0.80166  Biso   1.000  H
  H117     1.0000 0.29800  0.43601  0.63533  Biso   1.000  H
  H118     1.0000 0.25384  0.43356  0.56534  Biso   1.000  H
  H119     1.0000 0.27891  0.52103  0.64397  Biso   1.000  H
  H120     1.0000 0.32272  0.52505  0.71412  Biso   1.000  H
  O31      1.0000 0.51047  0.07494  0.90692  Biso   1.000  O
  O32      1.0000 0.47000  0.04220  0.83395  Biso   1.000  O
  C196     1.0000 0.48970  0.06984  0.85167  Biso   1.000  C
  C197     1.0000 0.48787  0.09579  0.80666  Biso   1.000  C
  C198     1.0000 0.45968  0.09241  0.78583  Biso   1.000  C
  C199     1.0000 0.45802  0.11594  0.74502  Biso   1.000  C
  C200     1.0000 0.48417  0.14309  0.72428  Biso   1.000  C
  C201     1.0000 0.51273  0.14622  0.74587  Biso   1.000  C
  C202     1.0000 0.51439  0.12269  0.78668  Biso   1.000  C
  C203     1.0000 0.48165  0.16790  0.68053  Biso   1.000  C
  C204     1.0000 0.45505  0.16133  0.63726  Biso   1.000  C
  C205     1.0000 0.45271  0.18448  0.59645  Biso   1.000  C
  C206     1.0000 0.47694  0.21420  0.59884  Biso   1.000  C
  C207     1.0000 0.50357  0.22075  0.64218  Biso   1.000  C
  C208     1.0000 0.50591  0.19761  0.68299  Biso   1.000  C
  H121     1.0000 0.44060  0.07306  0.80020  Biso   1.000  H
  H122     1.0000 0.43775  0.11351  0.73004  Biso   1.000  H
  H123     1.0000 0.53194  0.16549  0.73176  Biso   1.000  H
  H124     1.0000 0.53466  0.12512  0.80166  Biso   1.000  H
  H125     1.0000 0.43601  0.13801  0.63533  Biso   1.000  H
  H126     1.0000 0.43356  0.17972  0.56534  Biso   1.000  H
  H127     1.0000 0.52103  0.24212  0.64397  Biso   1.000  H
  H128     1.0000 0.52505  0.20233  0.71412  Biso   1.000  H
  O33      1.0000 0.92506  0.43553  0.90692  Biso   1.000  O
  O34      1.0000 0.95780  0.42780  0.83395  Biso   1.000  O
  C209     1.0000 0.93016  0.41986  0.85167  Biso   1.000  C
  C210     1.0000 0.90421  0.39208  0.80666  Biso   1.000  C
  C211     1.0000 0.90759  0.36727  0.78583  Biso   1.000  C
  C212     1.0000 0.88406  0.34208  0.74502  Biso   1.000  C
  C213     1.0000 0.85691  0.34108  0.72428  Biso   1.000  C
  C214     1.0000 0.85378  0.36651  0.74587  Biso   1.000  C
  C215     1.0000 0.87731  0.39170  0.78668  Biso   1.000  C
  C216     1.0000 0.83210  0.31375  0.68053  Biso   1.000  C
  C217     1.0000 0.83867  0.29372  0.63726  Biso   1.000  C
  C218     1.0000 0.81552  0.26823  0.59645  Biso   1.000  C
  C219     1.0000 0.78580  0.26274  0.59884  Biso   1.000  C
  C220     1.0000 0.77925  0.28282  0.64218  Biso   1.000  C
  C221     1.0000 0.80239  0.30830  0.68299  Biso   1.000  C
  H129     1.0000 0.92694  0.36754  0.80020  Biso   1.000  H
  H130     1.0000 0.88649  0.32424  0.73004  Biso   1.000  H
  H131     1.0000 0.83451  0.36645  0.73176  Biso   1.000  H
  H132     1.0000 0.87488  0.40954  0.80166  Biso   1.000  H
  H133     1.0000 0.86199  0.29800  0.63533  Biso   1.000  H
  H134     1.0000 0.82028  0.25384  0.56534  Biso   1.000  H
  H135     1.0000 0.75788  0.27891  0.64397  Biso   1.000  H
  H136     1.0000 0.79767  0.32272  0.71412  Biso   1.000  H
  O35      1.0000 0.56447  0.48953  0.90692  Biso   1.000  O
  O36      1.0000 0.57220  0.53000  0.83395  Biso   1.000  O
  C222     1.0000 0.58014  0.51030  0.85167  Biso   1.000  C
  C223     1.0000 0.60792  0.51213  0.80666  Biso   1.000  C
  C224     1.0000 0.63273  0.54032  0.78583  Biso   1.000  C
  C225     1.0000 0.65792  0.54198  0.74502  Biso   1.000  C
  C226     1.0000 0.65892  0.51583  0.72428  Biso   1.000  C
  C227     1.0000 0.63349  0.48727  0.74587  Biso   1.000  C
  C228     1.0000 0.60830  0.48561  0.78668  Biso   1.000  C
  C229     1.0000 0.68625  0.51835  0.68053  Biso   1.000  C
  C230     1.0000 0.70628  0.54495  0.63726  Biso   1.000  C
  C231     1.0000 0.73177  0.54729  0.59645  Biso   1.000  C
  C232     1.0000 0.73726  0.52306  0.59884  Biso   1.000  C
  C233     1.0000 0.71718  0.49643  0.64218  Biso   1.000  C
  C234     1.0000 0.69170  0.49409  0.68299  Biso   1.000  C
  H137     1.0000 0.63246  0.55940  0.80020  Biso   1.000  H
  H138     1.0000 0.67576  0.56225  0.73004  Biso   1.000  H
  H139     1.0000 0.63355  0.46806  0.73176  Biso   1.000  H
  H140     1.0000 0.59046  0.46534  0.80166  Biso   1.000  H
  H141     1.0000 0.70200  0.56399  0.63533  Biso   1.000  H
  H142     1.0000 0.74616  0.56644  0.56534  Biso   1.000  H
  H143     1.0000 0.72109  0.47897  0.64397  Biso   1.000  H
  H144     1.0000 0.67728  0.47495  0.71412  Biso   1.000  H
  O37      1.0000 0.92506  0.48953  0.09308  Biso   1.000  O
  O38      1.0000 0.95780  0.53000  0.16605  Biso   1.000  O
  C235     1.0000 0.93016  0.51030  0.14833  Biso   1.000  C
  C236     1.0000 0.90421  0.51213  0.19334  Biso   1.000  C
  C237     1.0000 0.90759  0.54032  0.21417  Biso   1.000  C
  C238     1.0000 0.88406  0.54198  0.25498  Biso   1.000  C
  C239     1.0000 0.85691  0.51583  0.27572  Biso   1.000  C
  C240     1.0000 0.85378  0.48727  0.25413  Biso   1.000  C
  C241     1.0000 0.87731  0.48561  0.21332  Biso   1.000  C
  C242     1.0000 0.83210  0.51835  0.31947  Biso   1.000  C
  C243     1.0000 0.83867  0.54495  0.36274  Biso   1.000  C
  C244     1.0000 0.81552  0.54729  0.40355  Biso   1.000  C
  C245     1.0000 0.78580  0.52306  0.40116  Biso   1.000  C
  C246     1.0000 0.77925  0.49643  0.35782  Biso   1.000  C
  C247     1.0000 0.80239  0.49409  0.31701  Biso   1.000  C
  H145     1.0000 0.92694  0.55940  0.19980  Biso   1.000  H
  H146     1.0000 0.88649  0.56225  0.26996  Biso   1.000  H
  H147     1.0000 0.83451  0.46806  0.26824  Biso   1.000  H
  H148     1.0000 0.87488  0.46534  0.19834  Biso   1.000  H
  H149     1.0000 0.86199  0.56399  0.36467  Biso   1.000  H
  H150     1.0000 0.82028  0.56644  0.43466  Biso   1.000  H
  H151     1.0000 0.75788  0.47897  0.35603  Biso   1.000  H
  H152     1.0000 0.79767  0.47495  0.28588  Biso   1.000  H
  O39      1.0000 0.56447  0.07494  0.09308  Biso   1.000  O
  O40      1.0000 0.57220  0.04220  0.16605  Biso   1.000  O
  C248     1.0000 0.58014  0.06984  0.14833  Biso   1.000  C
  C249     1.0000 0.60792  0.09579  0.19334  Biso   1.000  C
  C250     1.0000 0.63273  0.09241  0.21417  Biso   1.000  C
  C251     1.0000 0.65792  0.11594  0.25498  Biso   1.000  C
  C252     1.0000 0.65892  0.14309  0.27572  Biso   1.000  C
  C253     1.0000 0.63349  0.14622  0.25413  Biso   1.000  C
  C254     1.0000 0.60830  0.12269  0.21332  Biso   1.000  C
  C255     1.0000 0.68625  0.16790  0.31947  Biso   1.000  C
  C256     1.0000 0.70628  0.16133  0.36274  Biso   1.000  C
  C257     1.0000 0.73177  0.18448  0.40355  Biso   1.000  C
  C258     1.0000 0.73726  0.21420  0.40116  Biso   1.000  C
  C259     1.0000 0.71718  0.22075  0.35782  Biso   1.000  C
  C260     1.0000 0.69170  0.19761  0.31701  Biso   1.000  C
  H153     1.0000 0.63246  0.07306  0.19980  Biso   1.000  H
  H154     1.0000 0.67576  0.11351  0.26996  Biso   1.000  H
  H155     1.0000 0.63355  0.16549  0.26824  Biso   1.000  H
  H156     1.0000 0.59046  0.12512  0.19834  Biso   1.000  H
  H157     1.0000 0.70200  0.13801  0.36467  Biso   1.000  H
  H158     1.0000 0.74616  0.17972  0.43466  Biso   1.000  H
  H159     1.0000 0.72109  0.24212  0.35603  Biso   1.000  H
  H160     1.0000 0.67728  0.20233  0.28588  Biso   1.000  H
  O41      1.0000 0.51047  0.43553  0.09308  Biso   1.000  O
  O42      1.0000 0.47000  0.42780  0.16605  Biso   1.000  O
  C261     1.0000 0.48970  0.41986  0.14833  Biso   1.000  C
  C262     1.0000 0.48787  0.39208  0.19334  Biso   1.000  C
  C263     1.0000 0.45968  0.36727  0.21417  Biso   1.000  C
  C264     1.0000 0.45802  0.34208  0.25498  Biso   1.000  C
  C265     1.0000 0.48417  0.34108  0.27572  Biso   1.000  C
  C266     1.0000 0.51273  0.36651  0.25413  Biso   1.000  C
  C267     1.0000 0.51439  0.39170  0.21332  Biso   1.000  C
  C268     1.0000 0.48165  0.31375  0.31947  Biso   1.000  C
  C269     1.0000 0.45505  0.29372  0.36274  Biso   1.000  C
  C270     1.0000 0.45271  0.26823  0.40355  Biso   1.000  C
  C271     1.0000 0.47694  0.26274  0.40116  Biso   1.000  C
  C272     1.0000 0.50357  0.28282  0.35782  Biso   1.000  C
  C273     1.0000 0.50591  0.30830  0.31701  Biso   1.000  C
  H161     1.0000 0.44060  0.36754  0.19980  Biso   1.000  H
  H162     1.0000 0.43775  0.32424  0.26996  Biso   1.000  H
  H163     1.0000 0.53194  0.36645  0.26824  Biso   1.000  H
  H164     1.0000 0.53466  0.40954  0.19834  Biso   1.000  H
  H165     1.0000 0.43601  0.29800  0.36467  Biso   1.000  H
  H166     1.0000 0.43356  0.25384  0.43466  Biso   1.000  H
  H167     1.0000 0.52103  0.27891  0.35603  Biso   1.000  H
  H168     1.0000 0.52505  0.32272  0.28588  Biso   1.000  H
  O43      1.0000 0.07494  0.51047  0.09308  Biso   1.000  O
  O44      1.0000 0.04220  0.47000  0.16605  Biso   1.000  O
  C274     1.0000 0.06984  0.48970  0.14833  Biso   1.000  C
  C275     1.0000 0.09579  0.48787  0.19334  Biso   1.000  C
  C276     1.0000 0.09241  0.45968  0.21417  Biso   1.000  C
  C277     1.0000 0.11594  0.45802  0.25498  Biso   1.000  C
  C278     1.0000 0.14309  0.48417  0.27572  Biso   1.000  C
  C279     1.0000 0.14622  0.51273  0.25413  Biso   1.000  C
  C280     1.0000 0.12269  0.51439  0.21332  Biso   1.000  C
  C281     1.0000 0.16790  0.48165  0.31947  Biso   1.000  C
  C282     1.0000 0.16133  0.45505  0.36274  Biso   1.000  C
  C283     1.0000 0.18448  0.45271  0.40355  Biso   1.000  C
  C284     1.0000 0.21420  0.47694  0.40116  Biso   1.000  C
  C285     1.0000 0.22075  0.50357  0.35782  Biso   1.000  C
  C286     1.0000 0.19761  0.50591  0.31701  Biso   1.000  C
  H169     1.0000 0.07306  0.44060  0.19980  Biso   1.000  H
  H170     1.0000 0.11351  0.43775  0.26996  Biso   1.000  H
  H171     1.0000 0.16549  0.53194  0.26824  Biso   1.000  H
  H172     1.0000 0.12512  0.53466  0.19834  Biso   1.000  H
  H173     1.0000 0.13801  0.43601  0.36467  Biso   1.000  H
  H174     1.0000 0.17972  0.43356  0.43466  Biso   1.000  H
  H175     1.0000 0.24212  0.52103  0.35603  Biso   1.000  H
  H176     1.0000 0.20233  0.52505  0.28588  Biso   1.000  H
  O45      1.0000 0.43553  0.92506  0.09308  Biso   1.000  O
  O46      1.0000 0.42780  0.95780  0.16605  Biso   1.000  O
  C287     1.0000 0.41986  0.93016  0.14833  Biso   1.000  C
  C288     1.0000 0.39208  0.90421  0.19334  Biso   1.000  C
  C289     1.0000 0.36727  0.90759  0.21417  Biso   1.000  C
  C290     1.0000 0.34208  0.88406  0.25498  Biso   1.000  C
  C291     1.0000 0.34108  0.85691  0.27572  Biso   1.000  C
  C292     1.0000 0.36651  0.85378  0.25413  Biso   1.000  C
  C293     1.0000 0.39170  0.87731  0.21332  Biso   1.000  C
  C294     1.0000 0.31375  0.83210  0.31947  Biso   1.000  C
  C295     1.0000 0.29372  0.83867  0.36274  Biso   1.000  C
  C296     1.0000 0.26823  0.81552  0.40355  Biso   1.000  C
  C297     1.0000 0.26274  0.78580  0.40116  Biso   1.000  C
  C298     1.0000 0.28282  0.77925  0.35782  Biso   1.000  C
  C299     1.0000 0.30830  0.80239  0.31701  Biso   1.000  C
  H177     1.0000 0.36754  0.92694  0.19980  Biso   1.000  H
  H178     1.0000 0.32424  0.88649  0.26996  Biso   1.000  H
  H179     1.0000 0.36645  0.83451  0.26824  Biso   1.000  H
  H180     1.0000 0.40954  0.87488  0.19834  Biso   1.000  H
  H181     1.0000 0.29800  0.86199  0.36467  Biso   1.000  H
  H182     1.0000 0.25384  0.82028  0.43466  Biso   1.000  H
  H183     1.0000 0.27891  0.75788  0.35603  Biso   1.000  H
  H184     1.0000 0.32272  0.79767  0.28588  Biso   1.000  H
  O47      1.0000 0.48953  0.56447  0.09308  Biso   1.000  O
  O48      1.0000 0.53000  0.57220  0.16605  Biso   1.000  O
  C300     1.0000 0.51030  0.58014  0.14833  Biso   1.000  C
  C301     1.0000 0.51213  0.60792  0.19334  Biso   1.000  C
  C302     1.0000 0.54032  0.63273  0.21417  Biso   1.000  C
  C303     1.0000 0.54198  0.65792  0.25498  Biso   1.000  C
  C304     1.0000 0.51583  0.65892  0.27572  Biso   1.000  C
  C305     1.0000 0.48727  0.63349  0.25413  Biso   1.000  C
  C306     1.0000 0.48561  0.60830  0.21332  Biso   1.000  C
  C307     1.0000 0.51835  0.68625  0.31947  Biso   1.000  C
  C308     1.0000 0.54495  0.70628  0.36274  Biso   1.000  C
  C309     1.0000 0.54729  0.73177  0.40355  Biso   1.000  C
  C310     1.0000 0.52306  0.73726  0.40116  Biso   1.000  C
  C311     1.0000 0.49643  0.71718  0.35782  Biso   1.000  C
  C312     1.0000 0.49409  0.69170  0.31701  Biso   1.000  C
  H185     1.0000 0.55940  0.63246  0.19980  Biso   1.000  H
  H186     1.0000 0.56225  0.67576  0.26996  Biso   1.000  H
  H187     1.0000 0.46806  0.63355  0.26824  Biso   1.000  H
  H188     1.0000 0.46534  0.59046  0.19834  Biso   1.000  H
  H189     1.0000 0.56399  0.70200  0.36467  Biso   1.000  H
  H190     1.0000 0.56644  0.74616  0.43466  Biso   1.000  H
  H191     1.0000 0.47897  0.72109  0.35603  Biso   1.000  H
  H192     1.0000 0.47495  0.67728  0.28588  Biso   1.000  H
  Zr1      1.0000 0.46539  0.00000  0.11538  Biso   1.000  Zr
  Zr2      1.0000 0.00000  0.46539  0.11538  Biso   1.000  Zr
  Zr3      1.0000 0.53461  0.53461  0.11538  Biso   1.000  Zr
  Zr4      1.0000 0.53461  0.00000  0.11538  Biso   1.000  Zr
  Zr5      1.0000 0.00000  0.53461  0.11538  Biso   1.000  Zr
  Zr6      1.0000 0.46539  0.46539  0.11538  Biso   1.000  Zr
  Zr7      1.0000 0.00000  0.46539  0.88462  Biso   1.000  Zr
  Zr8      1.0000 0.46539  0.00000  0.88462  Biso   1.000  Zr
  Zr9      1.0000 0.53461  0.53461  0.88462  Biso   1.000  Zr
  Zr10     1.0000 0.00000  0.53461  0.88462  Biso   1.000  Zr
  Zr11     1.0000 0.53461  0.00000  0.88462  Biso   1.000  Zr
  Zr12     1.0000 0.46539  0.46539  0.88462  Biso   1.000  Zr
  Zr13     1.0000 0.52742  0.05484  0.00000  Biso   1.000  Zr
  Zr14     1.0000 0.94516  0.47258  0.00000  Biso   1.000  Zr
  Zr15     1.0000 0.52742  0.47258  0.00000  Biso   1.000  Zr
  Zr16     1.0000 0.47258  0.94516  0.00000  Biso   1.000  Zr
  Zr17     1.0000 0.05484  0.52742  0.00000  Biso   1.000  Zr
  Zr18     1.0000 0.47258  0.52742  0.00000  Biso   1.000  Zr
  O49      1.0000 0.51512  0.03024  0.12322  Biso   1.000  O
  O50      1.0000 0.96976  0.48488  0.12322  Biso   1.000  O
  O51      1.0000 0.51512  0.48488  0.12322  Biso   1.000  O
  O52      1.0000 0.48488  0.96976  0.12322  Biso   1.000  O
  O53      1.0000 0.03024  0.51512  0.12322  Biso   1.000  O
  O54      1.0000 0.48488  0.51512  0.12322  Biso   1.000  O
  O55      1.0000 0.03024  0.51512  0.87678  Biso   1.000  O
  O56      1.0000 0.48488  0.96976  0.87678  Biso   1.000  O
  O57      1.0000 0.48488  0.51512  0.87678  Biso   1.000  O
  O58      1.0000 0.96976  0.48488  0.87678  Biso   1.000  O
  O59      1.0000 0.51512  0.03024  0.87678  Biso   1.000  O
  O60      1.0000 0.51512  0.48488  0.87678  Biso   1.000  O
  O61      1.0000 0.47787  0.02895  0.00000  Biso   1.000  O
  O62      1.0000 0.97105  0.44892  0.00000  Biso   1.000  O
  O63      1.0000 0.55108  0.52213  0.00000  Biso   1.000  O
  O64      1.0000 0.52213  0.97105  0.00000  Biso   1.000  O
  O65      1.0000 0.02895  0.55108  0.00000  Biso   1.000  O
  O66      1.0000 0.44892  0.47787  0.00000  Biso   1.000  O
  O67      1.0000 0.02895  0.47787  0.00000  Biso   1.000  O
  O68      1.0000 0.44892  0.97105  0.00000  Biso   1.000  O
  O69      1.0000 0.52213  0.55108  0.00000  Biso   1.000  O
  O70      1.0000 0.97105  0.52213  0.00000  Biso   1.000  O
  O71      1.0000 0.55108  0.02895  0.00000  Biso   1.000  O
  O72      1.0000 0.47787  0.44892  0.00000  Biso   1.000  O
  C313     1.0000 0.47882  0.23941  0.45645  Biso   1.000  C
  C314     1.0000 0.76059  0.23941  0.45645  Biso   1.000  C
  C315     1.0000 0.76059  0.52118  0.45645  Biso   1.000  C
  C316     1.0000 0.52118  0.76059  0.45645  Biso   1.000  C
  C317     1.0000 0.23941  0.76059  0.45645  Biso   1.000  C
  C318     1.0000 0.23941  0.47882  0.45645  Biso   1.000  C
  C319     1.0000 0.23941  0.47882  0.54355  Biso   1.000  C
  C320     1.0000 0.23941  0.76059  0.54355  Biso   1.000  C
  C321     1.0000 0.52118  0.76059  0.54355  Biso   1.000  C
  C322     1.0000 0.76059  0.52118  0.54355  Biso   1.000  C
  C323     1.0000 0.76059  0.23941  0.54355  Biso   1.000  C
  C324     1.0000 0.47882  0.23941  0.54355  Biso   1.000  C
