data_image0
_cell_length_a       15.764
_cell_length_b       15.764
_cell_length_c       16.918
_cell_angle_alpha    90
_cell_angle_beta     90
_cell_angle_gamma    120

_symmetry_space_group_name_H-M    "P 1"
_symmetry_int_tables_number       1

loop_
  _symmetry_equiv_pos_as_xyz
  'x, y, z'

loop_
  _atom_site_label
  _atom_site_occupancy
  _atom_site_fract_x
  _atom_site_fract_y
  _atom_site_fract_z
  _atom_site_thermal_displace_type
  _atom_site_B_iso_or_equiv
  _atom_site_type_symbol
  Cu1      1.0000 0.16724  0.80622  0.21613  Biso   1.000  Cu
  Cu2      1.0000 0.84722  0.69451  0.55010  Biso   1.000  Cu
  Cu3      1.0000 0.52723  0.49964  0.21141  Biso   1.000  Cu
  O1       1.0000 0.29380  0.10150  0.99140  Biso   1.000  O
  O2       1.0000 0.45780  0.18090  0.98800  Biso   1.000  O
  O3       1.0000 0.81490  0.87370  0.98420  Biso   1.000  O
  O4       1.0000 0.65330  0.79670  0.99010  Biso   1.000  O
  O5       1.0000 0.88210  0.67800  0.44070  Biso   1.000  O
  O6       1.0000 0.80070  0.51180  0.44790  Biso   1.000  O
  O7       1.0000 0.48630  0.63170  0.31370  Biso   1.000  O
  O8       1.0000 0.56520  0.54670  0.31940  Biso   1.000  O
  O9       1.0000 0.48380  0.45490  0.10290  Biso   1.000  O
  O10      1.0000 0.40280  0.53320  0.10650  Biso   1.000  O
  O11      1.0000 0.24070  0.37050  0.43960  Biso   1.000  O
  O12      1.0000 0.15800  0.20520  0.44110  Biso   1.000  O
  N1       1.0000 0.29100  0.92710  0.17690  Biso   1.000  N
  N2       1.0000 0.30970  0.27720  0.91900  Biso   1.000  N
  N3       1.0000 0.72860  0.70360  0.51040  Biso   1.000  N
  N4       1.0000 0.64990  0.62160  0.17330  Biso   1.000  N
  N5       1.0000 0.40830  0.37670  0.24850  Biso   1.000  N
  N6       1.0000 0.04390  0.68030  0.25390  Biso   1.000  N
  C1       1.0000 0.37750  0.95470  0.21180  Biso   1.000  C
  H1       1.0000 0.37780  0.91960  0.25740  Biso   1.000  H
  C2       1.0000 0.46260  0.02770  0.18700  Biso   1.000  C
  H2       1.0000 0.52240  0.03950  0.21020  Biso   1.000  H
  C3       1.0000 0.46200  0.08510  0.12770  Biso   1.000  C
  H3       1.0000 0.52140  0.14200  0.11310  Biso   1.000  H
  C4       1.0000 0.37940  0.06330  0.08930  Biso   1.000  C
  C5       1.0000 0.29160  0.98100  0.11680  Biso   1.000  C
  H4       1.0000 0.23150  0.96420  0.09120  Biso   1.000  H
  C6       1.0000 0.01730  0.59590  0.21440  Biso   1.000  C
  H5       1.0000 0.05490  0.59620  0.17030  Biso   1.000  H
  C7       1.0000 0.93540  0.50860  0.23780  Biso   1.000  C
  H6       1.0000 0.91520  0.45050  0.20800  Biso   1.000  H
  C8       1.0000 0.88460  0.50660  0.30280  Biso   1.000  C
  H7       1.0000 0.83080  0.44640  0.32040  Biso   1.000  H
  C9       1.0000 0.91050  0.59060  0.34320  Biso   1.000  C
  C10      1.0000 0.99090  0.67720  0.31520  Biso   1.000  C
  H8       1.0000 0.00800  0.73680  0.34170  Biso   1.000  H
  C11      1.0000 0.85850  0.59140  0.41800  Biso   1.000  C
  C12      1.0000 0.67480  0.65420  0.44890  Biso   1.000  C
  H9       1.0000 0.68790  0.60770  0.42450  Biso   1.000  H
  C13      1.0000 0.60020  0.66660  0.41820  Biso   1.000  C
  C14      1.0000 0.58240  0.73460  0.45190  Biso   1.000  C
  H10      1.0000 0.53170  0.74500  0.43250  Biso   1.000  H
  C15      1.0000 0.63980  0.78830  0.51530  Biso   1.000  C
  H11      1.0000 0.62750  0.83500  0.54030  Biso   1.000  H
  C16      1.0000 0.71350  0.77510  0.54190  Biso   1.000  C
  H12      1.0000 0.75500  0.81570  0.58300  Biso   1.000  H
  C17      1.0000 0.54290  0.60940  0.34540  Biso   1.000  C
  C18      1.0000 0.65200  0.67580  0.11290  Biso   1.000  C
  H13      1.0000 0.59260  0.65640  0.08520  Biso   1.000  H
  C19      1.0000 0.73680  0.76030  0.08750  Biso   1.000  C
  C20      1.0000 0.82200  0.78660  0.12770  Biso   1.000  C
  H14      1.0000 0.88160  0.84190  0.11110  Biso   1.000  H
  C21      1.0000 0.82120  0.73210  0.19290  Biso   1.000  C
  H15      1.0000 0.87940  0.75080  0.22210  Biso   1.000  H
  C22      1.0000 0.73460  0.65080  0.21420  Biso   1.000  C
  H16      1.0000 0.73380  0.61380  0.25880  Biso   1.000  H
  C23      1.0000 0.42120  0.47120  0.07730  Biso   1.000  C
  C24      1.0000 0.36220  0.41560  0.00470  Biso   1.000  C
  C25      1.0000 0.30710  0.44630  0.96160  Biso   1.000  C
  H17      1.0000 0.30720  0.50470  0.97570  Biso   1.000  H
  C26      1.0000 0.25170  0.39010  0.89740  Biso   1.000  C
  H18      1.0000 0.21370  0.40920  0.86650  Biso   1.000  H
  C27      1.0000 0.25440  0.30700  0.88090  Biso   1.000  C
  H19      1.0000 0.21410  0.26690  0.83910  Biso   1.000  H
  C28      1.0000 0.36070  0.33000  0.98170  Biso   1.000  C
  H20      1.0000 0.39720  0.30820  0.01170  Biso   1.000  H
  C29      1.0000 0.38420  0.28550  0.21800  Biso   1.000  C
  H21      1.0000 0.42230  0.28460  0.17480  Biso   1.000  H
  C30      1.0000 0.31430  0.20080  0.24310  Biso   1.000  C
  H22      1.0000 0.30340  0.14180  0.21880  Biso   1.000  H
  C31      1.0000 0.25540  0.19820  0.30670  Biso   1.000  C
  H23      1.0000 0.20270  0.13750  0.32460  Biso   1.000  H
  C32      1.0000 0.27410  0.28090  0.34120  Biso   1.000  C
  C33      1.0000 0.35240  0.37330  0.31050  Biso   1.000  C
  H24      1.0000 0.36460  0.43280  0.33470  Biso   1.000  H
  C34      1.0000 0.21990  0.28450  0.41310  Biso   1.000  C
  C35      1.0000 0.73770  0.81610  0.01480  Biso   1.000  C
  C36      1.0000 0.37830  0.12300  0.01690  Biso   1.000  C
  Cu4      1.0000 0.19378  0.36102  0.54946  Biso   1.000  Cu
  Cu5      1.0000 0.30549  0.15271  0.88343  Biso   1.000  Cu
  Cu6      1.0000 0.50036  0.02759  0.54474  Biso   1.000  Cu
  O13      1.0000 0.89850  0.19230  0.32473  Biso   1.000  O
  O14      1.0000 0.81910  0.27690  0.32133  Biso   1.000  O
  O15      1.0000 0.12630  0.94120  0.31753  Biso   1.000  O
  O16      1.0000 0.20330  0.85660  0.32343  Biso   1.000  O
  O17      1.0000 0.32200  0.20410  0.77403  Biso   1.000  O
  O18      1.0000 0.48820  0.28890  0.78123  Biso   1.000  O
  O19      1.0000 0.36830  0.85460  0.64703  Biso   1.000  O
  O20      1.0000 0.45330  0.01850  0.65273  Biso   1.000  O
  O21      1.0000 0.54510  0.02890  0.43623  Biso   1.000  O
  O22      1.0000 0.46680  0.86960  0.43983  Biso   1.000  O
  O23      1.0000 0.62950  0.87020  0.77293  Biso   1.000  O
  O24      1.0000 0.79480  0.95280  0.77443  Biso   1.000  O
  N7       1.0000 0.07290  0.36390  0.51023  Biso   1.000  N
  N8       1.0000 0.72280  0.03250  0.25233  Biso   1.000  N
  N9       1.0000 0.29640  0.02500  0.84373  Biso   1.000  N
  N10      1.0000 0.37840  0.02830  0.50663  Biso   1.000  N
  N11      1.0000 0.62330  0.03160  0.58183  Biso   1.000  N
  N12      1.0000 0.31970  0.36360  0.58723  Biso   1.000  N
  C37      1.0000 0.04530  0.42280  0.54513  Biso   1.000  C
  H25      1.0000 0.08040  0.45820  0.59073  Biso   1.000  H
  C38      1.0000 0.97230  0.43490  0.52033  Biso   1.000  C
  H26      1.0000 0.96050  0.48290  0.54353  Biso   1.000  H
  C39      1.0000 0.91490  0.37690  0.46103  Biso   1.000  C
  H27      1.0000 0.85800  0.37940  0.44643  Biso   1.000  H
  C40      1.0000 0.93670  0.31610  0.42263  Biso   1.000  C
  C41      1.0000 0.01900  0.31060  0.45013  Biso   1.000  C
  H28      1.0000 0.03580  0.26730  0.42453  Biso   1.000  H
  C42      1.0000 0.40410  0.42140  0.54773  Biso   1.000  C
  H29      1.0000 0.40380  0.45870  0.50363  Biso   1.000  H
  C43      1.0000 0.49140  0.42680  0.57113  Biso   1.000  C
  H30      1.0000 0.54950  0.46470  0.54133  Biso   1.000  H
  C44      1.0000 0.49340  0.37800  0.63613  Biso   1.000  C
  H31      1.0000 0.55360  0.38440  0.65373  Biso   1.000  H
  C45      1.0000 0.40940  0.31990  0.67653  Biso   1.000  C
  C46      1.0000 0.32280  0.31370  0.64853  Biso   1.000  C
  H32      1.0000 0.26320  0.27120  0.67503  Biso   1.000  H
  C47      1.0000 0.40860  0.26710  0.75133  Biso   1.000  C
  C48      1.0000 0.34580  0.02060  0.78223  Biso   1.000  C
  H33      1.0000 0.39230  0.08020  0.75783  Biso   1.000  H
  C49      1.0000 0.33340  0.93360  0.75153  Biso   1.000  C
  C50      1.0000 0.26540  0.84780  0.78523  Biso   1.000  C
  H34      1.0000 0.25500  0.78670  0.76583  Biso   1.000  H
  C51      1.0000 0.21170  0.85150  0.84863  Biso   1.000  C
  H35      1.0000 0.16500  0.79250  0.87363  Biso   1.000  H
  C52      1.0000 0.22490  0.93840  0.87523  Biso   1.000  C
  H36      1.0000 0.18430  0.93930  0.91633  Biso   1.000  H
  C53      1.0000 0.39060  0.93350  0.67873  Biso   1.000  C
  C54      1.0000 0.32420  0.97620  0.44623  Biso   1.000  C
  H37      1.0000 0.34360  0.93620  0.41853  Biso   1.000  H
  C55      1.0000 0.23970  0.97650  0.42083  Biso   1.000  C
  C56      1.0000 0.21340  0.03540  0.46103  Biso   1.000  C
  H38      1.0000 0.15810  0.03970  0.44443  Biso   1.000  H
  C57      1.0000 0.26790  0.08910  0.52623  Biso   1.000  C
  H39      1.0000 0.24920  0.12860  0.55543  Biso   1.000  H
  C58      1.0000 0.34920  0.08380  0.54753  Biso   1.000  C
  H40      1.0000 0.38620  0.12000  0.59213  Biso   1.000  H
  C59      1.0000 0.52880  0.95000  0.41063  Biso   1.000  C
  C60      1.0000 0.58440  0.94660  0.33803  Biso   1.000  C
  C61      1.0000 0.55370  0.86080  0.29493  Biso   1.000  C
  H41      1.0000 0.49530  0.80250  0.30903  Biso   1.000  H
  C62      1.0000 0.60990  0.86160  0.23073  Biso   1.000  C
  H42      1.0000 0.59080  0.80450  0.19983  Biso   1.000  H
  C63      1.0000 0.69300  0.94740  0.21423  Biso   1.000  C
  H43      1.0000 0.73310  0.94720  0.17243  Biso   1.000  H
  C64      1.0000 0.67000  0.03070  0.31503  Biso   1.000  C
  H44      1.0000 0.69180  0.08900  0.34503  Biso   1.000  H
  C65      1.0000 0.71450  0.09870  0.55133  Biso   1.000  C
  H45      1.0000 0.71540  0.13770  0.50813  Biso   1.000  H
  C66      1.0000 0.79920  0.11350  0.57643  Biso   1.000  C
  H46      1.0000 0.85820  0.16160  0.55213  Biso   1.000  H
  C67      1.0000 0.80180  0.05720  0.64003  Biso   1.000  C
  H47      1.0000 0.86250  0.06520  0.65793  Biso   1.000  H
  C68      1.0000 0.71910  0.99320  0.67453  Biso   1.000  C
  C69      1.0000 0.62670  0.97910  0.64383  Biso   1.000  C
  H48      1.0000 0.56720  0.93180  0.66803  Biso   1.000  H
  C70      1.0000 0.71550  0.93540  0.74643  Biso   1.000  C
  C71      1.0000 0.18390  0.92160  0.34813  Biso   1.000  C
  C72      1.0000 0.87700  0.25530  0.35023  Biso   1.000  C
  Cu7      1.0000 0.63898  0.83276  0.88280  Biso   1.000  Cu
  Cu8      1.0000 0.84729  0.15278  0.21677  Biso   1.000  Cu
  Cu9      1.0000 0.97241  0.47277  0.87808  Biso   1.000  Cu
  O25      1.0000 0.80770  0.70620  0.65807  Biso   1.000  O
  O26      1.0000 0.72310  0.54220  0.65467  Biso   1.000  O
  O27      1.0000 0.05880  0.18510  0.65087  Biso   1.000  O
  O28      1.0000 0.14340  0.34670  0.65677  Biso   1.000  O
  O29      1.0000 0.79590  0.11790  0.10737  Biso   1.000  O
  O30      1.0000 0.71110  0.19930  0.11457  Biso   1.000  O
  O31      1.0000 0.14540  0.51370  0.98037  Biso   1.000  O
  O32      1.0000 0.98150  0.43480  0.98607  Biso   1.000  O
  O33      1.0000 0.97110  0.51620  0.76957  Biso   1.000  O
  O34      1.0000 0.13040  0.59720  0.77317  Biso   1.000  O
  O35      1.0000 0.12980  0.75930  0.10627  Biso   1.000  O
  O36      1.0000 0.04720  0.84200  0.10777  Biso   1.000  O
  N13      1.0000 0.63610  0.70900  0.84357  Biso   1.000  N
  N14      1.0000 0.96750  0.69030  0.58567  Biso   1.000  N
  N15      1.0000 0.97500  0.27140  0.17707  Biso   1.000  N
  N16      1.0000 0.97170  0.35010  0.83997  Biso   1.000  N
  N17      1.0000 0.96840  0.59170  0.91517  Biso   1.000  N
  N18      1.0000 0.63640  0.95610  0.92057  Biso   1.000  N
  C73      1.0000 0.57720  0.62250  0.87847  Biso   1.000  C
  H49      1.0000 0.54180  0.62220  0.92407  Biso   1.000  H
  C74      1.0000 0.56510  0.53740  0.85367  Biso   1.000  C
  H50      1.0000 0.51710  0.47760  0.87687  Biso   1.000  H
  C75      1.0000 0.62310  0.53800  0.79437  Biso   1.000  C
  H51      1.0000 0.62060  0.47860  0.77977  Biso   1.000  H
  C76      1.0000 0.68390  0.62060  0.75597  Biso   1.000  C
  C77      1.0000 0.68940  0.70840  0.78347  Biso   1.000  C
  H52      1.0000 0.73270  0.76850  0.75787  Biso   1.000  H
  C78      1.0000 0.57860  0.98270  0.88107  Biso   1.000  C
  H53      1.0000 0.54130  0.94510  0.83697  Biso   1.000  H
  C79      1.0000 0.57320  0.06460  0.90447  Biso   1.000  C
  H54      1.0000 0.53530  0.08480  0.87467  Biso   1.000  H
  C80      1.0000 0.62200  0.11540  0.96947  Biso   1.000  C
  H55      1.0000 0.61560  0.16920  0.98707  Biso   1.000  H
  C81      1.0000 0.68010  0.08950  0.00987  Biso   1.000  C
  C82      1.0000 0.68630  0.00910  0.98187  Biso   1.000  C
  H56      1.0000 0.72880  0.99200  0.00837  Biso   1.000  H
  C83      1.0000 0.73290  0.14150  0.08467  Biso   1.000  C
  C84      1.0000 0.97940  0.32520  0.11557  Biso   1.000  C
  H57      1.0000 0.91980  0.31210  0.09117  Biso   1.000  H
  C85      1.0000 0.06640  0.39980  0.08487  Biso   1.000  C
  C86      1.0000 0.15220  0.41760  0.11857  Biso   1.000  C
  H58      1.0000 0.21330  0.46830  0.09917  Biso   1.000  H
  C87      1.0000 0.14850  0.36020  0.18197  Biso   1.000  C
  H59      1.0000 0.20750  0.37250  0.20697  Biso   1.000  H
  C88      1.0000 0.06160  0.28650  0.20857  Biso   1.000  C
  H60      1.0000 0.06070  0.24500  0.24967  Biso   1.000  H
  C89      1.0000 0.06650  0.45710  0.01207  Biso   1.000  C
  C90      1.0000 0.02380  0.34800  0.77957  Biso   1.000  C
  H61      1.0000 0.06380  0.40740  0.75187  Biso   1.000  H
  C91      1.0000 0.02350  0.26320  0.75417  Biso   1.000  C
  C92      1.0000 0.96460  0.17800  0.79437  Biso   1.000  C
  H62      1.0000 0.96030  0.11840  0.77777  Biso   1.000  H
  C93      1.0000 0.91090  0.17880  0.85957  Biso   1.000  C
  H63      1.0000 0.87140  0.12060  0.88877  Biso   1.000  H
  C94      1.0000 0.91620  0.26540  0.88087  Biso   1.000  C
  H64      1.0000 0.88000  0.26620  0.92547  Biso   1.000  H
  C95      1.0000 0.05000  0.57880  0.74397  Biso   1.000  C
  C96      1.0000 0.05340  0.63780  0.67137  Biso   1.000  C
  C97      1.0000 0.13920  0.69290  0.62827  Biso   1.000  C
  H65      1.0000 0.19750  0.69280  0.64237  Biso   1.000  H
  C98      1.0000 0.13840  0.74830  0.56407  Biso   1.000  C
  H66      1.0000 0.19550  0.78630  0.53317  Biso   1.000  H
  C99      1.0000 0.05260  0.74560  0.54757  Biso   1.000  C
  H67      1.0000 0.05280  0.78590  0.50577  Biso   1.000  H
  C100     1.0000 0.96930  0.63930  0.64837  Biso   1.000  C
  H68      1.0000 0.91100  0.60280  0.67837  Biso   1.000  H
  C101     1.0000 0.90130  0.61580  0.88467  Biso   1.000  C
  H69      1.0000 0.86230  0.57770  0.84147  Biso   1.000  H
  C102     1.0000 0.88650  0.68570  0.90977  Biso   1.000  C
  H70      1.0000 0.83840  0.69660  0.88547  Biso   1.000  H
  C103     1.0000 0.94280  0.74460  0.97337  Biso   1.000  C
  H71      1.0000 0.93480  0.79730  0.99127  Biso   1.000  H
  C104     1.0000 0.00680  0.72590  0.00787  Biso   1.000  C
  C105     1.0000 0.02090  0.64760  0.97717  Biso   1.000  C
  H72      1.0000 0.06820  0.63540  0.00137  Biso   1.000  H
  C106     1.0000 0.06460  0.78010  0.07977  Biso   1.000  C
  C107     1.0000 0.07840  0.26230  0.68147  Biso   1.000  C
  C108     1.0000 0.74470  0.62170  0.68357  Biso   1.000  C
