data_image0
_cell_length_a       25.45
_cell_length_b       11.928
_cell_length_c       25.835
_cell_angle_alpha    90
_cell_angle_beta     116.777
_cell_angle_gamma    90

_symmetry_space_group_name_H-M    "P 1"
_symmetry_int_tables_number       1

loop_
  _symmetry_equiv_pos_as_xyz
  'x, y, z'

loop_
  _atom_site_label
  _atom_site_occupancy
  _atom_site_fract_x
  _atom_site_fract_y
  _atom_site_fract_z
  _atom_site_thermal_displace_type
  _atom_site_B_iso_or_equiv
  _atom_site_type_symbol
  Cd1      1.0000 0.47750  0.17535  0.09091  Biso   1.000  Cd
  Cd2      1.0000 0.07013  0.74728  0.51095  Biso   1.000  Cd
  Na1      1.0000 0.97939  0.51250  0.92696  Biso   1.000  Na
  C1       1.0000 0.39810  0.01740  0.02850  Biso   1.000  C
  C2       1.0000 0.35180  0.93540  0.98820  Biso   1.000  C
  C3       1.0000 0.35350  0.90110  0.93680  Biso   1.000  C
  H1       1.0000 0.38270  0.92770  0.92760  Biso   1.000  H
  C4       1.0000 0.31100  0.82710  0.90030  Biso   1.000  C
  H2       1.0000 0.31300  0.79990  0.86750  Biso   1.000  H
  C5       1.0000 0.26650  0.79390  0.91220  Biso   1.000  C
  C6       1.0000 0.26640  0.82490  0.96290  Biso   1.000  C
  H3       1.0000 0.23770  0.79630  0.97230  Biso   1.000  H
  C7       1.0000 0.30740  0.89680  0.00000  Biso   1.000  C
  H4       1.0000 0.30550  0.92010  0.03350  Biso   1.000  H
  C8       1.0000 0.19990  0.72550  0.81190  Biso   1.000  C
  C9       1.0000 0.17810  0.63070  0.77890  Biso   1.000  C
  H5       1.0000 0.18180  0.56240  0.79760  Biso   1.000  H
  C10      1.0000 0.15170  0.63310  0.72130  Biso   1.000  C
  H6       1.0000 0.13560  0.56770  0.70050  Biso   1.000  H
  C11      1.0000 0.14790  0.73300  0.69150  Biso   1.000  C
  C12      1.0000 0.17000  0.82710  0.72540  Biso   1.000  C
  H7       1.0000 0.16780  0.89560  0.70730  Biso   1.000  H
  C13      1.0000 0.19500  0.82380  0.78420  Biso   1.000  C
  H8       1.0000 0.20870  0.88950  0.80540  Biso   1.000  H
  C14      1.0000 0.11950  0.73710  0.62750  Biso   1.000  C
  C15      1.0000 0.12000  0.40180  0.96740  Biso   1.000  C
  C16      1.0000 0.14740  0.48430  0.94190  Biso   1.000  C
  C17      1.0000 0.11060  0.55400  0.89740  Biso   1.000  C
  H9       1.0000 0.07000  0.54600  0.88140  Biso   1.000  H
  C18      1.0000 0.13460  0.63370  0.87750  Biso   1.000  C
  H10      1.0000 0.11020  0.68580  0.85060  Biso   1.000  H
  C19      1.0000 0.19560  0.63940  0.89670  Biso   1.000  C
  C20      1.0000 0.23150  0.56510  0.93920  Biso   1.000  C
  H11      1.0000 0.27200  0.56650  0.95200  Biso   1.000  H
  C21      1.0000 0.20720  0.48890  0.96270  Biso   1.000  C
  H12      1.0000 0.23130  0.44120  0.99240  Biso   1.000  H
  C22      1.0000 0.44510  0.38110  0.13460  Biso   1.000  C
  C23      1.0000 0.40860  0.47520  0.13910  Biso   1.000  C
  C24      1.0000 0.41820  0.52360  0.18990  Biso   1.000  C
  H13      1.0000 0.44840  0.49640  0.22410  Biso   1.000  H
  C25      1.0000 0.38500  0.61090  0.19250  Biso   1.000  C
  H14      1.0000 0.39400  0.64430  0.22800  Biso   1.000  H
  C26      1.0000 0.33770  0.65080  0.14260  Biso   1.000  C
  C27      1.0000 0.32810  0.60440  0.09160  Biso   1.000  C
  H15      1.0000 0.29840  0.63350  0.05760  Biso   1.000  H
  C28      1.0000 0.36090  0.51480  0.08800  Biso   1.000  C
  H16      1.0000 0.35160  0.48120  0.05240  Biso   1.000  H
  C29      1.0000 0.33360  0.83130  0.18600  Biso   1.000  C
  C30      1.0000 0.38220  0.87530  0.18460  Biso   1.000  C
  H17      1.0000 0.39280  0.84920  0.15670  Biso   1.000  H
  C31      1.0000 0.41610  0.95610  0.22240  Biso   1.000  C
  H18      1.0000 0.44790  0.98710  0.21880  Biso   1.000  H
  C32      1.0000 0.40240  0.99120  0.26600  Biso   1.000  C
  C33      1.0000 0.35200  0.94940  0.26560  Biso   1.000  C
  H19      1.0000 0.34010  0.97630  0.29240  Biso   1.000  H
  C34      1.0000 0.31840  0.86840  0.22640  Biso   1.000  C
  H20      1.0000 0.28530  0.83960  0.22810  Biso   1.000  H
  C35      1.0000 0.24040  0.73500  0.11850  Biso   1.000  C
  C36      1.0000 0.20790  0.83620  0.10080  Biso   1.000  C
  H21      1.0000 0.22640  0.90570  0.10930  Biso   1.000  H
  C37      1.0000 0.14870  0.82700  0.07110  Biso   1.000  C
  H22      1.0000 0.12660  0.89250  0.05890  Biso   1.000  H
  C38      1.0000 0.11960  0.72760  0.05810  Biso   1.000  C
  C39      1.0000 0.15200  0.63130  0.07300  Biso   1.000  C
  H23      1.0000 0.13280  0.56270  0.06200  Biso   1.000  H
  C40      1.0000 0.21330  0.63300  0.10410  Biso   1.000  C
  H24      1.0000 0.23490  0.56690  0.11470  Biso   1.000  H
  C41      1.0000 0.05260  0.71760  0.02710  Biso   1.000  C
  C42      1.0000 0.44370  0.06550  0.31160  Biso   1.000  C
  N1       1.0000 0.22180  0.71900  0.87490  Biso   1.000  N
  N2       1.0000 0.30440  0.74060  0.14610  Biso   1.000  N
  O1       1.0000 0.48950  0.10440  0.31030  Biso   1.000  O
  O2       1.0000 0.43260  0.09020  0.35390  Biso   1.000  O
  O3       1.0000 0.43810  0.04920  0.01560  Biso   1.000  O
  O4       1.0000 0.39450  0.05630  0.07180  Biso   1.000  O
  O5       1.0000 0.42740  0.32780  0.08860  Biso   1.000  O
  O6       1.0000 0.49260  0.35810  0.18030  Biso   1.000  O
  O7       1.0000 0.02310  0.80970  0.02160  Biso   1.000  O
  O8       1.0000 0.02860  0.62500  0.00950  Biso   1.000  O
  O9       1.0000 0.15250  0.33570  0.00510  Biso   1.000  O
  O10      1.0000 0.06530  0.39960  0.94770  Biso   1.000  O
  O11      1.0000 0.12050  0.82630  0.60200  Biso   1.000  O
  O12      1.0000 0.09400  0.65110  0.59940  Biso   1.000  O
  Cd3      1.0000 0.52250  0.17535  0.40909  Biso   1.000  Cd
  Cd4      1.0000 0.92987  0.74728  0.98905  Biso   1.000  Cd
  Na2      1.0000 0.02061  0.51250  0.57304  Biso   1.000  Na
  C43      1.0000 0.60190  0.01740  0.47150  Biso   1.000  C
  C44      1.0000 0.64820  0.93540  0.51180  Biso   1.000  C
  C45      1.0000 0.64650  0.90110  0.56320  Biso   1.000  C
  H25      1.0000 0.61730  0.92770  0.57240  Biso   1.000  H
  C46      1.0000 0.68900  0.82710  0.59970  Biso   1.000  C
  H26      1.0000 0.68700  0.79990  0.63250  Biso   1.000  H
  C47      1.0000 0.73350  0.79390  0.58780  Biso   1.000  C
  C48      1.0000 0.73360  0.82490  0.53710  Biso   1.000  C
  H27      1.0000 0.76230  0.79630  0.52770  Biso   1.000  H
  C49      1.0000 0.69260  0.89680  0.50000  Biso   1.000  C
  H28      1.0000 0.69450  0.92010  0.46650  Biso   1.000  H
  C50      1.0000 0.80010  0.72550  0.68810  Biso   1.000  C
  C51      1.0000 0.82190  0.63070  0.72110  Biso   1.000  C
  H29      1.0000 0.81820  0.56240  0.70240  Biso   1.000  H
  C52      1.0000 0.84830  0.63310  0.77870  Biso   1.000  C
  H30      1.0000 0.86440  0.56770  0.79950  Biso   1.000  H
  C53      1.0000 0.85210  0.73300  0.80850  Biso   1.000  C
  C54      1.0000 0.83000  0.82710  0.77460  Biso   1.000  C
  H31      1.0000 0.83220  0.89560  0.79270  Biso   1.000  H
  C55      1.0000 0.80500  0.82380  0.71580  Biso   1.000  C
  H32      1.0000 0.79130  0.88950  0.69460  Biso   1.000  H
  C56      1.0000 0.88050  0.73710  0.87250  Biso   1.000  C
  C57      1.0000 0.88000  0.40180  0.53260  Biso   1.000  C
  C58      1.0000 0.85260  0.48430  0.55810  Biso   1.000  C
  C59      1.0000 0.88940  0.55400  0.60260  Biso   1.000  C
  H33      1.0000 0.93000  0.54600  0.61860  Biso   1.000  H
  C60      1.0000 0.86540  0.63370  0.62250  Biso   1.000  C
  H34      1.0000 0.88980  0.68580  0.64940  Biso   1.000  H
  C61      1.0000 0.80440  0.63940  0.60330  Biso   1.000  C
  C62      1.0000 0.76850  0.56510  0.56080  Biso   1.000  C
  H35      1.0000 0.72800  0.56650  0.54800  Biso   1.000  H
  C63      1.0000 0.79280  0.48890  0.53730  Biso   1.000  C
  H36      1.0000 0.76870  0.44120  0.50760  Biso   1.000  H
  C64      1.0000 0.55490  0.38110  0.36540  Biso   1.000  C
  C65      1.0000 0.59140  0.47520  0.36090  Biso   1.000  C
  C66      1.0000 0.58180  0.52360  0.31010  Biso   1.000  C
  H37      1.0000 0.55160  0.49640  0.27590  Biso   1.000  H
  C67      1.0000 0.61500  0.61090  0.30750  Biso   1.000  C
  H38      1.0000 0.60600  0.64430  0.27200  Biso   1.000  H
  C68      1.0000 0.66230  0.65080  0.35740  Biso   1.000  C
  C69      1.0000 0.67190  0.60440  0.40840  Biso   1.000  C
  H39      1.0000 0.70160  0.63350  0.44240  Biso   1.000  H
  C70      1.0000 0.63910  0.51480  0.41200  Biso   1.000  C
  H40      1.0000 0.64840  0.48120  0.44760  Biso   1.000  H
  C71      1.0000 0.66640  0.83130  0.31400  Biso   1.000  C
  C72      1.0000 0.61780  0.87530  0.31540  Biso   1.000  C
  H41      1.0000 0.60720  0.84920  0.34330  Biso   1.000  H
  C73      1.0000 0.58390  0.95610  0.27760  Biso   1.000  C
  H42      1.0000 0.55210  0.98710  0.28120  Biso   1.000  H
  C74      1.0000 0.59760  0.99120  0.23400  Biso   1.000  C
  C75      1.0000 0.64800  0.94940  0.23440  Biso   1.000  C
  H43      1.0000 0.65990  0.97630  0.20760  Biso   1.000  H
  C76      1.0000 0.68160  0.86840  0.27360  Biso   1.000  C
  H44      1.0000 0.71470  0.83960  0.27190  Biso   1.000  H
  C77      1.0000 0.75960  0.73500  0.38150  Biso   1.000  C
  C78      1.0000 0.79210  0.83620  0.39920  Biso   1.000  C
  H45      1.0000 0.77360  0.90570  0.39070  Biso   1.000  H
  C79      1.0000 0.85130  0.82700  0.42890  Biso   1.000  C
  H46      1.0000 0.87340  0.89250  0.44110  Biso   1.000  H
  C80      1.0000 0.88040  0.72760  0.44190  Biso   1.000  C
  C81      1.0000 0.84800  0.63130  0.42700  Biso   1.000  C
  H47      1.0000 0.86720  0.56270  0.43800  Biso   1.000  H
  C82      1.0000 0.78670  0.63300  0.39590  Biso   1.000  C
  H48      1.0000 0.76510  0.56690  0.38530  Biso   1.000  H
  C83      1.0000 0.94740  0.71760  0.47290  Biso   1.000  C
  C84      1.0000 0.55630  0.06550  0.18840  Biso   1.000  C
  N3       1.0000 0.77820  0.71900  0.62510  Biso   1.000  N
  N4       1.0000 0.69560  0.74060  0.35390  Biso   1.000  N
  O13      1.0000 0.51050  0.10440  0.18970  Biso   1.000  O
  O14      1.0000 0.56740  0.09020  0.14610  Biso   1.000  O
  O15      1.0000 0.56190  0.04920  0.48440  Biso   1.000  O
  O16      1.0000 0.60550  0.05630  0.42820  Biso   1.000  O
  O17      1.0000 0.57260  0.32780  0.41140  Biso   1.000  O
  O18      1.0000 0.50740  0.35810  0.31970  Biso   1.000  O
  O19      1.0000 0.97690  0.80970  0.47840  Biso   1.000  O
  O20      1.0000 0.97140  0.62500  0.49050  Biso   1.000  O
  O21      1.0000 0.84750  0.33570  0.49490  Biso   1.000  O
  O22      1.0000 0.93470  0.39960  0.55230  Biso   1.000  O
  O23      1.0000 0.87950  0.82630  0.89800  Biso   1.000  O
  O24      1.0000 0.90600  0.65110  0.90060  Biso   1.000  O
  Cd5      1.0000 0.52250  0.82465  0.90909  Biso   1.000  Cd
  Cd6      1.0000 0.92987  0.25272  0.48905  Biso   1.000  Cd
  Na3      1.0000 0.02061  0.48750  0.07304  Biso   1.000  Na
  C85      1.0000 0.60190  0.98260  0.97150  Biso   1.000  C
  C86      1.0000 0.64820  0.06460  0.01180  Biso   1.000  C
  C87      1.0000 0.64650  0.09890  0.06320  Biso   1.000  C
  H49      1.0000 0.61730  0.07230  0.07240  Biso   1.000  H
  C88      1.0000 0.68900  0.17290  0.09970  Biso   1.000  C
  H50      1.0000 0.68700  0.20010  0.13250  Biso   1.000  H
  C89      1.0000 0.73350  0.20610  0.08780  Biso   1.000  C
  C90      1.0000 0.73360  0.17510  0.03710  Biso   1.000  C
  H51      1.0000 0.76230  0.20370  0.02770  Biso   1.000  H
  C91      1.0000 0.69260  0.10320  0.00000  Biso   1.000  C
  H52      1.0000 0.69450  0.07990  0.96650  Biso   1.000  H
  C92      1.0000 0.80010  0.27450  0.18810  Biso   1.000  C
  C93      1.0000 0.82190  0.36930  0.22110  Biso   1.000  C
  H53      1.0000 0.81820  0.43760  0.20240  Biso   1.000  H
  C94      1.0000 0.84830  0.36690  0.27870  Biso   1.000  C
  H54      1.0000 0.86440  0.43230  0.29950  Biso   1.000  H
  C95      1.0000 0.85210  0.26700  0.30850  Biso   1.000  C
  C96      1.0000 0.83000  0.17290  0.27460  Biso   1.000  C
  H55      1.0000 0.83220  0.10440  0.29270  Biso   1.000  H
  C97      1.0000 0.80500  0.17620  0.21580  Biso   1.000  C
  H56      1.0000 0.79130  0.11050  0.19460  Biso   1.000  H
  C98      1.0000 0.88050  0.26290  0.37250  Biso   1.000  C
  C99      1.0000 0.88000  0.59820  0.03260  Biso   1.000  C
  C100     1.0000 0.85260  0.51570  0.05810  Biso   1.000  C
  C101     1.0000 0.88940  0.44600  0.10260  Biso   1.000  C
  H57      1.0000 0.93000  0.45400  0.11860  Biso   1.000  H
  C102     1.0000 0.86540  0.36630  0.12250  Biso   1.000  C
  H58      1.0000 0.88980  0.31420  0.14940  Biso   1.000  H
  C103     1.0000 0.80440  0.36060  0.10330  Biso   1.000  C
  C104     1.0000 0.76850  0.43490  0.06080  Biso   1.000  C
  H59      1.0000 0.72800  0.43350  0.04800  Biso   1.000  H
  C105     1.0000 0.79280  0.51110  0.03730  Biso   1.000  C
  H60      1.0000 0.76870  0.55880  0.00760  Biso   1.000  H
  C106     1.0000 0.55490  0.61890  0.86540  Biso   1.000  C
  C107     1.0000 0.59140  0.52480  0.86090  Biso   1.000  C
  C108     1.0000 0.58180  0.47640  0.81010  Biso   1.000  C
  H61      1.0000 0.55160  0.50360  0.77590  Biso   1.000  H
  C109     1.0000 0.61500  0.38910  0.80750  Biso   1.000  C
  H62      1.0000 0.60600  0.35570  0.77200  Biso   1.000  H
  C110     1.0000 0.66230  0.34920  0.85740  Biso   1.000  C
  C111     1.0000 0.67190  0.39560  0.90840  Biso   1.000  C
  H63      1.0000 0.70160  0.36650  0.94240  Biso   1.000  H
  C112     1.0000 0.63910  0.48520  0.91200  Biso   1.000  C
  H64      1.0000 0.64840  0.51880  0.94760  Biso   1.000  H
  C113     1.0000 0.66640  0.16870  0.81400  Biso   1.000  C
  C114     1.0000 0.61780  0.12470  0.81540  Biso   1.000  C
  H65      1.0000 0.60720  0.15080  0.84330  Biso   1.000  H
  C115     1.0000 0.58390  0.04390  0.77760  Biso   1.000  C
  H66      1.0000 0.55210  0.01290  0.78120  Biso   1.000  H
  C116     1.0000 0.59760  0.00880  0.73400  Biso   1.000  C
  C117     1.0000 0.64800  0.05060  0.73440  Biso   1.000  C
  H67      1.0000 0.65990  0.02370  0.70760  Biso   1.000  H
  C118     1.0000 0.68160  0.13160  0.77360  Biso   1.000  C
  H68      1.0000 0.71470  0.16040  0.77190  Biso   1.000  H
  C119     1.0000 0.75960  0.26500  0.88150  Biso   1.000  C
  C120     1.0000 0.79210  0.16380  0.89920  Biso   1.000  C
  H69      1.0000 0.77360  0.09430  0.89070  Biso   1.000  H
  C121     1.0000 0.85130  0.17300  0.92890  Biso   1.000  C
  H70      1.0000 0.87340  0.10750  0.94110  Biso   1.000  H
  C122     1.0000 0.88040  0.27240  0.94190  Biso   1.000  C
  C123     1.0000 0.84800  0.36870  0.92700  Biso   1.000  C
  H71      1.0000 0.86720  0.43730  0.93800  Biso   1.000  H
  C124     1.0000 0.78670  0.36700  0.89590  Biso   1.000  C
  H72      1.0000 0.76510  0.43310  0.88530  Biso   1.000  H
  C125     1.0000 0.94740  0.28240  0.97290  Biso   1.000  C
  C126     1.0000 0.55630  0.93450  0.68840  Biso   1.000  C
  N5       1.0000 0.77820  0.28100  0.12510  Biso   1.000  N
  N6       1.0000 0.69560  0.25940  0.85390  Biso   1.000  N
  O25      1.0000 0.51050  0.89560  0.68970  Biso   1.000  O
  O26      1.0000 0.56740  0.90980  0.64610  Biso   1.000  O
  O27      1.0000 0.56190  0.95080  0.98440  Biso   1.000  O
  O28      1.0000 0.60550  0.94370  0.92820  Biso   1.000  O
  O29      1.0000 0.57260  0.67220  0.91140  Biso   1.000  O
  O30      1.0000 0.50740  0.64190  0.81970  Biso   1.000  O
  O31      1.0000 0.97690  0.19030  0.97840  Biso   1.000  O
  O32      1.0000 0.97140  0.37500  0.99050  Biso   1.000  O
  O33      1.0000 0.84750  0.66430  0.99490  Biso   1.000  O
  O34      1.0000 0.93470  0.60040  0.05230  Biso   1.000  O
  O35      1.0000 0.87950  0.17370  0.39800  Biso   1.000  O
  O36      1.0000 0.90600  0.34890  0.40060  Biso   1.000  O
  Cd7      1.0000 0.47750  0.82465  0.59091  Biso   1.000  Cd
  Cd8      1.0000 0.07013  0.25272  0.01095  Biso   1.000  Cd
  Na4      1.0000 0.97939  0.48750  0.42696  Biso   1.000  Na
  C127     1.0000 0.39810  0.98260  0.52850  Biso   1.000  C
  C128     1.0000 0.35180  0.06460  0.48820  Biso   1.000  C
  C129     1.0000 0.35350  0.09890  0.43680  Biso   1.000  C
  H73      1.0000 0.38270  0.07230  0.42760  Biso   1.000  H
  C130     1.0000 0.31100  0.17290  0.40030  Biso   1.000  C
  H74      1.0000 0.31300  0.20010  0.36750  Biso   1.000  H
  C131     1.0000 0.26650  0.20610  0.41220  Biso   1.000  C
  C132     1.0000 0.26640  0.17510  0.46290  Biso   1.000  C
  H75      1.0000 0.23770  0.20370  0.47230  Biso   1.000  H
  C133     1.0000 0.30740  0.10320  0.50000  Biso   1.000  C
  H76      1.0000 0.30550  0.07990  0.53350  Biso   1.000  H
  C134     1.0000 0.19990  0.27450  0.31190  Biso   1.000  C
  C135     1.0000 0.17810  0.36930  0.27890  Biso   1.000  C
  H77      1.0000 0.18180  0.43760  0.29760  Biso   1.000  H
  C136     1.0000 0.15170  0.36690  0.22130  Biso   1.000  C
  H78      1.0000 0.13560  0.43230  0.20050  Biso   1.000  H
  C137     1.0000 0.14790  0.26700  0.19150  Biso   1.000  C
  C138     1.0000 0.17000  0.17290  0.22540  Biso   1.000  C
  H79      1.0000 0.16780  0.10440  0.20730  Biso   1.000  H
  C139     1.0000 0.19500  0.17620  0.28420  Biso   1.000  C
  H80      1.0000 0.20870  0.11050  0.30540  Biso   1.000  H
  C140     1.0000 0.11950  0.26290  0.12750  Biso   1.000  C
  C141     1.0000 0.12000  0.59820  0.46740  Biso   1.000  C
  C142     1.0000 0.14740  0.51570  0.44190  Biso   1.000  C
  C143     1.0000 0.11060  0.44600  0.39740  Biso   1.000  C
  H81      1.0000 0.07000  0.45400  0.38140  Biso   1.000  H
  C144     1.0000 0.13460  0.36630  0.37750  Biso   1.000  C
  H82      1.0000 0.11020  0.31420  0.35060  Biso   1.000  H
  C145     1.0000 0.19560  0.36060  0.39670  Biso   1.000  C
  C146     1.0000 0.23150  0.43490  0.43920  Biso   1.000  C
  H83      1.0000 0.27200  0.43350  0.45200  Biso   1.000  H
  C147     1.0000 0.20720  0.51110  0.46270  Biso   1.000  C
  H84      1.0000 0.23130  0.55880  0.49240  Biso   1.000  H
  C148     1.0000 0.44510  0.61890  0.63460  Biso   1.000  C
  C149     1.0000 0.40860  0.52480  0.63910  Biso   1.000  C
  C150     1.0000 0.41820  0.47640  0.68990  Biso   1.000  C
  H85      1.0000 0.44840  0.50360  0.72410  Biso   1.000  H
  C151     1.0000 0.38500  0.38910  0.69250  Biso   1.000  C
  H86      1.0000 0.39400  0.35570  0.72800  Biso   1.000  H
  C152     1.0000 0.33770  0.34920  0.64260  Biso   1.000  C
  C153     1.0000 0.32810  0.39560  0.59160  Biso   1.000  C
  H87      1.0000 0.29840  0.36650  0.55760  Biso   1.000  H
  C154     1.0000 0.36090  0.48520  0.58800  Biso   1.000  C
  H88      1.0000 0.35160  0.51880  0.55240  Biso   1.000  H
  C155     1.0000 0.33360  0.16870  0.68600  Biso   1.000  C
  C156     1.0000 0.38220  0.12470  0.68460  Biso   1.000  C
  H89      1.0000 0.39280  0.15080  0.65670  Biso   1.000  H
  C157     1.0000 0.41610  0.04390  0.72240  Biso   1.000  C
  H90      1.0000 0.44790  0.01290  0.71880  Biso   1.000  H
  C158     1.0000 0.40240  0.00880  0.76600  Biso   1.000  C
  C159     1.0000 0.35200  0.05060  0.76560  Biso   1.000  C
  H91      1.0000 0.34010  0.02370  0.79240  Biso   1.000  H
  C160     1.0000 0.31840  0.13160  0.72640  Biso   1.000  C
  H92      1.0000 0.28530  0.16040  0.72810  Biso   1.000  H
  C161     1.0000 0.24040  0.26500  0.61850  Biso   1.000  C
  C162     1.0000 0.20790  0.16380  0.60080  Biso   1.000  C
  H93      1.0000 0.22640  0.09430  0.60930  Biso   1.000  H
  C163     1.0000 0.14870  0.17300  0.57110  Biso   1.000  C
  H94      1.0000 0.12660  0.10750  0.55890  Biso   1.000  H
  C164     1.0000 0.11960  0.27240  0.55810  Biso   1.000  C
  C165     1.0000 0.15200  0.36870  0.57300  Biso   1.000  C
  H95      1.0000 0.13280  0.43730  0.56200  Biso   1.000  H
  C166     1.0000 0.21330  0.36700  0.60410  Biso   1.000  C
  H96      1.0000 0.23490  0.43310  0.61470  Biso   1.000  H
  C167     1.0000 0.05260  0.28240  0.52710  Biso   1.000  C
  C168     1.0000 0.44370  0.93450  0.81160  Biso   1.000  C
  N7       1.0000 0.22180  0.28100  0.37490  Biso   1.000  N
  N8       1.0000 0.30440  0.25940  0.64610  Biso   1.000  N
  O37      1.0000 0.48950  0.89560  0.81030  Biso   1.000  O
  O38      1.0000 0.43260  0.90980  0.85390  Biso   1.000  O
  O39      1.0000 0.43810  0.95080  0.51560  Biso   1.000  O
  O40      1.0000 0.39450  0.94370  0.57180  Biso   1.000  O
  O41      1.0000 0.42740  0.67220  0.58860  Biso   1.000  O
  O42      1.0000 0.49260  0.64190  0.68030  Biso   1.000  O
  O43      1.0000 0.02310  0.19030  0.52160  Biso   1.000  O
  O44      1.0000 0.02860  0.37500  0.50950  Biso   1.000  O
  O45      1.0000 0.15250  0.66430  0.50510  Biso   1.000  O
  O46      1.0000 0.06530  0.60040  0.44770  Biso   1.000  O
  O47      1.0000 0.12050  0.17370  0.10200  Biso   1.000  O
  O48      1.0000 0.09400  0.34890  0.09940  Biso   1.000  O
  Cd9      1.0000 0.50000  0.23410  0.25000  Biso   1.000  Cd
  Cd10     1.0000 0.50000  0.76590  0.75000  Biso   1.000  Cd
