data_BUSGOM_clean
_audit_creation_date              2014-07-02
_audit_creation_method            'Materials Studio'
_symmetry_space_group_name_H-M    'P1'
_symmetry_Int_Tables_number       1
_symmetry_cell_setting            triclinic
loop_
_symmetry_equiv_pos_as_xyz
  x,y,z
_cell_length_a                    9.2333
_cell_length_b                    9.5503
_cell_length_c                    21.5850
_cell_angle_alpha                 90.0000
_cell_angle_beta                  90.0000
_cell_angle_gamma                 116.0060
loop_
_atom_site_label
_atom_site_type_symbol
_atom_site_fract_x
_atom_site_fract_y
_atom_site_fract_z
_atom_site_U_iso_or_equiv
_atom_site_adp_type
_atom_site_occupancy
Sm1    Sm    0.62341   0.85922   0.99144   0.01267  Uiso   1.00
Sm2    Sm    0.87659   0.14078   0.49144   0.01267  Uiso   1.00
Sm3    Sm    0.37659   0.14078   0.00856   0.01267  Uiso   1.00
Sm4    Sm    0.12341   0.85922   0.50856   0.01267  Uiso   1.00
Cu1    Cu    0.95914   0.80884   0.85455   0.01267  Uiso   1.00
Cu2    Cu    0.54086   0.19116   0.35455   0.01267  Uiso   1.00
Cu3    Cu    0.04086   0.19116   0.14545   0.01267  Uiso   1.00
Cu4    Cu    0.45914   0.80884   0.64545   0.01267  Uiso   1.00
H1     H     0.60890   0.81730   0.16640   0.01267  Uiso   1.00
H2     H     0.06080   0.29690   0.93010   0.01267  Uiso   1.00
H3     H     0.25580   0.49930   0.87480   0.01267  Uiso   1.00
H4     H     0.79250   0.52920   0.92970   0.01267  Uiso   1.00
H5     H     0.64720   0.77190   0.26900   0.01267  Uiso   1.00
H6     H     0.20630   0.70320   0.84360   0.01267  Uiso   1.00
H7     H     0.49600   0.15420   0.22390   0.01267  Uiso   1.00
H8     H     0.62520   0.92650   0.34480   0.01267  Uiso   1.00
H9     H     0.89110   0.18270   0.66640   0.01267  Uiso   1.00
H10    H     0.43920   0.70310   0.43010   0.01267  Uiso   1.00
H11    H     0.24420   0.50070   0.37480   0.01267  Uiso   1.00
H12    H     0.70750   0.47080   0.42970   0.01267  Uiso   1.00
H13    H     0.85280   0.22810   0.76900   0.01267  Uiso   1.00
H14    H     0.29370   0.29680   0.34360   0.01267  Uiso   1.00
H15    H     0.00400   0.84580   0.72390   0.01267  Uiso   1.00
H16    H     0.87480   0.07350   0.84480   0.01267  Uiso   1.00
H17    H     0.39110   0.18270   0.83360   0.01267  Uiso   1.00
H18    H     0.93920   0.70310   0.06990   0.01267  Uiso   1.00
H19    H     0.74420   0.50070   0.12520   0.01267  Uiso   1.00
H20    H     0.20750   0.47080   0.07030   0.01267  Uiso   1.00
H21    H     0.35280   0.22810   0.73100   0.01267  Uiso   1.00
H22    H     0.79370   0.29680   0.15640   0.01267  Uiso   1.00
H23    H     0.50400   0.84580   0.77610   0.01267  Uiso   1.00
H24    H     0.37480   0.07350   0.65520   0.01267  Uiso   1.00
H25    H     0.10890   0.81730   0.33360   0.01267  Uiso   1.00
H26    H     0.56080   0.29690   0.56990   0.01267  Uiso   1.00
H27    H     0.75580   0.49930   0.62520   0.01267  Uiso   1.00
H28    H     0.29250   0.52920   0.57030   0.01267  Uiso   1.00
H29    H     0.14720   0.77190   0.23100   0.01267  Uiso   1.00
H30    H     0.70630   0.70320   0.65640   0.01267  Uiso   1.00
H31    H     0.99600   0.15420   0.27610   0.01267  Uiso   1.00
H32    H     0.12520   0.92650   0.15520   0.01267  Uiso   1.00
C1     C     0.54600   0.99150   0.18450   0.01267  Uiso   1.00
C2     C     0.51140   0.02730   0.12050   0.01267  Uiso   1.00
C3     C     0.59410   0.87630   0.19790   0.01267  Uiso   1.00
C4     C     0.77190   0.25950   0.96940   0.01267  Uiso   1.00
C5     C     0.90380   0.39040   0.93490   0.01267  Uiso   1.00
C6     C     0.04410   0.38260   0.91860   0.01267  Uiso   1.00
C7     C     0.15920   0.50180   0.88520   0.01267  Uiso   1.00
C8     C     0.88500   0.52110   0.91730   0.01267  Uiso   1.00
C9     C     0.61930   0.85140   0.25870   0.01267  Uiso   1.00
C10    C     0.12960   0.62470   0.86750   0.01267  Uiso   1.00
C11    C     0.52910   0.07750   0.23300   0.01267  Uiso   1.00
C12    C     0.60350   0.94300   0.30410   0.01267  Uiso   1.00
C13    C     0.48880   0.49200   0.96450   0.01267  Uiso   1.00
C14    C     0.00350   0.97720   0.96630   0.01267  Uiso   1.00
C15    C     0.95400   0.00850   0.68450   0.01267  Uiso   1.00
C16    C     0.98860   0.97270   0.62050   0.01267  Uiso   1.00
C17    C     0.90590   0.12370   0.69790   0.01267  Uiso   1.00
C18    C     0.72810   0.74050   0.46940   0.01267  Uiso   1.00
C19    C     0.59620   0.60960   0.43490   0.01267  Uiso   1.00
C20    C     0.45590   0.61740   0.41860   0.01267  Uiso   1.00
C21    C     0.34080   0.49820   0.38520   0.01267  Uiso   1.00
C22    C     0.61500   0.47890   0.41730   0.01267  Uiso   1.00
C23    C     0.88070   0.14860   0.75870   0.01267  Uiso   1.00
C24    C     0.37040   0.37530   0.36750   0.01267  Uiso   1.00
C25    C     0.97090   0.92250   0.73300   0.01267  Uiso   1.00
C26    C     0.89650   0.05700   0.80410   0.01267  Uiso   1.00
C27    C     0.01120   0.50800   0.46450   0.01267  Uiso   1.00
C28    C     0.49650   0.02280   0.46630   0.01267  Uiso   1.00
C29    C     0.45400   0.00850   0.81550   0.01267  Uiso   1.00
C30    C     0.48860   0.97270   0.87950   0.01267  Uiso   1.00
C31    C     0.40590   0.12370   0.80210   0.01267  Uiso   1.00
C32    C     0.22810   0.74050   0.03060   0.01267  Uiso   1.00
C33    C     0.09620   0.60960   0.06510   0.01267  Uiso   1.00
C34    C     0.95590   0.61740   0.08140   0.01267  Uiso   1.00
C35    C     0.84080   0.49820   0.11480   0.01267  Uiso   1.00
C36    C     0.11500   0.47890   0.08270   0.01267  Uiso   1.00
C37    C     0.38070   0.14860   0.74130   0.01267  Uiso   1.00
C38    C     0.87040   0.37530   0.13250   0.01267  Uiso   1.00
C39    C     0.47090   0.92250   0.76700   0.01267  Uiso   1.00
C40    C     0.39650   0.05700   0.69590   0.01267  Uiso   1.00
C41    C     0.51120   0.50800   0.03550   0.01267  Uiso   1.00
C42    C     0.99650   0.02280   0.03370   0.01267  Uiso   1.00
C43    C     0.04600   0.99150   0.31550   0.01267  Uiso   1.00
C44    C     0.01140   0.02730   0.37950   0.01267  Uiso   1.00
C45    C     0.09410   0.87630   0.30210   0.01267  Uiso   1.00
C46    C     0.27190   0.25950   0.53060   0.01267  Uiso   1.00
C47    C     0.40380   0.39040   0.56510   0.01267  Uiso   1.00
C48    C     0.54410   0.38260   0.58140   0.01267  Uiso   1.00
C49    C     0.65920   0.50180   0.61480   0.01267  Uiso   1.00
C50    C     0.38500   0.52110   0.58270   0.01267  Uiso   1.00
C51    C     0.11930   0.85140   0.24130   0.01267  Uiso   1.00
C52    C     0.62960   0.62470   0.63250   0.01267  Uiso   1.00
C53    C     0.02910   0.07750   0.26700   0.01267  Uiso   1.00
C54    C     0.10350   0.94300   0.19590   0.01267  Uiso   1.00
C55    C     0.98880   0.49200   0.53550   0.01267  Uiso   1.00
C56    C     0.50350   0.97720   0.53370   0.01267  Uiso   1.00
N1     N     0.99500   0.63690   0.88310   0.01267  Uiso   1.00
N2     N     0.55770   0.05680   0.29250   0.01267  Uiso   1.00
N3     N     0.50500   0.36310   0.38310   0.01267  Uiso   1.00
N4     N     0.94230   0.94320   0.79250   0.01267  Uiso   1.00
N5     N     0.00500   0.36310   0.11690   0.01267  Uiso   1.00
N6     N     0.44230   0.94320   0.70750   0.01267  Uiso   1.00
N7     N     0.49500   0.63690   0.61690   0.01267  Uiso   1.00
N8     N     0.05770   0.05680   0.20750   0.01267  Uiso   1.00
O1     O     0.87320   0.88220   0.94214   0.01267  Uiso   1.00
O2     O     0.78000   0.13210   0.96962   0.01267  Uiso   1.00
O3     O     0.55040   0.96830   0.07549   0.01267  Uiso   1.00
O4     O     0.55120   0.61540   0.93372   0.01267  Uiso   1.00
O5     O     0.66400   0.28730   0.99420   0.01267  Uiso   1.00
O6     O     0.44310   0.11450   0.11438   0.01267  Uiso   1.00
O7     O     0.40890   0.35790   0.94314   0.01267  Uiso   1.00
O8     O     0.13660   0.03770   0.93933   0.01267  Uiso   1.00
O9     O     0.62680   0.11780   0.44214   0.01267  Uiso   1.00
O10    O     0.72000   0.86790   0.46962   0.01267  Uiso   1.00
O11    O     0.94960   0.03170   0.57549   0.01267  Uiso   1.00
O12    O     0.94880   0.38460   0.43372   0.01267  Uiso   1.00
O13    O     0.83600   0.71270   0.49420   0.01267  Uiso   1.00
O14    O     0.05690   0.88550   0.61438   0.01267  Uiso   1.00
O15    O     0.09110   0.64210   0.44314   0.01267  Uiso   1.00
O16    O     0.36340   0.96230   0.43933   0.01267  Uiso   1.00
O17    O     0.12680   0.11780   0.05786   0.01267  Uiso   1.00
O18    O     0.22000   0.86790   0.03038   0.01267  Uiso   1.00
O19    O     0.44960   0.03170   0.92451   0.01267  Uiso   1.00
O20    O     0.44880   0.38460   0.06628   0.01267  Uiso   1.00
O21    O     0.33600   0.71270   0.00580   0.01267  Uiso   1.00
O22    O     0.55690   0.88550   0.88562   0.01267  Uiso   1.00
O23    O     0.59110   0.64210   0.05686   0.01267  Uiso   1.00
O24    O     0.86340   0.96230   0.06067   0.01267  Uiso   1.00
O25    O     0.37320   0.88220   0.55786   0.01267  Uiso   1.00
O26    O     0.28000   0.13210   0.53038   0.01267  Uiso   1.00
O27    O     0.05040   0.96830   0.42451   0.01267  Uiso   1.00
O28    O     0.05120   0.61540   0.56628   0.01267  Uiso   1.00
O29    O     0.16400   0.28730   0.50580   0.01267  Uiso   1.00
O30    O     0.94310   0.11450   0.38562   0.01267  Uiso   1.00
O31    O     0.90890   0.35790   0.55686   0.01267  Uiso   1.00
O32    O     0.63660   0.03770   0.56067   0.01267  Uiso   1.00
