data_BUSGIG_clean
_audit_creation_date              2014-07-02
_audit_creation_method            'Materials Studio'
_symmetry_space_group_name_H-M    'P1'
_symmetry_Int_Tables_number       1
_symmetry_cell_setting            triclinic
loop_
_symmetry_equiv_pos_as_xyz
  x,y,z
_cell_length_a                    9.1750
_cell_length_b                    9.4930
_cell_length_c                    21.5100
_cell_angle_alpha                 90.0000
_cell_angle_beta                  90.0000
_cell_angle_gamma                 116.4830
loop_
_atom_site_label
_atom_site_type_symbol
_atom_site_fract_x
_atom_site_fract_y
_atom_site_fract_z
_atom_site_U_iso_or_equiv
_atom_site_adp_type
_atom_site_occupancy
Dy1    Dy    0.12484   0.35745   0.99173   0.01267  Uiso   1.00
Dy2    Dy    0.37516   0.64255   0.49173   0.01267  Uiso   1.00
Dy3    Dy    0.87516   0.64255   0.00827   0.01267  Uiso   1.00
Dy4    Dy    0.62484   0.35745   0.50827   0.01267  Uiso   1.00
Cu1    Cu    0.46158   0.30823   0.85361   0.01267  Uiso   1.00
Cu2    Cu    0.03842   0.69177   0.35361   0.01267  Uiso   1.00
Cu3    Cu    0.53842   0.69177   0.14639   0.01267  Uiso   1.00
Cu4    Cu    0.96158   0.30823   0.64639   0.01267  Uiso   1.00
H1     H     0.70710   0.97320   0.06920   0.01267  Uiso   1.00
H2     H     0.44520   0.20900   0.07040   0.01267  Uiso   1.00
H3     H     0.00440   0.34500   0.77750   0.01267  Uiso   1.00
H4     H     0.85420   0.73170   0.73030   0.01267  Uiso   1.00
H5     H     0.89240   0.68680   0.83360   0.01267  Uiso   1.00
H6     H     0.24470   0.00490   0.12400   0.01267  Uiso   1.00
H7     H     0.29460   0.80240   0.15860   0.01267  Uiso   1.00
H8     H     0.87530   0.57170   0.65490   0.01267  Uiso   1.00
H9     H     0.79290   0.02680   0.56920   0.01267  Uiso   1.00
H10    H     0.05480   0.79100   0.57040   0.01267  Uiso   1.00
H11    H     0.49560   0.65500   0.27750   0.01267  Uiso   1.00
H12    H     0.64580   0.26830   0.23030   0.01267  Uiso   1.00
H13    H     0.60760   0.31320   0.33360   0.01267  Uiso   1.00
H14    H     0.25530   0.99510   0.62400   0.01267  Uiso   1.00
H15    H     0.20540   0.19760   0.65860   0.01267  Uiso   1.00
H16    H     0.62470   0.42830   0.15490   0.01267  Uiso   1.00
H17    H     0.29290   0.02680   0.93080   0.01267  Uiso   1.00
H18    H     0.55480   0.79100   0.92960   0.01267  Uiso   1.00
H19    H     0.99560   0.65500   0.22250   0.01267  Uiso   1.00
H20    H     0.14580   0.26830   0.26970   0.01267  Uiso   1.00
H21    H     0.10760   0.31320   0.16640   0.01267  Uiso   1.00
H22    H     0.75530   0.99510   0.87600   0.01267  Uiso   1.00
H23    H     0.70540   0.19760   0.84140   0.01267  Uiso   1.00
H24    H     0.12470   0.42830   0.34510   0.01267  Uiso   1.00
H25    H     0.20710   0.97320   0.43080   0.01267  Uiso   1.00
H26    H     0.94520   0.20900   0.42960   0.01267  Uiso   1.00
H27    H     0.50440   0.34500   0.72250   0.01267  Uiso   1.00
H28    H     0.35420   0.73170   0.76970   0.01267  Uiso   1.00
H29    H     0.39240   0.68680   0.66640   0.01267  Uiso   1.00
H30    H     0.74470   0.00490   0.37600   0.01267  Uiso   1.00
H31    H     0.79460   0.80240   0.34140   0.01267  Uiso   1.00
H32    H     0.37530   0.57170   0.84510   0.01267  Uiso   1.00
C1     C     0.01190   0.00810   0.03550   0.01267  Uiso   1.00
C2     C     0.73260   0.24320   0.02800   0.01267  Uiso   1.00
C3     C     0.98670   0.47750   0.88160   0.01267  Uiso   1.00
C4     C     0.59710   0.11200   0.06430   0.01267  Uiso   1.00
C5     C     0.61450   0.98170   0.08200   0.01267  Uiso   1.00
C6     C     0.45960   0.12130   0.08130   0.01267  Uiso   1.00
C7     C     0.97080   0.42160   0.76810   0.01267  Uiso   1.00
C8     C     0.88140   0.65140   0.74110   0.01267  Uiso   1.00
C9     C     0.90630   0.62630   0.80230   0.01267  Uiso   1.00
C10    C     0.34240   0.00240   0.11440   0.01267  Uiso   1.00
C11    C     0.37100   0.87940   0.13330   0.01267  Uiso   1.00
C12    C     0.95220   0.50960   0.81660   0.01267  Uiso   1.00
C13    C     0.89700   0.55640   0.69590   0.01267  Uiso   1.00
C14    C     0.50250   0.47810   0.96640   0.01267  Uiso   1.00
C15    C     0.48810   0.99190   0.53550   0.01267  Uiso   1.00
C16    C     0.76740   0.75680   0.52800   0.01267  Uiso   1.00
C17    C     0.51330   0.52250   0.38160   0.01267  Uiso   1.00
C18    C     0.90290   0.88800   0.56430   0.01267  Uiso   1.00
C19    C     0.88550   0.01830   0.58200   0.01267  Uiso   1.00
C20    C     0.04040   0.87870   0.58130   0.01267  Uiso   1.00
C21    C     0.52920   0.57840   0.26810   0.01267  Uiso   1.00
C22    C     0.61860   0.34860   0.24110   0.01267  Uiso   1.00
C23    C     0.59370   0.37370   0.30230   0.01267  Uiso   1.00
C24    C     0.15760   0.99760   0.61440   0.01267  Uiso   1.00
C25    C     0.12900   0.12060   0.63330   0.01267  Uiso   1.00
C26    C     0.54780   0.49040   0.31660   0.01267  Uiso   1.00
C27    C     0.60300   0.44360   0.19590   0.01267  Uiso   1.00
C28    C     0.99750   0.52190   0.46640   0.01267  Uiso   1.00
C29    C     0.98810   0.99190   0.96450   0.01267  Uiso   1.00
C30    C     0.26740   0.75680   0.97200   0.01267  Uiso   1.00
C31    C     0.01330   0.52250   0.11840   0.01267  Uiso   1.00
C32    C     0.40290   0.88800   0.93570   0.01267  Uiso   1.00
C33    C     0.38550   0.01830   0.91800   0.01267  Uiso   1.00
C34    C     0.54040   0.87870   0.91870   0.01267  Uiso   1.00
C35    C     0.02920   0.57840   0.23190   0.01267  Uiso   1.00
C36    C     0.11860   0.34860   0.25890   0.01267  Uiso   1.00
C37    C     0.09370   0.37370   0.19770   0.01267  Uiso   1.00
C38    C     0.65760   0.99760   0.88560   0.01267  Uiso   1.00
C39    C     0.62900   0.12060   0.86670   0.01267  Uiso   1.00
C40    C     0.04780   0.49040   0.18340   0.01267  Uiso   1.00
C41    C     0.10300   0.44360   0.30410   0.01267  Uiso   1.00
C42    C     0.49750   0.52190   0.03360   0.01267  Uiso   1.00
C43    C     0.51190   0.00810   0.46450   0.01267  Uiso   1.00
C44    C     0.23260   0.24320   0.47200   0.01267  Uiso   1.00
C45    C     0.48670   0.47750   0.61840   0.01267  Uiso   1.00
C46    C     0.09710   0.11200   0.43570   0.01267  Uiso   1.00
C47    C     0.11450   0.98170   0.41800   0.01267  Uiso   1.00
C48    C     0.95960   0.12130   0.41870   0.01267  Uiso   1.00
C49    C     0.47080   0.42160   0.73190   0.01267  Uiso   1.00
C50    C     0.38140   0.65140   0.75890   0.01267  Uiso   1.00
C51    C     0.40630   0.62630   0.69770   0.01267  Uiso   1.00
C52    C     0.84240   0.00240   0.38560   0.01267  Uiso   1.00
C53    C     0.87100   0.87940   0.36670   0.01267  Uiso   1.00
C54    C     0.45220   0.50960   0.68340   0.01267  Uiso   1.00
C55    C     0.39700   0.55640   0.80410   0.01267  Uiso   1.00
C56    C     0.00250   0.47810   0.53360   0.01267  Uiso   1.00
N1     N     0.50430   0.86530   0.11690   0.01267  Uiso   1.00
N2     N     0.94240   0.44210   0.70820   0.01267  Uiso   1.00
N3     N     0.99570   0.13470   0.61690   0.01267  Uiso   1.00
N4     N     0.55760   0.55790   0.20820   0.01267  Uiso   1.00
N5     N     0.49570   0.13470   0.88310   0.01267  Uiso   1.00
N6     N     0.05760   0.55790   0.29180   0.01267  Uiso   1.00
N7     N     0.00430   0.86530   0.38310   0.01267  Uiso   1.00
N8     N     0.44240   0.44210   0.79180   0.01267  Uiso   1.00
O1     O     0.83960   0.21480   0.00386   0.01267  Uiso   1.00
O2     O     0.36970   0.38240   0.94212   0.01267  Uiso   1.00
O3     O     0.08980   0.14400   0.05696   0.01267  Uiso   1.00
O4     O     0.05370   0.39000   0.88944   0.01267  Uiso   1.00
O5     O     0.94580   0.54030   0.92457   0.01267  Uiso   1.00
O6     O     0.72450   0.37130   0.02810   0.01267  Uiso   1.00
O7     O     0.94840   0.88270   0.06583   0.01267  Uiso   1.00
O8     O     0.63620   0.53910   0.93902   0.01267  Uiso   1.00
O9     O     0.66040   0.78520   0.50386   0.01267  Uiso   1.00
O10    O     0.13030   0.61760   0.44212   0.01267  Uiso   1.00
O11    O     0.41020   0.85600   0.55696   0.01267  Uiso   1.00
O12    O     0.44630   0.61000   0.38944   0.01267  Uiso   1.00
O13    O     0.55420   0.45970   0.42457   0.01267  Uiso   1.00
O14    O     0.77550   0.62870   0.52810   0.01267  Uiso   1.00
O15    O     0.55160   0.11730   0.56583   0.01267  Uiso   1.00
O16    O     0.86380   0.46090   0.43902   0.01267  Uiso   1.00
O17    O     0.16040   0.78520   0.99614   0.01267  Uiso   1.00
O18    O     0.63030   0.61760   0.05788   0.01267  Uiso   1.00
O19    O     0.91020   0.85600   0.94304   0.01267  Uiso   1.00
O20    O     0.94630   0.61000   0.11056   0.01267  Uiso   1.00
O21    O     0.05420   0.45970   0.07543   0.01267  Uiso   1.00
O22    O     0.27550   0.62870   0.97190   0.01267  Uiso   1.00
O23    O     0.05160   0.11730   0.93417   0.01267  Uiso   1.00
O24    O     0.36380   0.46090   0.06098   0.01267  Uiso   1.00
O25    O     0.33960   0.21480   0.49614   0.01267  Uiso   1.00
O26    O     0.86970   0.38240   0.55788   0.01267  Uiso   1.00
O27    O     0.58980   0.14400   0.44304   0.01267  Uiso   1.00
O28    O     0.55370   0.39000   0.61056   0.01267  Uiso   1.00
O29    O     0.44580   0.54030   0.57543   0.01267  Uiso   1.00
O30    O     0.22450   0.37130   0.47190   0.01267  Uiso   1.00
O31    O     0.44840   0.88270   0.43417   0.01267  Uiso   1.00
O32    O     0.13620   0.53910   0.56098   0.01267  Uiso   1.00
