data_BUSQEM_clean
_audit_creation_date              2014-07-02
_audit_creation_method            'Materials Studio'
_symmetry_space_group_name_H-M    'P1'
_symmetry_Int_Tables_number       1
_symmetry_cell_setting            triclinic
loop_
_symmetry_equiv_pos_as_xyz
  x,y,z
_cell_length_a                    11.6160
_cell_length_b                    12.5030
_cell_length_c                    14.8910
_cell_angle_alpha                 90.0000
_cell_angle_beta                  90.0000
_cell_angle_gamma                 90.0000
loop_
_atom_site_label
_atom_site_type_symbol
_atom_site_fract_x
_atom_site_fract_y
_atom_site_fract_z
_atom_site_U_iso_or_equiv
_atom_site_adp_type
_atom_site_occupancy
Mn1    Mn    0.50000   0.50000   0.25000   0.01267  Uiso   1.00
Mn2    Mn    0.50000   0.50000   0.75000   0.01267  Uiso   1.00
H1     H     0.30060   0.78260   0.36410   0.01267  Uiso   1.00
H2     H     0.16350   0.91800   0.36480   0.01267  Uiso   1.00
H3     H     0.28600   0.65190   0.21870   0.01267  Uiso   1.00
H4     H     0.08670   0.65710   0.21920   0.01267  Uiso   1.00
H5     H     0.69940   0.21740   0.36410   0.01267  Uiso   1.00
H6     H     0.83650   0.08200   0.36480   0.01267  Uiso   1.00
H7     H     0.71400   0.34810   0.21870   0.01267  Uiso   1.00
H8     H     0.91330   0.34290   0.21920   0.01267  Uiso   1.00
H9     H     0.69940   0.78260   0.13590   0.01267  Uiso   1.00
H10    H     0.83650   0.91800   0.13520   0.01267  Uiso   1.00
H11    H     0.71400   0.65190   0.28130   0.01267  Uiso   1.00
H12    H     0.91330   0.65710   0.28080   0.01267  Uiso   1.00
H13    H     0.30060   0.21740   0.13590   0.01267  Uiso   1.00
H14    H     0.16350   0.08200   0.13520   0.01267  Uiso   1.00
H15    H     0.28600   0.34810   0.28130   0.01267  Uiso   1.00
H16    H     0.08670   0.34290   0.28080   0.01267  Uiso   1.00
H17    H     0.69940   0.21740   0.63590   0.01267  Uiso   1.00
H18    H     0.83650   0.08200   0.63520   0.01267  Uiso   1.00
H19    H     0.71400   0.34810   0.78130   0.01267  Uiso   1.00
H20    H     0.91330   0.34290   0.78080   0.01267  Uiso   1.00
H21    H     0.30060   0.78260   0.63590   0.01267  Uiso   1.00
H22    H     0.16350   0.91800   0.63520   0.01267  Uiso   1.00
H23    H     0.28600   0.65190   0.78130   0.01267  Uiso   1.00
H24    H     0.08670   0.65710   0.78080   0.01267  Uiso   1.00
H25    H     0.30060   0.21740   0.86410   0.01267  Uiso   1.00
H26    H     0.16350   0.08200   0.86480   0.01267  Uiso   1.00
H27    H     0.28600   0.34810   0.71870   0.01267  Uiso   1.00
H28    H     0.08670   0.34290   0.71920   0.01267  Uiso   1.00
H29    H     0.69940   0.78260   0.86410   0.01267  Uiso   1.00
H30    H     0.83650   0.91800   0.86480   0.01267  Uiso   1.00
H31    H     0.71400   0.65190   0.71870   0.01267  Uiso   1.00
H32    H     0.91330   0.65710   0.71920   0.01267  Uiso   1.00
C1     C     0.46320   0.65830   0.42020   0.01267  Uiso   1.00
C2     C     0.27570   0.81200   0.41960   0.01267  Uiso   1.00
C3     C     0.19420   0.89260   0.42000   0.01267  Uiso   1.00
C4     C     0.07710   0.09200   0.42030   0.01267  Uiso   1.00
C5     C     0.24490   0.58820   0.23220   0.01267  Uiso   1.00
C6     C     0.12570   0.59200   0.23190   0.01267  Uiso   1.00
C7     C     0.53680   0.34170   0.42020   0.01267  Uiso   1.00
C8     C     0.72430   0.18800   0.41960   0.01267  Uiso   1.00
C9     C     0.80580   0.10740   0.42000   0.01267  Uiso   1.00
C10    C     0.92290   0.90800   0.42030   0.01267  Uiso   1.00
C11    C     0.75510   0.41180   0.23220   0.01267  Uiso   1.00
C12    C     0.87430   0.40800   0.23190   0.01267  Uiso   1.00
C13    C     0.53680   0.65830   0.07980   0.01267  Uiso   1.00
C14    C     0.72430   0.81200   0.08040   0.01267  Uiso   1.00
C15    C     0.80580   0.89260   0.08000   0.01267  Uiso   1.00
C16    C     0.92290   0.09200   0.07970   0.01267  Uiso   1.00
C17    C     0.75510   0.58820   0.26780   0.01267  Uiso   1.00
C18    C     0.87430   0.59200   0.26810   0.01267  Uiso   1.00
C19    C     0.46320   0.34170   0.07980   0.01267  Uiso   1.00
C20    C     0.27570   0.18800   0.08040   0.01267  Uiso   1.00
C21    C     0.19420   0.10740   0.08000   0.01267  Uiso   1.00
C22    C     0.07710   0.90800   0.07970   0.01267  Uiso   1.00
C23    C     0.24490   0.41180   0.26780   0.01267  Uiso   1.00
C24    C     0.12570   0.40800   0.26810   0.01267  Uiso   1.00
C25    C     0.53680   0.34170   0.57980   0.01267  Uiso   1.00
C26    C     0.72430   0.18800   0.58040   0.01267  Uiso   1.00
C27    C     0.80580   0.10740   0.58000   0.01267  Uiso   1.00
C28    C     0.92290   0.90800   0.57970   0.01267  Uiso   1.00
C29    C     0.75510   0.41180   0.76780   0.01267  Uiso   1.00
C30    C     0.87430   0.40800   0.76810   0.01267  Uiso   1.00
C31    C     0.46320   0.65830   0.57980   0.01267  Uiso   1.00
C32    C     0.27570   0.81200   0.58040   0.01267  Uiso   1.00
C33    C     0.19420   0.89260   0.58000   0.01267  Uiso   1.00
C34    C     0.07710   0.09200   0.57970   0.01267  Uiso   1.00
C35    C     0.24490   0.58820   0.76780   0.01267  Uiso   1.00
C36    C     0.12570   0.59200   0.76810   0.01267  Uiso   1.00
C37    C     0.46320   0.34170   0.92020   0.01267  Uiso   1.00
C38    C     0.27570   0.18800   0.91960   0.01267  Uiso   1.00
C39    C     0.19420   0.10740   0.92000   0.01267  Uiso   1.00
C40    C     0.07710   0.90800   0.92030   0.01267  Uiso   1.00
C41    C     0.24490   0.41180   0.73220   0.01267  Uiso   1.00
C42    C     0.12570   0.40800   0.73190   0.01267  Uiso   1.00
C43    C     0.53680   0.65830   0.92020   0.01267  Uiso   1.00
C44    C     0.72430   0.81200   0.91960   0.01267  Uiso   1.00
C45    C     0.80580   0.89260   0.92000   0.01267  Uiso   1.00
C46    C     0.92290   0.09200   0.92030   0.01267  Uiso   1.00
C47    C     0.75510   0.58820   0.73220   0.01267  Uiso   1.00
C48    C     0.87430   0.59200   0.73190   0.01267  Uiso   1.00
C49    C     0.06420   0.50000   0.25000   0.01267  Uiso   1.00
C50    C     0.93580   0.50000   0.25000   0.01267  Uiso   1.00
C51    C     0.93580   0.50000   0.75000   0.01267  Uiso   1.00
C52    C     0.06420   0.50000   0.75000   0.01267  Uiso   1.00
C53    C     0.41730   0.69790   0.50000   0.01267  Uiso   1.00
C54    C     0.32320   0.77360   0.50000   0.01267  Uiso   1.00
C55    C     0.15650   0.93620   0.50000   0.01267  Uiso   1.00
C56    C     0.06380   0.02720   0.50000   0.01267  Uiso   1.00
C57    C     0.58270   0.30210   0.50000   0.01267  Uiso   1.00
C58    C     0.67680   0.22640   0.50000   0.01267  Uiso   1.00
C59    C     0.84350   0.06380   0.50000   0.01267  Uiso   1.00
C60    C     0.93620   0.97280   0.50000   0.01267  Uiso   1.00
C61    C     0.58270   0.69790   0.00000   0.01267  Uiso   1.00
C62    C     0.67680   0.77360   0.00000   0.01267  Uiso   1.00
C63    C     0.84350   0.93620   0.00000   0.01267  Uiso   1.00
C64    C     0.93620   0.02720   0.00000   0.01267  Uiso   1.00
C65    C     0.41730   0.30210   0.00000   0.01267  Uiso   1.00
C66    C     0.32320   0.22640   0.00000   0.01267  Uiso   1.00
C67    C     0.15650   0.06380   0.00000   0.01267  Uiso   1.00
C68    C     0.06380   0.97280   1.00000   0.01267  Uiso   1.00
N1     N     0.50140   0.62530   0.35420   0.01267  Uiso   1.00
N2     N     0.09410   0.13960   0.35730   0.01267  Uiso   1.00
N3     N     0.49860   0.37470   0.35420   0.01267  Uiso   1.00
N4     N     0.90590   0.86040   0.35730   0.01267  Uiso   1.00
N5     N     0.49860   0.62530   0.14580   0.01267  Uiso   1.00
N6     N     0.90590   0.13960   0.14270   0.01267  Uiso   1.00
N7     N     0.50140   0.37470   0.14580   0.01267  Uiso   1.00
N8     N     0.09410   0.86040   0.14270   0.01267  Uiso   1.00
N9     N     0.49860   0.37470   0.64580   0.01267  Uiso   1.00
N10    N     0.90590   0.86040   0.64270   0.01267  Uiso   1.00
N11    N     0.50140   0.62530   0.64580   0.01267  Uiso   1.00
N12    N     0.09410   0.13960   0.64270   0.01267  Uiso   1.00
N13    N     0.50140   0.37470   0.85420   0.01267  Uiso   1.00
N14    N     0.09410   0.86040   0.85730   0.01267  Uiso   1.00
N15    N     0.49860   0.62530   0.85420   0.01267  Uiso   1.00
N16    N     0.90590   0.13960   0.85730   0.01267  Uiso   1.00
N17    N     0.30450   0.50000   0.25000   0.01267  Uiso   1.00
N18    N     0.69550   0.50000   0.25000   0.01267  Uiso   1.00
N19    N     0.69550   0.50000   0.75000   0.01267  Uiso   1.00
N20    N     0.30450   0.50000   0.75000   0.01267  Uiso   1.00
