data_BUSQUC_clean
_audit_creation_date              2014-07-02
_audit_creation_method            'Materials Studio'
_symmetry_space_group_name_H-M    'P1'
_symmetry_Int_Tables_number       1
_symmetry_cell_setting            triclinic
loop_
_symmetry_equiv_pos_as_xyz
  x,y,z
_cell_length_a                    11.7820
_cell_length_b                    13.0054
_cell_length_c                    13.0054
_cell_angle_alpha                 97.8283
_cell_angle_beta                  105.4730
_cell_angle_gamma                 105.4730
loop_
_atom_site_label
_atom_site_type_symbol
_atom_site_fract_x
_atom_site_fract_y
_atom_site_fract_z
_atom_site_U_iso_or_equiv
_atom_site_adp_type
_atom_site_occupancy
Cu1    Cu    0.12588   0.23121   0.67759   0.01267  Uiso   1.00
Cu2    Cu    0.37412   0.32241   0.76879   0.01267  Uiso   1.00
Cu3    Cu    0.87412   0.76879   0.32241   0.01267  Uiso   1.00
Cu4    Cu    0.62588   0.67759   0.23121   0.01267  Uiso   1.00
H1     H     0.12100   0.19410   0.33990   0.01267  Uiso   1.00
H2     H     0.47470   0.38350   0.48290   0.01267  Uiso   1.00
H3     H     0.49670   0.40470   0.31830   0.01267  Uiso   1.00
H4     H     0.02960   0.15270   0.13690   0.01267  Uiso   1.00
H5     H     0.04780   0.17620   0.97140   0.01267  Uiso   1.00
H6     H     0.40590   0.36020   0.11340   0.01267  Uiso   1.00
H7     H     0.91880   0.00960   0.59020   0.01267  Uiso   1.00
H8     H     0.89270   0.30100   0.61460   0.01267  Uiso   1.00
H9     H     0.70650   0.93330   0.53130   0.01267  Uiso   1.00
H10    H     0.68020   0.23330   0.54710   0.01267  Uiso   1.00
H11    H     0.54030   0.02110   0.61770   0.01267  Uiso   1.00
H12    H     0.50720   0.10790   0.55110   0.01267  Uiso   1.00
H13    H     0.37900   0.66010   0.80590   0.01267  Uiso   1.00
H14    H     0.02530   0.51710   0.61650   0.01267  Uiso   1.00
H15    H     0.00330   0.68170   0.59530   0.01267  Uiso   1.00
H16    H     0.47040   0.86310   0.84730   0.01267  Uiso   1.00
H17    H     0.45220   0.02860   0.82380   0.01267  Uiso   1.00
H18    H     0.09410   0.88660   0.63980   0.01267  Uiso   1.00
H19    H     0.58120   0.40980   0.99040   0.01267  Uiso   1.00
H20    H     0.60730   0.38540   0.69900   0.01267  Uiso   1.00
H21    H     0.79350   0.46870   0.06670   0.01267  Uiso   1.00
H22    H     0.81980   0.45290   0.76670   0.01267  Uiso   1.00
H23    H     0.95970   0.38230   0.97890   0.01267  Uiso   1.00
H24    H     0.99280   0.44890   0.89210   0.01267  Uiso   1.00
H25    H     0.87900   0.80590   0.66010   0.01267  Uiso   1.00
H26    H     0.52530   0.61650   0.51710   0.01267  Uiso   1.00
H27    H     0.50330   0.59530   0.68170   0.01267  Uiso   1.00
H28    H     0.97040   0.84730   0.86310   0.01267  Uiso   1.00
H29    H     0.95220   0.82380   0.02860   0.01267  Uiso   1.00
H30    H     0.59410   0.63980   0.88660   0.01267  Uiso   1.00
H31    H     0.08120   0.99040   0.40980   0.01267  Uiso   1.00
H32    H     0.10730   0.69900   0.38540   0.01267  Uiso   1.00
H33    H     0.29350   0.06670   0.46870   0.01267  Uiso   1.00
H34    H     0.31980   0.76670   0.45290   0.01267  Uiso   1.00
H35    H     0.45970   0.97890   0.38230   0.01267  Uiso   1.00
H36    H     0.49280   0.89210   0.44890   0.01267  Uiso   1.00
H37    H     0.62100   0.33990   0.19410   0.01267  Uiso   1.00
H38    H     0.97470   0.48290   0.38350   0.01267  Uiso   1.00
H39    H     0.99670   0.31830   0.40470   0.01267  Uiso   1.00
H40    H     0.52960   0.13690   0.15270   0.01267  Uiso   1.00
H41    H     0.54780   0.97140   0.17620   0.01267  Uiso   1.00
H42    H     0.90590   0.11340   0.36020   0.01267  Uiso   1.00
H43    H     0.41880   0.59020   0.00960   0.01267  Uiso   1.00
H44    H     0.39270   0.61460   0.30100   0.01267  Uiso   1.00
H45    H     0.20650   0.53130   0.93330   0.01267  Uiso   1.00
H46    H     0.18020   0.54710   0.23330   0.01267  Uiso   1.00
H47    H     0.04030   0.61770   0.02110   0.01267  Uiso   1.00
H48    H     0.00720   0.55110   0.10790   0.01267  Uiso   1.00
C1     C     0.27870   0.27867   0.53753   0.01267  Uiso   1.00
C2     C     0.29380   0.28790   0.42790   0.01267  Uiso   1.00
C3     C     0.19570   0.23630   0.33450   0.01267  Uiso   1.00
C4     C     0.40760   0.35000   0.41960   0.01267  Uiso   1.00
C5     C     0.20610   0.24630   0.23110   0.01267  Uiso   1.00
C6     C     0.42130   0.36170   0.32150   0.01267  Uiso   1.00
C7     C     0.32100   0.30900   0.22300   0.01267  Uiso   1.00
C8     C     0.10480   0.19540   0.13300   0.01267  Uiso   1.00
C9     C     0.11600   0.20820   0.03420   0.01267  Uiso   1.00
C10    C     0.33080   0.31930   0.11890   0.01267  Uiso   1.00
C11    C     0.23100   0.26990   0.02550   0.01267  Uiso   1.00
C12    C     0.24150   0.28130   0.91550   0.01267  Uiso   1.00
C13    C     0.86990   0.05540   0.58560   0.01267  Uiso   1.00
C14    C     0.85480   0.22570   0.59870   0.01267  Uiso   1.00
C15    C     0.74260   0.00900   0.54880   0.01267  Uiso   1.00
C16    C     0.72620   0.18540   0.55900   0.01267  Uiso   1.00
C17    C     0.66830   0.07760   0.53800   0.01267  Uiso   1.00
C18    C     0.53910   0.04646   0.55066   0.01267  Uiso   1.00
C19    C     0.22130   0.46247   0.72133   0.01267  Uiso   1.00
C20    C     0.20620   0.57210   0.71210   0.01267  Uiso   1.00
C21    C     0.30430   0.66550   0.76370   0.01267  Uiso   1.00
C22    C     0.09240   0.58040   0.65000   0.01267  Uiso   1.00
C23    C     0.29390   0.76890   0.75370   0.01267  Uiso   1.00
C24    C     0.07870   0.67850   0.63830   0.01267  Uiso   1.00
C25    C     0.17900   0.77700   0.69100   0.01267  Uiso   1.00
C26    C     0.39520   0.86700   0.80460   0.01267  Uiso   1.00
C27    C     0.38400   0.96580   0.79180   0.01267  Uiso   1.00
C28    C     0.16920   0.88110   0.68070   0.01267  Uiso   1.00
C29    C     0.26900   0.97450   0.73010   0.01267  Uiso   1.00
C30    C     0.25850   0.08450   0.71870   0.01267  Uiso   1.00
C31    C     0.63010   0.41440   0.94460   0.01267  Uiso   1.00
C32    C     0.64520   0.40130   0.77430   0.01267  Uiso   1.00
C33    C     0.75740   0.45120   0.99100   0.01267  Uiso   1.00
C34    C     0.77380   0.44100   0.81460   0.01267  Uiso   1.00
C35    C     0.83170   0.46200   0.92240   0.01267  Uiso   1.00
C36    C     0.96090   0.44934   0.95354   0.01267  Uiso   1.00
C37    C     0.72130   0.72133   0.46247   0.01267  Uiso   1.00
C38    C     0.70620   0.71210   0.57210   0.01267  Uiso   1.00
C39    C     0.80430   0.76370   0.66550   0.01267  Uiso   1.00
C40    C     0.59240   0.65000   0.58040   0.01267  Uiso   1.00
C41    C     0.79390   0.75370   0.76890   0.01267  Uiso   1.00
C42    C     0.57870   0.63830   0.67850   0.01267  Uiso   1.00
C43    C     0.67900   0.69100   0.77700   0.01267  Uiso   1.00
C44    C     0.89520   0.80460   0.86700   0.01267  Uiso   1.00
C45    C     0.88400   0.79180   0.96580   0.01267  Uiso   1.00
C46    C     0.66920   0.68070   0.88110   0.01267  Uiso   1.00
C47    C     0.76900   0.73010   0.97450   0.01267  Uiso   1.00
C48    C     0.75850   0.71870   0.08450   0.01267  Uiso   1.00
C49    C     0.13010   0.94460   0.41440   0.01267  Uiso   1.00
C50    C     0.14520   0.77430   0.40130   0.01267  Uiso   1.00
C51    C     0.25740   0.99100   0.45120   0.01267  Uiso   1.00
C52    C     0.27380   0.81460   0.44100   0.01267  Uiso   1.00
C53    C     0.33170   0.92240   0.46200   0.01267  Uiso   1.00
C54    C     0.46090   0.95354   0.44934   0.01267  Uiso   1.00
C55    C     0.77870   0.53753   0.27867   0.01267  Uiso   1.00
C56    C     0.79380   0.42790   0.28790   0.01267  Uiso   1.00
C57    C     0.69570   0.33450   0.23630   0.01267  Uiso   1.00
C58    C     0.90760   0.41960   0.35000   0.01267  Uiso   1.00
C59    C     0.70610   0.23110   0.24630   0.01267  Uiso   1.00
C60    C     0.92130   0.32150   0.36170   0.01267  Uiso   1.00
C61    C     0.82100   0.22300   0.30900   0.01267  Uiso   1.00
C62    C     0.60480   0.13300   0.19540   0.01267  Uiso   1.00
C63    C     0.61600   0.03420   0.20820   0.01267  Uiso   1.00
C64    C     0.83080   0.11890   0.31930   0.01267  Uiso   1.00
C65    C     0.73100   0.02550   0.26990   0.01267  Uiso   1.00
C66    C     0.74150   0.91550   0.28130   0.01267  Uiso   1.00
C67    C     0.36990   0.58560   0.05540   0.01267  Uiso   1.00
C68    C     0.35480   0.59870   0.22570   0.01267  Uiso   1.00
C69    C     0.24260   0.54880   0.00900   0.01267  Uiso   1.00
C70    C     0.22620   0.55900   0.18540   0.01267  Uiso   1.00
C71    C     0.16830   0.53800   0.07760   0.01267  Uiso   1.00
C72    C     0.03910   0.55066   0.04646   0.01267  Uiso   1.00
N1     N     0.92590   0.16345   0.61495   0.01267  Uiso   1.00
N2     N     0.57410   0.38505   0.83655   0.01267  Uiso   1.00
N3     N     0.07410   0.83655   0.38505   0.01267  Uiso   1.00
N4     N     0.42590   0.61495   0.16345   0.01267  Uiso   1.00
O1     O     0.17090   0.23465   0.54033   0.01267  Uiso   1.00
O2     O     0.37640   0.31699   0.61939   0.01267  Uiso   1.00
O3     O     0.14220   0.24923   0.83657   0.01267  Uiso   1.00
O4     O     0.35010   0.32145   0.91037   0.01267  Uiso   1.00
O5     O     0.32910   0.45967   0.76535   0.01267  Uiso   1.00
O6     O     0.12360   0.38061   0.68301   0.01267  Uiso   1.00
O7     O     0.35780   0.16343   0.75077   0.01267  Uiso   1.00
O8     O     0.14990   0.08963   0.67855   0.01267  Uiso   1.00
O9     O     0.82910   0.76535   0.45967   0.01267  Uiso   1.00
O10    O     0.62360   0.68301   0.38061   0.01267  Uiso   1.00
O11    O     0.85780   0.75077   0.16343   0.01267  Uiso   1.00
O12    O     0.64990   0.67855   0.08963   0.01267  Uiso   1.00
O13    O     0.67090   0.54033   0.23465   0.01267  Uiso   1.00
O14    O     0.87640   0.61939   0.31699   0.01267  Uiso   1.00
O15    O     0.64220   0.83657   0.24923   0.01267  Uiso   1.00
O16    O     0.85010   0.91037   0.32145   0.01267  Uiso   1.00
