data_BUVWOF02_clean
_audit_creation_date              2014-07-02
_audit_creation_method            'Materials Studio'
_symmetry_space_group_name_H-M    'P1'
_symmetry_Int_Tables_number       1
_symmetry_cell_setting            triclinic
loop_
_symmetry_equiv_pos_as_xyz
  x,y,z
_cell_length_a                    9.0879
_cell_length_b                    16.3372
_cell_length_c                    16.3372
_cell_angle_alpha                 63.3572
_cell_angle_beta                  79.3141
_cell_angle_gamma                 100.6860
loop_
_atom_site_label
_atom_site_type_symbol
_atom_site_fract_x
_atom_site_fract_y
_atom_site_fract_z
_atom_site_U_iso_or_equiv
_atom_site_adp_type
_atom_site_occupancy
Fe1    Fe    0.50000   0.50000   0.50000   0.01267  Uiso   1.00
Fe2    Fe    0.00000   0.50000   0.00000   0.01267  Uiso   1.00
Fe3    Fe    0.00000   0.00000   0.50000   0.01267  Uiso   1.00
H1     H     0.60160   0.72480   0.40520   0.01267  Uiso   1.00
H2     H     0.83470   0.84910   0.31440   0.01267  Uiso   1.00
H3     H     0.06210   0.81810   0.26630   0.01267  Uiso   1.00
H4     H     0.06040   0.65990   0.32110   0.01267  Uiso   1.00
H5     H     0.69590   0.17580   0.60350   0.01267  Uiso   1.00
H6     H     0.77090   0.04860   0.61190   0.01267  Uiso   1.00
H7     H     0.14220   0.21640   0.39060   0.01267  Uiso   1.00
H8     H     0.07830   0.35020   0.37920   0.01267  Uiso   1.00
H9     H     0.00680   0.40520   0.87000   0.01267  Uiso   1.00
H10    H     0.14910   0.31440   0.83650   0.01267  Uiso   1.00
H11    H     0.32840   0.26630   0.91560   0.01267  Uiso   1.00
H12    H     0.38150   0.32110   0.01900   0.01267  Uiso   1.00
H13    H     0.29940   0.60350   0.22070   0.01267  Uiso   1.00
H14    H     0.38280   0.61190   0.33950   0.01267  Uiso   1.00
H15    H     0.53280   0.39060   0.39300   0.01267  Uiso   1.00
H16    H     0.45750   0.37920   0.27060   0.01267  Uiso   1.00
H17    H     0.87680   0.87000   0.72480   0.01267  Uiso   1.00
H18    H     0.98560   0.83650   0.84910   0.01267  Uiso   1.00
H19    H     0.24400   0.91560   0.81810   0.01267  Uiso   1.00
H20    H     0.40050   0.01900   0.65990   0.01267  Uiso   1.00
H21    H     0.52010   0.22070   0.17580   0.01267  Uiso   1.00
H22    H     0.72230   0.33950   0.04860   0.01267  Uiso   1.00
H23    H     0.92580   0.39300   0.21640   0.01267  Uiso   1.00
H24    H     0.72810   0.27060   0.35020   0.01267  Uiso   1.00
H25    H     0.39840   0.27520   0.59480   0.01267  Uiso   1.00
H26    H     0.16530   0.15090   0.68560   0.01267  Uiso   1.00
H27    H     0.93790   0.18190   0.73370   0.01267  Uiso   1.00
H28    H     0.93960   0.34010   0.67890   0.01267  Uiso   1.00
H29    H     0.30410   0.82420   0.39650   0.01267  Uiso   1.00
H30    H     0.22910   0.95140   0.38810   0.01267  Uiso   1.00
H31    H     0.85780   0.78360   0.60940   0.01267  Uiso   1.00
H32    H     0.92170   0.64980   0.62080   0.01267  Uiso   1.00
H33    H     0.99320   0.59480   0.13000   0.01267  Uiso   1.00
H34    H     0.85090   0.68560   0.16350   0.01267  Uiso   1.00
H35    H     0.67160   0.73370   0.08440   0.01267  Uiso   1.00
H36    H     0.61850   0.67890   0.98100   0.01267  Uiso   1.00
H37    H     0.70060   0.39650   0.77930   0.01267  Uiso   1.00
H38    H     0.61720   0.38810   0.66050   0.01267  Uiso   1.00
H39    H     0.46720   0.60940   0.60700   0.01267  Uiso   1.00
H40    H     0.54250   0.62080   0.72940   0.01267  Uiso   1.00
H41    H     0.12320   0.13000   0.27520   0.01267  Uiso   1.00
H42    H     0.01440   0.16350   0.15090   0.01267  Uiso   1.00
H43    H     0.75600   0.08440   0.18190   0.01267  Uiso   1.00
H44    H     0.59950   0.98100   0.34010   0.01267  Uiso   1.00
H45    H     0.47990   0.77930   0.82420   0.01267  Uiso   1.00
H46    H     0.27770   0.66050   0.95140   0.01267  Uiso   1.00
H47    H     0.07420   0.60700   0.78360   0.01267  Uiso   1.00
H48    H     0.27190   0.72940   0.64980   0.01267  Uiso   1.00
C1     C     0.69366   0.71132   0.38794   0.01267  Uiso   1.00
C2     C     0.83360   0.78620   0.33280   0.01267  Uiso   1.00
C3     C     0.96950   0.76770   0.30560   0.01267  Uiso   1.00
C4     C     0.96840   0.67430   0.33640   0.01267  Uiso   1.00
C5     C     0.82585   0.60164   0.39139   0.01267  Uiso   1.00
C6     C     0.80736   0.49895   0.43147   0.01267  Uiso   1.00
C7     C     0.82414   0.36252   0.47660   0.01267  Uiso   1.00
C8     C     0.87735   0.27915   0.48800   0.01267  Uiso   1.00
C9     C     0.78729   0.18596   0.55879   0.01267  Uiso   1.00
C10    C     0.83224   0.11003   0.56281   0.01267  Uiso   1.00
C11    C     0.05022   0.20814   0.43358   0.01267  Uiso   1.00
C12    C     0.01212   0.28924   0.42618   0.01267  Uiso   1.00
C13    C     0.08160   0.38794   0.90074   0.01267  Uiso   1.00
C14    C     0.16640   0.33280   0.88100   0.01267  Uiso   1.00
C15    C     0.27510   0.30560   0.92670   0.01267  Uiso   1.00
C16    C     0.30480   0.33640   0.98930   0.01267  Uiso   1.00
C17    C     0.21724   0.39139   0.00697   0.01267  Uiso   1.00
C18    C     0.23883   0.43147   0.06958   0.01267  Uiso   1.00
C19    C     0.30074   0.47660   0.16088   0.01267  Uiso   1.00
C20    C     0.36535   0.48800   0.23285   0.01267  Uiso   1.00
C21    C     0.34608   0.55879   0.25525   0.01267  Uiso   1.00
C22    C     0.39505   0.56281   0.32716   0.01267  Uiso   1.00
C23    C     0.48380   0.43358   0.35828   0.01267  Uiso   1.00
C24    C     0.43830   0.42618   0.28458   0.01267  Uiso   1.00
C25    C     0.98234   0.90074   0.71132   0.01267  Uiso   1.00
C26    C     0.04740   0.88100   0.78620   0.01267  Uiso   1.00
C27    C     0.20180   0.92670   0.76770   0.01267  Uiso   1.00
C28    C     0.29410   0.98930   0.67430   0.01267  Uiso   1.00
C29    C     0.22421   0.00697   0.60164   0.01267  Uiso   1.00
C30    C     0.30841   0.06958   0.49895   0.01267  Uiso   1.00
C31    C     0.46162   0.16088   0.36252   0.01267  Uiso   1.00
C32    C     0.59820   0.23285   0.27915   0.01267  Uiso   1.00
C33    C     0.60133   0.25525   0.18596   0.01267  Uiso   1.00
C34    C     0.72221   0.32716   0.11003   0.01267  Uiso   1.00
C35    C     0.84208   0.35828   0.20814   0.01267  Uiso   1.00
C36    C     0.72288   0.28458   0.28924   0.01267  Uiso   1.00
C37    C     0.30634   0.28868   0.61206   0.01267  Uiso   1.00
C38    C     0.16640   0.21380   0.66720   0.01267  Uiso   1.00
C39    C     0.03050   0.23230   0.69440   0.01267  Uiso   1.00
C40    C     0.03160   0.32570   0.66360   0.01267  Uiso   1.00
C41    C     0.17415   0.39836   0.60861   0.01267  Uiso   1.00
C42    C     0.19264   0.50105   0.56853   0.01267  Uiso   1.00
C43    C     0.17586   0.63748   0.52340   0.01267  Uiso   1.00
C44    C     0.12265   0.72085   0.51200   0.01267  Uiso   1.00
C45    C     0.21271   0.81404   0.44121   0.01267  Uiso   1.00
C46    C     0.16776   0.88997   0.43719   0.01267  Uiso   1.00
C47    C     0.94978   0.79186   0.56642   0.01267  Uiso   1.00
C48    C     0.98788   0.71076   0.57382   0.01267  Uiso   1.00
C49    C     0.91840   0.61206   0.09926   0.01267  Uiso   1.00
C50    C     0.83360   0.66720   0.11900   0.01267  Uiso   1.00
C51    C     0.72490   0.69440   0.07330   0.01267  Uiso   1.00
C52    C     0.69520   0.66360   0.01070   0.01267  Uiso   1.00
C53    C     0.78276   0.60861   0.99303   0.01267  Uiso   1.00
C54    C     0.76117   0.56853   0.93042   0.01267  Uiso   1.00
C55    C     0.69926   0.52340   0.83912   0.01267  Uiso   1.00
C56    C     0.63465   0.51200   0.76715   0.01267  Uiso   1.00
C57    C     0.65392   0.44121   0.74475   0.01267  Uiso   1.00
C58    C     0.60495   0.43719   0.67284   0.01267  Uiso   1.00
C59    C     0.51620   0.56642   0.64172   0.01267  Uiso   1.00
C60    C     0.56170   0.57382   0.71542   0.01267  Uiso   1.00
C61    C     0.01766   0.09926   0.28868   0.01267  Uiso   1.00
C62    C     0.95260   0.11900   0.21380   0.01267  Uiso   1.00
C63    C     0.79820   0.07330   0.23230   0.01267  Uiso   1.00
C64    C     0.70590   0.01070   0.32570   0.01267  Uiso   1.00
C65    C     0.77579   0.99303   0.39836   0.01267  Uiso   1.00
C66    C     0.69159   0.93042   0.50105   0.01267  Uiso   1.00
C67    C     0.53838   0.83912   0.63748   0.01267  Uiso   1.00
C68    C     0.40180   0.76715   0.72085   0.01267  Uiso   1.00
C69    C     0.39867   0.74475   0.81404   0.01267  Uiso   1.00
C70    C     0.27779   0.67284   0.88997   0.01267  Uiso   1.00
C71    C     0.15792   0.64172   0.79186   0.01267  Uiso   1.00
C72    C     0.27712   0.71542   0.71076   0.01267  Uiso   1.00
N1     N     0.68933   0.61870   0.41721   0.01267  Uiso   1.00
N2     N     0.66586   0.44003   0.48985   0.01267  Uiso   1.00
N3     N     0.67445   0.34863   0.52178   0.01267  Uiso   1.00
N4     N     0.91350   0.45528   0.41948   0.01267  Uiso   1.00
N5     N     0.96022   0.11853   0.49997   0.01267  Uiso   1.00
N6     N     0.10654   0.41721   0.96409   0.01267  Uiso   1.00
N7     N     0.15571   0.48985   0.07012   0.01267  Uiso   1.00
N8     N     0.19623   0.52178   0.12959   0.01267  Uiso   1.00
N9     N     0.33298   0.41948   0.12524   0.01267  Uiso   1.00
N10    N     0.46019   0.49997   0.38150   0.01267  Uiso   1.00
N11    N     0.07063   0.96409   0.61870   0.01267  Uiso   1.00
N12    N     0.22583   0.07012   0.44003   0.01267  Uiso   1.00
N13    N     0.32582   0.12959   0.34863   0.01267  Uiso   1.00
N14    N     0.45822   0.12524   0.45528   0.01267  Uiso   1.00
N15    N     0.84169   0.38150   0.11853   0.01267  Uiso   1.00
N16    N     0.31067   0.38130   0.58279   0.01267  Uiso   1.00
N17    N     0.33414   0.55997   0.51015   0.01267  Uiso   1.00
N18    N     0.32555   0.65137   0.47822   0.01267  Uiso   1.00
N19    N     0.08650   0.54472   0.58052   0.01267  Uiso   1.00
N20    N     0.03978   0.88147   0.50003   0.01267  Uiso   1.00
N21    N     0.89346   0.58279   0.03591   0.01267  Uiso   1.00
N22    N     0.84429   0.51015   0.92988   0.01267  Uiso   1.00
N23    N     0.80377   0.47822   0.87041   0.01267  Uiso   1.00
N24    N     0.66702   0.58052   0.87476   0.01267  Uiso   1.00
N25    N     0.53981   0.50003   0.61850   0.01267  Uiso   1.00
N26    N     0.92937   0.03591   0.38130   0.01267  Uiso   1.00
N27    N     0.77417   0.92988   0.55997   0.01267  Uiso   1.00
N28    N     0.67418   0.87041   0.65137   0.01267  Uiso   1.00
N29    N     0.54178   0.87476   0.54472   0.01267  Uiso   1.00
N30    N     0.15831   0.61850   0.88147   0.01267  Uiso   1.00
