data_BUVWOF03_clean
_audit_creation_date              2014-07-02
_audit_creation_method            'Materials Studio'
_symmetry_space_group_name_H-M    'P1'
_symmetry_Int_Tables_number       1
_symmetry_cell_setting            triclinic
loop_
_symmetry_equiv_pos_as_xyz
  x,y,z
_cell_length_a                    16.1390
_cell_length_b                    18.0992
_cell_length_c                    18.0992
_cell_angle_alpha                 68.4397
_cell_angle_beta                  72.7086
_cell_angle_gamma                 107.2910
loop_
_atom_site_label
_atom_site_type_symbol
_atom_site_fract_x
_atom_site_fract_y
_atom_site_fract_z
_atom_site_U_iso_or_equiv
_atom_site_adp_type
_atom_site_occupancy
Fe1    Fe    0.50000   0.00000   0.50000   0.01267  Uiso   1.00
Fe2    Fe    0.00000   0.50000   0.50000   0.01267  Uiso   1.00
Fe3    Fe    0.50000   0.50000   0.00000   0.01267  Uiso   1.00
H1     H     0.29070   0.94320   0.79210   0.01267  Uiso   1.00
H2     H     0.25520   0.06180   0.74720   0.01267  Uiso   1.00
H3     H     0.31490   0.15550   0.59580   0.01267  Uiso   1.00
H4     H     0.40790   0.12930   0.49580   0.01267  Uiso   1.00
H5     H     0.66440   0.31570   0.08670   0.01267  Uiso   1.00
H6     H     0.64040   0.42240   0.99630   0.01267  Uiso   1.00
H7     H     0.42920   0.38420   0.19660   0.01267  Uiso   1.00
H8     H     0.44930   0.27570   0.29240   0.01267  Uiso   1.00
H9     H     0.08280   0.79210   0.26470   0.01267  Uiso   1.00
H10    H     0.00240   0.74720   0.19100   0.01267  Uiso   1.00
H11    H     0.91070   0.59580   0.24870   0.01267  Uiso   1.00
H12    H     0.90370   0.49580   0.37490   0.01267  Uiso   1.00
H13    H     0.75110   0.08670   0.59760   0.01267  Uiso   1.00
H14    H     0.63670   0.99630   0.58130   0.01267  Uiso   1.00
H15    H     0.62580   0.19660   0.41920   0.01267  Uiso   1.00
H16    H     0.74170   0.29240   0.43190   0.01267  Uiso   1.00
H17    H     0.34750   0.26470   0.94320   0.01267  Uiso   1.00
H18    H     0.19340   0.19100   0.06180   0.01267  Uiso   1.00
H19    H     0.15940   0.24870   0.15550   0.01267  Uiso   1.00
H20    H     0.27860   0.37490   0.12930   0.01267  Uiso   1.00
H21    H     0.34870   0.59760   0.31570   0.01267  Uiso   1.00
H22    H     0.21800   0.58130   0.42240   0.01267  Uiso   1.00
H23    H     0.04500   0.41920   0.38420   0.01267  Uiso   1.00
H24    H     0.17360   0.43190   0.27570   0.01267  Uiso   1.00
H25    H     0.70930   0.05680   0.20790   0.01267  Uiso   1.00
H26    H     0.74480   0.93820   0.25280   0.01267  Uiso   1.00
H27    H     0.68510   0.84450   0.40420   0.01267  Uiso   1.00
H28    H     0.59210   0.87070   0.50420   0.01267  Uiso   1.00
H29    H     0.33560   0.68430   0.91330   0.01267  Uiso   1.00
H30    H     0.35960   0.57760   0.00370   0.01267  Uiso   1.00
H31    H     0.57080   0.61580   0.80340   0.01267  Uiso   1.00
H32    H     0.55070   0.72430   0.70760   0.01267  Uiso   1.00
H33    H     0.91720   0.20790   0.73530   0.01267  Uiso   1.00
H34    H     0.99760   0.25280   0.80900   0.01267  Uiso   1.00
H35    H     0.08930   0.40420   0.75130   0.01267  Uiso   1.00
H36    H     0.09630   0.50420   0.62510   0.01267  Uiso   1.00
H37    H     0.24890   0.91330   0.40240   0.01267  Uiso   1.00
H38    H     0.36330   0.00370   0.41870   0.01267  Uiso   1.00
H39    H     0.37420   0.80340   0.58080   0.01267  Uiso   1.00
H40    H     0.25830   0.70760   0.56810   0.01267  Uiso   1.00
H41    H     0.65250   0.73530   0.05680   0.01267  Uiso   1.00
H42    H     0.80660   0.80900   0.93820   0.01267  Uiso   1.00
H43    H     0.84060   0.75130   0.84450   0.01267  Uiso   1.00
H44    H     0.72140   0.62510   0.87070   0.01267  Uiso   1.00
H45    H     0.65130   0.40240   0.68430   0.01267  Uiso   1.00
H46    H     0.78200   0.41870   0.57760   0.01267  Uiso   1.00
H47    H     0.95500   0.58080   0.61580   0.01267  Uiso   1.00
H48    H     0.82640   0.56810   0.72430   0.01267  Uiso   1.00
C1     C     0.59360   0.09650   0.31120   0.01267  Uiso   1.00
C2     C     0.43920   0.79860   0.73900   0.01267  Uiso   1.00
C3     C     0.62560   0.02890   0.32940   0.01267  Uiso   1.00
C4     C     0.31600   0.98280   0.73150   0.01267  Uiso   1.00
C5     C     0.29360   0.05250   0.70520   0.01267  Uiso   1.00
C6     C     0.32910   0.10780   0.61590   0.01267  Uiso   1.00
C7     C     0.38570   0.09240   0.55640   0.01267  Uiso   1.00
C8     C     0.44450   0.72090   0.79960   0.01267  Uiso   1.00
C9     C     0.38640   0.67290   0.88840   0.01267  Uiso   1.00
C10    C     0.40090   0.60790   0.94250   0.01267  Uiso   1.00
C11    C     0.47780   0.37020   0.17270   0.01267  Uiso   1.00
C12    C     0.48870   0.30360   0.23120   0.01267  Uiso   1.00
C13    C     0.90480   0.31120   0.59230   0.01267  Uiso   1.00
C14    C     0.17820   0.73900   0.46240   0.01267  Uiso   1.00
C15    C     0.95500   0.32940   0.64170   0.01267  Uiso   1.00
C16    C     0.04750   0.73150   0.28570   0.01267  Uiso   1.00
C17    C     0.99880   0.70520   0.24230   0.01267  Uiso   1.00
C18    C     0.94500   0.61590   0.27630   0.01267  Uiso   1.00
C19    C     0.94210   0.55640   0.35120   0.01267  Uiso   1.00
C20    C     0.24410   0.79960   0.47950   0.01267  Uiso   1.00
C21    C     0.27480   0.88840   0.43870   0.01267  Uiso   1.00
C22    C     0.34340   0.94250   0.44960   0.01267  Uiso   1.00
C23    C     0.65050   0.17270   0.45710   0.01267  Uiso   1.00
C24    C     0.71990   0.23120   0.46520   0.01267  Uiso   1.00
C25    C     0.49710   0.59230   0.09650   0.01267  Uiso   1.00
C26    C     0.64060   0.46240   0.79860   0.01267  Uiso   1.00
C27    C     0.59670   0.64170   0.02890   0.01267  Uiso   1.00
C28    C     0.33320   0.28570   0.98280   0.01267  Uiso   1.00
C29    C     0.24110   0.24230   0.05250   0.01267  Uiso   1.00
C30    C     0.22130   0.27630   0.10780   0.01267  Uiso   1.00
C31    C     0.29330   0.35120   0.09240   0.01267  Uiso   1.00
C32    C     0.72360   0.47950   0.72090   0.01267  Uiso   1.00
C33    C     0.71350   0.43870   0.67290   0.01267  Uiso   1.00
C34    C     0.79300   0.44960   0.60790   0.01267  Uiso   1.00
C35    C     0.10760   0.45710   0.37020   0.01267  Uiso   1.00
C36    C     0.18510   0.46520   0.30360   0.01267  Uiso   1.00
C37    C     0.40640   0.90350   0.68880   0.01267  Uiso   1.00
C38    C     0.56080   0.20140   0.26100   0.01267  Uiso   1.00
C39    C     0.37440   0.97110   0.67060   0.01267  Uiso   1.00
C40    C     0.68400   0.01720   0.26850   0.01267  Uiso   1.00
C41    C     0.70640   0.94750   0.29480   0.01267  Uiso   1.00
C42    C     0.67090   0.89220   0.38410   0.01267  Uiso   1.00
C43    C     0.61430   0.90760   0.44360   0.01267  Uiso   1.00
C44    C     0.55550   0.27910   0.20040   0.01267  Uiso   1.00
C45    C     0.61360   0.32710   0.11160   0.01267  Uiso   1.00
C46    C     0.59910   0.39210   0.05750   0.01267  Uiso   1.00
C47    C     0.52220   0.62980   0.82730   0.01267  Uiso   1.00
C48    C     0.51130   0.69640   0.76880   0.01267  Uiso   1.00
C49    C     0.09520   0.68880   0.40770   0.01267  Uiso   1.00
C50    C     0.82180   0.26100   0.53760   0.01267  Uiso   1.00
C51    C     0.04500   0.67060   0.35830   0.01267  Uiso   1.00
C52    C     0.95250   0.26850   0.71430   0.01267  Uiso   1.00
C53    C     0.00120   0.29480   0.75770   0.01267  Uiso   1.00
C54    C     0.05500   0.38410   0.72370   0.01267  Uiso   1.00
C55    C     0.05790   0.44360   0.64880   0.01267  Uiso   1.00
C56    C     0.75590   0.20040   0.52050   0.01267  Uiso   1.00
C57    C     0.72520   0.11160   0.56130   0.01267  Uiso   1.00
C58    C     0.65660   0.05750   0.55040   0.01267  Uiso   1.00
C59    C     0.34950   0.82730   0.54290   0.01267  Uiso   1.00
C60    C     0.28010   0.76880   0.53480   0.01267  Uiso   1.00
C61    C     0.50290   0.40770   0.90350   0.01267  Uiso   1.00
C62    C     0.35940   0.53760   0.20140   0.01267  Uiso   1.00
C63    C     0.40330   0.35830   0.97110   0.01267  Uiso   1.00
C64    C     0.66680   0.71430   0.01720   0.01267  Uiso   1.00
C65    C     0.75890   0.75770   0.94750   0.01267  Uiso   1.00
C66    C     0.77870   0.72370   0.89220   0.01267  Uiso   1.00
C67    C     0.70670   0.64880   0.90760   0.01267  Uiso   1.00
C68    C     0.27640   0.52050   0.27910   0.01267  Uiso   1.00
C69    C     0.28650   0.56130   0.32710   0.01267  Uiso   1.00
C70    C     0.20700   0.55040   0.39210   0.01267  Uiso   1.00
C71    C     0.89240   0.54290   0.62980   0.01267  Uiso   1.00
C72    C     0.81490   0.53480   0.69640   0.01267  Uiso   1.00
N1     N     0.46863   0.90563   0.61704   0.01267  Uiso   1.00
N2     N     0.48871   0.83713   0.65150   0.01267  Uiso   1.00
N3     N     0.61357   0.16324   0.23343   0.01267  Uiso   1.00
N4     N     0.58930   0.97385   0.41835   0.01267  Uiso   1.00
N5     N     0.46820   0.58467   0.91537   0.01267  Uiso   1.00
N6     N     0.08567   0.61704   0.47733   0.01267  Uiso   1.00
N7     N     0.14021   0.65150   0.51137   0.01267  Uiso   1.00
N8     N     0.84700   0.23343   0.60333   0.01267  Uiso   1.00
N9     N     0.00765   0.41835   0.60780   0.01267  Uiso   1.00
N10    N     0.38357   0.91537   0.49996   0.01267  Uiso   1.00
N11    N     0.56300   0.47733   0.90563   0.01267  Uiso   1.00
N12    N     0.65158   0.51137   0.83713   0.01267  Uiso   1.00
N13    N     0.45033   0.60333   0.16324   0.01267  Uiso   1.00
N14    N     0.61545   0.60780   0.97385   0.01267  Uiso   1.00
N15    N     0.88353   0.49996   0.58467   0.01267  Uiso   1.00
N16    N     0.53137   0.09437   0.38296   0.01267  Uiso   1.00
N17    N     0.51129   0.16287   0.34850   0.01267  Uiso   1.00
N18    N     0.38643   0.83676   0.76657   0.01267  Uiso   1.00
N19    N     0.41070   0.02615   0.58165   0.01267  Uiso   1.00
N20    N     0.53180   0.41533   0.08463   0.01267  Uiso   1.00
N21    N     0.91433   0.38296   0.52267   0.01267  Uiso   1.00
N22    N     0.85979   0.34850   0.48863   0.01267  Uiso   1.00
N23    N     0.15300   0.76657   0.39667   0.01267  Uiso   1.00
N24    N     0.99235   0.58165   0.39220   0.01267  Uiso   1.00
N25    N     0.61643   0.08463   0.50004   0.01267  Uiso   1.00
N26    N     0.43700   0.52267   0.09437   0.01267  Uiso   1.00
N27    N     0.34842   0.48863   0.16287   0.01267  Uiso   1.00
N28    N     0.54967   0.39667   0.83676   0.01267  Uiso   1.00
N29    N     0.38455   0.39220   0.02615   0.01267  Uiso   1.00
N30    N     0.11647   0.50004   0.41533   0.01267  Uiso   1.00
Fe4    Fe    0.50000   0.50000   0.50000   0.01267  Uiso   1.00
Fe5    Fe    0.00000   0.00000   0.50000   0.01267  Uiso   1.00
Fe6    Fe    0.00000   0.50000  -0.00000   0.01267  Uiso   1.00
H49    H     0.41720   0.26470   0.79210   0.01267  Uiso   1.00
H50    H     0.49760   0.19100   0.74720   0.01267  Uiso   1.00
H51    H     0.58930   0.24870   0.59580   0.01267  Uiso   1.00
H52    H     0.59630   0.37490   0.49580   0.01267  Uiso   1.00
H53    H     0.74890   0.59760   0.08670   0.01267  Uiso   1.00
H54    H     0.86330   0.58130   0.99630   0.01267  Uiso   1.00
H55    H     0.87420   0.41920   0.19660   0.01267  Uiso   1.00
H56    H     0.75830   0.43190   0.29240   0.01267  Uiso   1.00
H57    H     0.15250   0.94320   0.26470   0.01267  Uiso   1.00
H58    H     0.30660   0.06180   0.19100   0.01267  Uiso   1.00
H59    H     0.34060   0.15550   0.24870   0.01267  Uiso   1.00
H60    H     0.22140   0.12930   0.37490   0.01267  Uiso   1.00
H61    H     0.15130   0.31570   0.59760   0.01267  Uiso   1.00
H62    H     0.28200   0.42240   0.58130   0.01267  Uiso   1.00
H63    H     0.45500   0.38420   0.41920   0.01267  Uiso   1.00
H64    H     0.32640   0.27570   0.43190   0.01267  Uiso   1.00
H65    H     0.20930   0.79210   0.94320   0.01267  Uiso   1.00
H66    H     0.24480   0.74720   0.06180   0.01267  Uiso   1.00
H67    H     0.18510   0.59580   0.15550   0.01267  Uiso   1.00
H68    H     0.09210   0.49580   0.12930   0.01267  Uiso   1.00
H69    H     0.83560   0.08670   0.31570   0.01267  Uiso   1.00
H70    H     0.85960   0.99630   0.42240   0.01267  Uiso   1.00
H71    H     0.07080   0.19660   0.38420   0.01267  Uiso   1.00
H72    H     0.05070   0.29240   0.27570   0.01267  Uiso   1.00
H73    H     0.58280   0.73530   0.20790   0.01267  Uiso   1.00
H74    H     0.50240   0.80900   0.25280   0.01267  Uiso   1.00
H75    H     0.41070   0.75130   0.40420   0.01267  Uiso   1.00
H76    H     0.40370   0.62510   0.50420   0.01267  Uiso   1.00
H77    H     0.25110   0.40240   0.91330   0.01267  Uiso   1.00
H78    H     0.13670   0.41870   0.00370   0.01267  Uiso   1.00
H79    H     0.12580   0.58080   0.80340   0.01267  Uiso   1.00
H80    H     0.24170   0.56810   0.70760   0.01267  Uiso   1.00
H81    H     0.84750   0.05680   0.73530   0.01267  Uiso   1.00
H82    H     0.69340   0.93820   0.80900   0.01267  Uiso   1.00
H83    H     0.65940   0.84450   0.75130   0.01267  Uiso   1.00
H84    H     0.77860   0.87070   0.62510   0.01267  Uiso   1.00
H85    H     0.84870   0.68430   0.40240   0.01267  Uiso   1.00
H86    H     0.71800   0.57760   0.41870   0.01267  Uiso   1.00
H87    H     0.54500   0.61580   0.58080   0.01267  Uiso   1.00
H88    H     0.67360   0.72430   0.56810   0.01267  Uiso   1.00
H89    H     0.79070   0.20790   0.05680   0.01267  Uiso   1.00
H90    H     0.75520   0.25280   0.93820   0.01267  Uiso   1.00
H91    H     0.81490   0.40420   0.84450   0.01267  Uiso   1.00
H92    H     0.90790   0.50420   0.87070   0.01267  Uiso   1.00
H93    H     0.16440   0.91330   0.68430   0.01267  Uiso   1.00
H94    H     0.14040   0.00370   0.57760   0.01267  Uiso   1.00
H95    H     0.92920   0.80340   0.61580   0.01267  Uiso   1.00
H96    H     0.94930   0.70760   0.72430   0.01267  Uiso   1.00
C73    C     0.59520   0.59230   0.31120   0.01267  Uiso   1.00
C74    C     0.32180   0.46240   0.73900   0.01267  Uiso   1.00
C75    C     0.54500   0.64170   0.32940   0.01267  Uiso   1.00
C76    C     0.45250   0.28570   0.73150   0.01267  Uiso   1.00
C77    C     0.50120   0.24230   0.70520   0.01267  Uiso   1.00
C78    C     0.55500   0.27630   0.61590   0.01267  Uiso   1.00
C79    C     0.55790   0.35120   0.55640   0.01267  Uiso   1.00
C80    C     0.25590   0.47950   0.79960   0.01267  Uiso   1.00
C81    C     0.22520   0.43870   0.88840   0.01267  Uiso   1.00
C82    C     0.15660   0.44960   0.94250   0.01267  Uiso   1.00
C83    C     0.84950   0.45710   0.17270   0.01267  Uiso   1.00
C84    C     0.78010   0.46520   0.23120   0.01267  Uiso   1.00
C85    C     0.00290   0.09650   0.59230   0.01267  Uiso   1.00
C86    C     0.85940   0.79860   0.46240   0.01267  Uiso   1.00
C87    C     0.90330   0.02890   0.64170   0.01267  Uiso   1.00
C88    C     0.16680   0.98280   0.28570   0.01267  Uiso   1.00
C89    C     0.25890   0.05250   0.24230   0.01267  Uiso   1.00
C90    C     0.27870   0.10780   0.27630   0.01267  Uiso   1.00
C91    C     0.20670   0.09240   0.35120   0.01267  Uiso   1.00
C92    C     0.77640   0.72090   0.47950   0.01267  Uiso   1.00
C93    C     0.78650   0.67290   0.43870   0.01267  Uiso   1.00
C94    C     0.70700   0.60790   0.44960   0.01267  Uiso   1.00
C95    C     0.39240   0.37020   0.45710   0.01267  Uiso   1.00
C96    C     0.31490   0.30360   0.46520   0.01267  Uiso   1.00
C97    C     0.90640   0.31120   0.09650   0.01267  Uiso   1.00
C98    C     0.06080   0.73900   0.79860   0.01267  Uiso   1.00
C99    C     0.87440   0.32940   0.02890   0.01267  Uiso   1.00
C100   C     0.18400   0.73150   0.98280   0.01267  Uiso   1.00
C101   C     0.20640   0.70520   0.05250   0.01267  Uiso   1.00
C102   C     0.17090   0.61590   0.10780   0.01267  Uiso   1.00
C103   C     0.11430   0.55640   0.09240   0.01267  Uiso   1.00
C104   C     0.05550   0.79960   0.72090   0.01267  Uiso   1.00
C105   C     0.11360   0.88840   0.67290   0.01267  Uiso   1.00
C106   C     0.09910   0.94250   0.60790   0.01267  Uiso   1.00
C107   C     0.02220   0.17270   0.37020   0.01267  Uiso   1.00
C108   C     0.01130   0.23120   0.30360   0.01267  Uiso   1.00
C109   C     0.40480   0.40770   0.68880   0.01267  Uiso   1.00
C110   C     0.67820   0.53760   0.26100   0.01267  Uiso   1.00
C111   C     0.45500   0.35830   0.67060   0.01267  Uiso   1.00
C112   C     0.54750   0.71430   0.26850   0.01267  Uiso   1.00
C113   C     0.49880   0.75770   0.29480   0.01267  Uiso   1.00
C114   C     0.44500   0.72370   0.38410   0.01267  Uiso   1.00
C115   C     0.44210   0.64880   0.44360   0.01267  Uiso   1.00
C116   C     0.74410   0.52050   0.20040   0.01267  Uiso   1.00
C117   C     0.77480   0.56130   0.11160   0.01267  Uiso   1.00
C118   C     0.84340   0.55040   0.05750   0.01267  Uiso   1.00
C119   C     0.15050   0.54290   0.82730   0.01267  Uiso   1.00
C120   C     0.21990   0.53480   0.76880   0.01267  Uiso   1.00
C121   C     0.99710   0.90350   0.40770   0.01267  Uiso   1.00
C122   C     0.14060   0.20140   0.53760   0.01267  Uiso   1.00
C123   C     0.09670   0.97110   0.35830   0.01267  Uiso   1.00
C124   C     0.83320   0.01720   0.71430   0.01267  Uiso   1.00
C125   C     0.74110   0.94750   0.75770   0.01267  Uiso   1.00
C126   C     0.72130   0.89220   0.72370   0.01267  Uiso   1.00
C127   C     0.79330   0.90760   0.64880   0.01267  Uiso   1.00
C128   C     0.22360   0.27910   0.52050   0.01267  Uiso   1.00
C129   C     0.21350   0.32710   0.56130   0.01267  Uiso   1.00
C130   C     0.29300   0.39210   0.55040   0.01267  Uiso   1.00
C131   C     0.60760   0.62980   0.54290   0.01267  Uiso   1.00
C132   C     0.68510   0.69640   0.53480   0.01267  Uiso   1.00
C133   C     0.09360   0.68880   0.90350   0.01267  Uiso   1.00
C134   C     0.93920   0.26100   0.20140   0.01267  Uiso   1.00
C135   C     0.12560   0.67060   0.97110   0.01267  Uiso   1.00
C136   C     0.81600   0.26850   0.01720   0.01267  Uiso   1.00
C137   C     0.79360   0.29480   0.94750   0.01267  Uiso   1.00
C138   C     0.82910   0.38410   0.89220   0.01267  Uiso   1.00
C139   C     0.88570   0.44360   0.90760   0.01267  Uiso   1.00
C140   C     0.94450   0.20040   0.27910   0.01267  Uiso   1.00
C141   C     0.88640   0.11160   0.32710   0.01267  Uiso   1.00
C142   C     0.90090   0.05750   0.39210   0.01267  Uiso   1.00
C143   C     0.97780   0.82730   0.62980   0.01267  Uiso   1.00
C144   C     0.98870   0.76880   0.69640   0.01267  Uiso   1.00
N31    N     0.41433   0.47733   0.61704   0.01267  Uiso   1.00
N32    N     0.35979   0.51137   0.65150   0.01267  Uiso   1.00
N33    N     0.65300   0.60333   0.23343   0.01267  Uiso   1.00
N34    N     0.49235   0.60780   0.41835   0.01267  Uiso   1.00
N35    N     0.11643   0.49996   0.91537   0.01267  Uiso   1.00
N36    N     0.93700   0.90563   0.47733   0.01267  Uiso   1.00
N37    N     0.84842   0.83713   0.51137   0.01267  Uiso   1.00
N38    N     0.04967   0.16324   0.60333   0.01267  Uiso   1.00
N39    N     0.88455   0.97385   0.60780   0.01267  Uiso   1.00
N40    N     0.61647   0.58467   0.49996   0.01267  Uiso   1.00
N41    N     0.03137   0.61704   0.90563   0.01267  Uiso   1.00
N42    N     0.01129   0.65150   0.83713   0.01267  Uiso   1.00
N43    N     0.88643   0.23343   0.16324   0.01267  Uiso   1.00
N44    N     0.91070   0.41835   0.97385   0.01267  Uiso   1.00
N45    N     0.03180   0.91537   0.58467   0.01267  Uiso   1.00
N46    N     0.58567   0.52267   0.38296   0.01267  Uiso   1.00
N47    N     0.64021   0.48863   0.34850   0.01267  Uiso   1.00
N48    N     0.34700   0.39667   0.76657   0.01267  Uiso   1.00
N49    N     0.50765   0.39220   0.58165   0.01267  Uiso   1.00
N50    N     0.88357   0.50004   0.08463   0.01267  Uiso   1.00
N51    N     0.06300   0.09437   0.52267   0.01267  Uiso   1.00
N52    N     0.15158   0.16287   0.48863   0.01267  Uiso   1.00
N53    N     0.95033   0.83676   0.39667   0.01267  Uiso   1.00
N54    N     0.11545   0.02615   0.39220   0.01267  Uiso   1.00
N55    N     0.38353   0.41533   0.50004   0.01267  Uiso   1.00
N56    N     0.96863   0.38296   0.09437   0.01267  Uiso   1.00
N57    N     0.98871   0.34850   0.16287   0.01267  Uiso   1.00
N58    N     0.11357   0.76657   0.83676   0.01267  Uiso   1.00
N59    N     0.08930   0.58165   0.02615   0.01267  Uiso   1.00
N60    N     0.96820   0.08463   0.41533   0.01267  Uiso   1.00
