data_BUVXOG_clean
_audit_creation_date              2014-07-02
_audit_creation_method            'Materials Studio'
_symmetry_space_group_name_H-M    'P1'
_symmetry_Int_Tables_number       1
_symmetry_cell_setting            triclinic
loop_
_symmetry_equiv_pos_as_xyz
  x,y,z
_cell_length_a                    8.9371
_cell_length_b                    16.2155
_cell_length_c                    16.2155
_cell_angle_alpha                 63.2965
_cell_angle_beta                  79.4138
_cell_angle_gamma                 100.5860
loop_
_atom_site_label
_atom_site_type_symbol
_atom_site_fract_x
_atom_site_fract_y
_atom_site_fract_z
_atom_site_U_iso_or_equiv
_atom_site_adp_type
_atom_site_occupancy
Fe1    Fe    0.50000   0.00000   0.50000   0.01267  Uiso   1.00
Fe2    Fe    0.00000   0.50000   0.50000   0.01267  Uiso   1.00
Fe3    Fe    0.50000   0.50000   0.00000   0.01267  Uiso   1.00
H1     H     0.09870   0.98050   0.33650   0.01267  Uiso   1.00
H2     H     0.25780   0.08790   0.17540   0.01267  Uiso   1.00
H3     H     0.52600   0.16450   0.14580   0.01267  Uiso   1.00
H4     H     0.62970   0.13130   0.27400   0.01267  Uiso   1.00
H5     H     0.76370   0.72740   0.64830   0.01267  Uiso   1.00
H6     H     0.57080   0.60310   0.78230   0.01267  Uiso   1.00
H7     H     0.77050   0.66460   0.95270   0.01267  Uiso   1.00
H8     H     0.97500   0.78640   0.82310   0.01267  Uiso   1.00
H9     H     0.43520   0.33650   0.68300   0.01267  Uiso   1.00
H10    H     0.43320   0.17540   0.73670   0.01267  Uiso   1.00
H11    H     0.67180   0.14580   0.68970   0.01267  Uiso   1.00
H12    H     0.90370   0.27400   0.59470   0.01267  Uiso   1.00
H13    H     0.41200   0.64830   0.62430   0.01267  Uiso   1.00
H14    H     0.35310   0.78230   0.61460   0.01267  Uiso   1.00
H15    H     0.72320   0.95270   0.38270   0.01267  Uiso   1.00
H16    H     0.79810   0.82310   0.39050   0.01267  Uiso   1.00
H17    H     0.11820   0.68300   0.98050   0.01267  Uiso   1.00
H18    H     0.16990   0.73670   0.08790   0.01267  Uiso   1.00
H19    H     0.36150   0.68970   0.16450   0.01267  Uiso   1.00
H20    H     0.49840   0.59470   0.13130   0.01267  Uiso   1.00
H21    H     0.03630   0.62430   0.72740   0.01267  Uiso   1.00
H22    H     0.96770   0.61460   0.60310   0.01267  Uiso   1.00
H23    H     0.10590   0.38270   0.66460   0.01267  Uiso   1.00
H24    H     0.18860   0.39050   0.78640   0.01267  Uiso   1.00
H25    H     0.90130   0.01950   0.66350   0.01267  Uiso   1.00
H26    H     0.74220   0.91210   0.82460   0.01267  Uiso   1.00
H27    H     0.47400   0.83550   0.85420   0.01267  Uiso   1.00
H28    H     0.37030   0.86870   0.72600   0.01267  Uiso   1.00
H29    H     0.23630   0.27260   0.35170   0.01267  Uiso   1.00
H30    H     0.42920   0.39690   0.21770   0.01267  Uiso   1.00
H31    H     0.22950   0.33540   0.04730   0.01267  Uiso   1.00
H32    H     0.02500   0.21360   0.17690   0.01267  Uiso   1.00
H33    H     0.56480   0.66350   0.31700   0.01267  Uiso   1.00
H34    H     0.56680   0.82460   0.26330   0.01267  Uiso   1.00
H35    H     0.32820   0.85420   0.31030   0.01267  Uiso   1.00
H36    H     0.09630   0.72600   0.40530   0.01267  Uiso   1.00
H37    H     0.58800   0.35170   0.37570   0.01267  Uiso   1.00
H38    H     0.64690   0.21770   0.38540   0.01267  Uiso   1.00
H39    H     0.27680   0.04730   0.61730   0.01267  Uiso   1.00
H40    H     0.20190   0.17690   0.60950   0.01267  Uiso   1.00
H41    H     0.88180   0.31700   0.01950   0.01267  Uiso   1.00
H42    H     0.83010   0.26330   0.91210   0.01267  Uiso   1.00
H43    H     0.63850   0.31030   0.83550   0.01267  Uiso   1.00
H44    H     0.50160   0.40530   0.86870   0.01267  Uiso   1.00
H45    H     0.96370   0.37570   0.27260   0.01267  Uiso   1.00
H46    H     0.03230   0.38540   0.39690   0.01267  Uiso   1.00
H47    H     0.89410   0.61730   0.33540   0.01267  Uiso   1.00
H48    H     0.81140   0.60950   0.21360   0.01267  Uiso   1.00
C1     C     0.18990   0.93270   0.49780   0.01267  Uiso   1.00
C2     C     0.03310   0.84160   0.63650   0.01267  Uiso   1.00
C3     C     0.27430   0.99460   0.39620   0.01267  Uiso   1.00
C4     C     0.20840   0.01200   0.32240   0.01267  Uiso   1.00
C5     C     0.30160   0.07540   0.22740   0.01267  Uiso   1.00
C6     C     0.45930   0.12000   0.21020   0.01267  Uiso   1.00
C7     C     0.52060   0.09990   0.28700   0.01267  Uiso   1.00
C8     C     0.89680   0.77040   0.71920   0.01267  Uiso   1.00
C9     C     0.76990   0.71410   0.71060   0.01267  Uiso   1.00
C10    C     0.65500   0.64050   0.79090   0.01267  Uiso   1.00
C11    C     0.77160   0.67560   0.88990   0.01267  Uiso   1.00
C12    C     0.89280   0.74920   0.81290   0.01267  Uiso   1.00
C13    C     0.68770   0.49780   0.56950   0.01267  Uiso   1.00
C14    C     0.66960   0.63650   0.52190   0.01267  Uiso   1.00
C15    C     0.67050   0.39620   0.60920   0.01267  Uiso   1.00
C16    C     0.53080   0.32240   0.66560   0.01267  Uiso   1.00
C17    C     0.52900   0.22740   0.69720   0.01267  Uiso   1.00
C18    C     0.66950   0.21020   0.66980   0.01267  Uiso   1.00
C19    C     0.80760   0.28700   0.61310   0.01267  Uiso   1.00
C20    C     0.61600   0.71920   0.51040   0.01267  Uiso   1.00
C21    C     0.48050   0.71060   0.57530   0.01267  Uiso   1.00
C22    C     0.44590   0.79090   0.56860   0.01267  Uiso   1.00
C23    C     0.66150   0.88990   0.43450   0.01267  Uiso   1.00
C24    C     0.70570   0.81290   0.43790   0.01267  Uiso   1.00
C25    C     0.25720   0.56950   0.93270   0.01267  Uiso   1.00
C26    C     0.19150   0.52190   0.84160   0.01267  Uiso   1.00
C27    C     0.27970   0.60920   0.99460   0.01267  Uiso   1.00
C28    C     0.19640   0.66560   0.01200   0.01267  Uiso   1.00
C29    C     0.22620   0.69720   0.07540   0.01267  Uiso   1.00
C30    C     0.33930   0.66980   0.12000   0.01267  Uiso   1.00
C31    C     0.42070   0.61310   0.09990   0.01267  Uiso   1.00
C32    C     0.12640   0.51040   0.77040   0.01267  Uiso   1.00
C33    C     0.05580   0.57530   0.71410   0.01267  Uiso   1.00
C34    C     0.01450   0.56860   0.64050   0.01267  Uiso   1.00
C35    C     0.09600   0.43450   0.67560   0.01267  Uiso   1.00
C36    C     0.14360   0.43790   0.74920   0.01267  Uiso   1.00
C37    C     0.81010   0.06730   0.50220   0.01267  Uiso   1.00
C38    C     0.96690   0.15840   0.36350   0.01267  Uiso   1.00
C39    C     0.72570   0.00540   0.60380   0.01267  Uiso   1.00
C40    C     0.79160   0.98800   0.67760   0.01267  Uiso   1.00
C41    C     0.69840   0.92460   0.77260   0.01267  Uiso   1.00
C42    C     0.54070   0.88000   0.78980   0.01267  Uiso   1.00
C43    C     0.47940   0.90010   0.71300   0.01267  Uiso   1.00
C44    C     0.10320   0.22960   0.28080   0.01267  Uiso   1.00
C45    C     0.23010   0.28590   0.28940   0.01267  Uiso   1.00
C46    C     0.34500   0.35950   0.20910   0.01267  Uiso   1.00
C47    C     0.22840   0.32440   0.11010   0.01267  Uiso   1.00
C48    C     0.10720   0.25080   0.18710   0.01267  Uiso   1.00
C49    C     0.31230   0.50220   0.43050   0.01267  Uiso   1.00
C50    C     0.33040   0.36350   0.47810   0.01267  Uiso   1.00
C51    C     0.32950   0.60380   0.39080   0.01267  Uiso   1.00
C52    C     0.46920   0.67760   0.33440   0.01267  Uiso   1.00
C53    C     0.47100   0.77260   0.30280   0.01267  Uiso   1.00
C54    C     0.33050   0.78980   0.33020   0.01267  Uiso   1.00
C55    C     0.19240   0.71300   0.38690   0.01267  Uiso   1.00
C56    C     0.38400   0.28080   0.48960   0.01267  Uiso   1.00
C57    C     0.51950   0.28940   0.42470   0.01267  Uiso   1.00
C58    C     0.55410   0.20910   0.43140   0.01267  Uiso   1.00
C59    C     0.33850   0.11010   0.56550   0.01267  Uiso   1.00
C60    C     0.29430   0.18710   0.56210   0.01267  Uiso   1.00
C61    C     0.74280   0.43050   0.06730   0.01267  Uiso   1.00
C62    C     0.80850   0.47810   0.15840   0.01267  Uiso   1.00
C63    C     0.72030   0.39080   0.00540   0.01267  Uiso   1.00
C64    C     0.80360   0.33440   0.98800   0.01267  Uiso   1.00
C65    C     0.77380   0.30280   0.92460   0.01267  Uiso   1.00
C66    C     0.66070   0.33020   0.88000   0.01267  Uiso   1.00
C67    C     0.57930   0.38690   0.90010   0.01267  Uiso   1.00
C68    C     0.87360   0.48960   0.22960   0.01267  Uiso   1.00
C69    C     0.94420   0.42470   0.28590   0.01267  Uiso   1.00
C70    C     0.98550   0.43140   0.35950   0.01267  Uiso   1.00
C71    C     0.90400   0.56550   0.32440   0.01267  Uiso   1.00
C72    C     0.85640   0.56210   0.25080   0.01267  Uiso   1.00
N1     N     0.27310   0.93280   0.55850   0.01267  Uiso   1.00
N2     N     0.16970   0.87360   0.64990   0.01267  Uiso   1.00
N3     N     0.03690   0.87650   0.54360   0.01267  Uiso   1.00
N4     N     0.43160   0.03720   0.38030   0.01267  Uiso   1.00
N5     N     0.65260   0.61710   0.88240   0.01267  Uiso   1.00
N6     N     0.83160   0.55850   0.50870   0.01267  Uiso   1.00
N7     N     0.81960   0.64990   0.47650   0.01267  Uiso   1.00
N8     N     0.58050   0.54360   0.57990   0.01267  Uiso   1.00
N9     N     0.81190   0.38030   0.58250   0.01267  Uiso   1.00
N10    N     0.53500   0.88240   0.50050   0.01267  Uiso   1.00
N11    N     0.34030   0.50870   0.93280   0.01267  Uiso   1.00
N12    N     0.29610   0.47650   0.87360   0.01267  Uiso   1.00
N13    N     0.16040   0.57990   0.87650   0.01267  Uiso   1.00
N14    N     0.39440   0.58250   0.03720   0.01267  Uiso   1.00
N15    N     0.03550   0.50050   0.61710   0.01267  Uiso   1.00
N16    N     0.72690   0.06720   0.44150   0.01267  Uiso   1.00
N17    N     0.83030   0.12640   0.35010   0.01267  Uiso   1.00
N18    N     0.96310   0.12350   0.45640   0.01267  Uiso   1.00
N19    N     0.56840   0.96280   0.61970   0.01267  Uiso   1.00
N20    N     0.34740   0.38290   0.11760   0.01267  Uiso   1.00
N21    N     0.16840   0.44150   0.49130   0.01267  Uiso   1.00
N22    N     0.18040   0.35010   0.52350   0.01267  Uiso   1.00
N23    N     0.41950   0.45640   0.42010   0.01267  Uiso   1.00
N24    N     0.18810   0.61970   0.41750   0.01267  Uiso   1.00
N25    N     0.46500   0.11760   0.49950   0.01267  Uiso   1.00
N26    N     0.65970   0.49130   0.06720   0.01267  Uiso   1.00
N27    N     0.70390   0.52350   0.12640   0.01267  Uiso   1.00
N28    N     0.83960   0.42010   0.12350   0.01267  Uiso   1.00
N29    N     0.60560   0.41750   0.96280   0.01267  Uiso   1.00
N30    N     0.96450   0.49950   0.38290   0.01267  Uiso   1.00
