data_BUVYEX_clean
_audit_creation_date              2014-07-02
_audit_creation_method            'Materials Studio'
_symmetry_space_group_name_H-M    'P1'
_symmetry_Int_Tables_number       1
_symmetry_cell_setting            triclinic
loop_
_symmetry_equiv_pos_as_xyz
  x,y,z
_cell_length_a                    16.1450
_cell_length_b                    17.9775
_cell_length_c                    17.9775
_cell_angle_alpha                 68.5568
_cell_angle_beta                  72.5811
_cell_angle_gamma                 107.4190
loop_
_atom_site_label
_atom_site_type_symbol
_atom_site_fract_x
_atom_site_fract_y
_atom_site_fract_z
_atom_site_U_iso_or_equiv
_atom_site_adp_type
_atom_site_occupancy
Fe1    Fe    0.00000   0.00000   0.50000   0.01267  Uiso   1.00
Fe2    Fe    0.50000   0.50000   0.50000   0.01267  Uiso   1.00
Fe3    Fe    0.00000   0.50000  -0.00000   0.01267  Uiso   1.00
H1     H     0.84890   0.05270   0.74250   0.01267  Uiso   1.00
H2     H     0.69390   0.93480   0.81420   0.01267  Uiso   1.00
H3     H     0.66010   0.84210   0.75150   0.01267  Uiso   1.00
H4     H     0.78010   0.86940   0.62400   0.01267  Uiso   1.00
H5     H     0.32760   0.27400   0.43400   0.01267  Uiso   1.00
H6     H     0.45620   0.38160   0.42250   0.01267  Uiso   1.00
H7     H     0.28270   0.42730   0.57860   0.01267  Uiso   1.00
H8     H     0.15120   0.32150   0.59370   0.01267  Uiso   1.00
H9     H     0.59140   0.74250   0.20480   0.01267  Uiso   1.00
H10    H     0.50810   0.81420   0.25100   0.01267  Uiso   1.00
H11    H     0.41160   0.75150   0.40640   0.01267  Uiso   1.00
H12    H     0.40410   0.62400   0.50660   0.01267  Uiso   1.00
H13    H     0.76160   0.43400   0.29200   0.01267  Uiso   1.00
H14    H     0.87870   0.42250   0.19590   0.01267  Uiso   1.00
H15    H     0.86130   0.57860   0.99410   0.01267  Uiso   1.00
H16    H     0.74490   0.59370   0.08480   0.01267  Uiso   1.00
H17    H     0.79620   0.20480   0.05270   0.01267  Uiso   1.00
H18    H     0.75910   0.25100   0.93480   0.01267  Uiso   1.00
H19    H     0.81800   0.40640   0.84210   0.01267  Uiso   1.00
H20    H     0.91070   0.50660   0.86940   0.01267  Uiso   1.00
H21    H     0.05360   0.29200   0.27400   0.01267  Uiso   1.00
H22    H     0.07460   0.19590   0.38160   0.01267  Uiso   1.00
H23    H     0.85540   0.99410   0.42730   0.01267  Uiso   1.00
H24    H     0.82970   0.08480   0.32150   0.01267  Uiso   1.00
H25    H     0.15110   0.94730   0.25750   0.01267  Uiso   1.00
H26    H     0.30610   0.06520   0.18580   0.01267  Uiso   1.00
H27    H     0.33990   0.15790   0.24850   0.01267  Uiso   1.00
H28    H     0.21990   0.13060   0.37600   0.01267  Uiso   1.00
H29    H     0.67240   0.72600   0.56600   0.01267  Uiso   1.00
H30    H     0.54380   0.61840   0.57750   0.01267  Uiso   1.00
H31    H     0.71730   0.57270   0.42140   0.01267  Uiso   1.00
H32    H     0.84880   0.67850   0.40630   0.01267  Uiso   1.00
H33    H     0.40860   0.25750   0.79520   0.01267  Uiso   1.00
H34    H     0.49190   0.18580   0.74900   0.01267  Uiso   1.00
H35    H     0.58840   0.24850   0.59360   0.01267  Uiso   1.00
H36    H     0.59590   0.37600   0.49340   0.01267  Uiso   1.00
H37    H     0.23840   0.56600   0.70800   0.01267  Uiso   1.00
H38    H     0.12130   0.57750   0.80410   0.01267  Uiso   1.00
H39    H     0.13870   0.42140   0.00590   0.01267  Uiso   1.00
H40    H     0.25510   0.40630   0.91520   0.01267  Uiso   1.00
H41    H     0.20380   0.79520   0.94730   0.01267  Uiso   1.00
H42    H     0.24090   0.74900   0.06520   0.01267  Uiso   1.00
H43    H     0.18200   0.59360   0.15790   0.01267  Uiso   1.00
H44    H     0.08930   0.49340   0.13060   0.01267  Uiso   1.00
H45    H     0.94640   0.70800   0.72600   0.01267  Uiso   1.00
H46    H     0.92540   0.80410   0.61840   0.01267  Uiso   1.00
H47    H     0.14460   0.00590   0.57270   0.01267  Uiso   1.00
H48    H     0.17030   0.91520   0.67850   0.01267  Uiso   1.00
C1     C     0.00400   0.09590   0.59280   0.01267  Uiso   1.00
C2     C     0.14120   0.20270   0.53610   0.01267  Uiso   1.00
C3     C     0.90280   0.02540   0.64320   0.01267  Uiso   1.00
C4     C     0.83310   0.01400   0.72030   0.01267  Uiso   1.00
C5     C     0.74210   0.94530   0.76200   0.01267  Uiso   1.00
C6     C     0.72220   0.88980   0.72450   0.01267  Uiso   1.00
C7     C     0.79470   0.90630   0.64830   0.01267  Uiso   1.00
C8     C     0.22330   0.27960   0.52090   0.01267  Uiso   1.00
C9     C     0.31620   0.30310   0.46640   0.01267  Uiso   1.00
C10    C     0.39340   0.36900   0.45910   0.01267  Uiso   1.00
C11    C     0.29320   0.39540   0.54910   0.01267  Uiso   1.00
C12    C     0.21330   0.33070   0.55970   0.01267  Uiso   1.00
C13    C     0.59680   0.59280   0.31130   0.01267  Uiso   1.00
C14    C     0.67730   0.53610   0.26120   0.01267  Uiso   1.00
C15    C     0.54600   0.64320   0.33140   0.01267  Uiso   1.00
C16    C     0.55340   0.72030   0.26570   0.01267  Uiso   1.00
C17    C     0.50410   0.76200   0.29270   0.01267  Uiso   1.00
C18    C     0.44670   0.72450   0.38570   0.01267  Uiso   1.00
C19    C     0.44300   0.64830   0.44540   0.01267  Uiso   1.00
C20    C     0.74420   0.52090   0.19950   0.01267  Uiso   1.00
C21    C     0.78260   0.46640   0.23050   0.01267  Uiso   1.00
C22    C     0.85250   0.45910   0.17190   0.01267  Uiso   1.00
C23    C     0.84230   0.54910   0.05550   0.01267  Uiso   1.00
C24    C     0.77300   0.55970   0.10960   0.01267  Uiso   1.00
C25    C     0.90810   0.31130   0.09590   0.01267  Uiso   1.00
C26    C     0.93850   0.26120   0.20270   0.01267  Uiso   1.00
C27    C     0.87740   0.33140   0.02540   0.01267  Uiso   1.00
C28    C     0.81910   0.26570   0.01400   0.01267  Uiso   1.00
C29    C     0.79680   0.29270   0.94530   0.01267  Uiso   1.00
C30    C     0.83240   0.38570   0.88980   0.01267  Uiso   1.00
C31    C     0.88840   0.44540   0.90630   0.01267  Uiso   1.00
C32    C     0.94370   0.19950   0.27960   0.01267  Uiso   1.00
C33    C     0.01310   0.23050   0.30310   0.01267  Uiso   1.00
C34    C     0.02440   0.17190   0.36900   0.01267  Uiso   1.00
C35    C     0.89780   0.05550   0.39540   0.01267  Uiso   1.00
C36    C     0.88260   0.10960   0.33070   0.01267  Uiso   1.00
C37    C     0.99600   0.90410   0.40720   0.01267  Uiso   1.00
C38    C     0.85880   0.79730   0.46390   0.01267  Uiso   1.00
C39    C     0.09720   0.97460   0.35680   0.01267  Uiso   1.00
C40    C     0.16690   0.98600   0.27970   0.01267  Uiso   1.00
C41    C     0.25790   0.05470   0.23800   0.01267  Uiso   1.00
C42    C     0.27780   0.11020   0.27550   0.01267  Uiso   1.00
C43    C     0.20530   0.09370   0.35170   0.01267  Uiso   1.00
C44    C     0.77670   0.72040   0.47910   0.01267  Uiso   1.00
C45    C     0.68380   0.69690   0.53360   0.01267  Uiso   1.00
C46    C     0.60660   0.63100   0.54090   0.01267  Uiso   1.00
C47    C     0.70680   0.60460   0.45090   0.01267  Uiso   1.00
C48    C     0.78670   0.66930   0.44030   0.01267  Uiso   1.00
C49    C     0.40320   0.40720   0.68870   0.01267  Uiso   1.00
C50    C     0.32270   0.46390   0.73880   0.01267  Uiso   1.00
C51    C     0.45400   0.35680   0.66860   0.01267  Uiso   1.00
C52    C     0.44660   0.27970   0.73430   0.01267  Uiso   1.00
C53    C     0.49590   0.23800   0.70730   0.01267  Uiso   1.00
C54    C     0.55330   0.27550   0.61430   0.01267  Uiso   1.00
C55    C     0.55700   0.35170   0.55460   0.01267  Uiso   1.00
C56    C     0.25580   0.47910   0.80050   0.01267  Uiso   1.00
C57    C     0.21740   0.53360   0.76950   0.01267  Uiso   1.00
C58    C     0.14750   0.54090   0.82810   0.01267  Uiso   1.00
C59    C     0.15770   0.45090   0.94450   0.01267  Uiso   1.00
C60    C     0.22700   0.44030   0.89040   0.01267  Uiso   1.00
C61    C     0.09190   0.68870   0.90410   0.01267  Uiso   1.00
C62    C     0.06150   0.73880   0.79730   0.01267  Uiso   1.00
C63    C     0.12260   0.66860   0.97460   0.01267  Uiso   1.00
C64    C     0.18090   0.73430   0.98600   0.01267  Uiso   1.00
C65    C     0.20320   0.70730   0.05470   0.01267  Uiso   1.00
C66    C     0.16760   0.61430   0.11020   0.01267  Uiso   1.00
C67    C     0.11160   0.55460   0.09370   0.01267  Uiso   1.00
C68    C     0.05630   0.80050   0.72040   0.01267  Uiso   1.00
C69    C     0.98690   0.76950   0.69690   0.01267  Uiso   1.00
C70    C     0.97560   0.82810   0.63100   0.01267  Uiso   1.00
C71    C     0.10220   0.94450   0.60460   0.01267  Uiso   1.00
C72    C     0.11740   0.89040   0.66930   0.01267  Uiso   1.00
N1     N     0.06240   0.09500   0.52200   0.01267  Uiso   1.00
N2     N     0.15110   0.16390   0.48710   0.01267  Uiso   1.00
N3     N     0.05070   0.16310   0.60390   0.01267  Uiso   1.00
N4     N     0.88490   0.97260   0.60750   0.01267  Uiso   1.00
N5     N     0.38500   0.41630   0.50010   0.01267  Uiso   1.00
N6     N     0.58440   0.52200   0.38300   0.01267  Uiso   1.00
N7     N     0.63820   0.48710   0.34900   0.01267  Uiso   1.00
N8     N     0.65460   0.60390   0.23300   0.01267  Uiso   1.00
N9     N     0.49240   0.60750   0.41990   0.01267  Uiso   1.00
N10    N     0.88510   0.50010   0.08360   0.01267  Uiso   1.00
N11    N     0.96740   0.38300   0.09500   0.01267  Uiso   1.00
N12    N     0.98720   0.34900   0.16390   0.01267  Uiso   1.00
N13    N     0.88760   0.23300   0.16310   0.01267  Uiso   1.00
N14    N     0.91230   0.41990   0.97260   0.01267  Uiso   1.00
N15    N     0.96870   0.08360   0.41630   0.01267  Uiso   1.00
N16    N     0.93760   0.90500   0.47800   0.01267  Uiso   1.00
N17    N     0.84890   0.83610   0.51290   0.01267  Uiso   1.00
N18    N     0.94930   0.83690   0.39610   0.01267  Uiso   1.00
N19    N     0.11510   0.02740   0.39250   0.01267  Uiso   1.00
N20    N     0.61500   0.58370   0.49990   0.01267  Uiso   1.00
N21    N     0.41560   0.47800   0.61700   0.01267  Uiso   1.00
N22    N     0.36180   0.51290   0.65100   0.01267  Uiso   1.00
N23    N     0.34540   0.39610   0.76700   0.01267  Uiso   1.00
N24    N     0.50760   0.39250   0.58010   0.01267  Uiso   1.00
N25    N     0.11490   0.49990   0.91640   0.01267  Uiso   1.00
N26    N     0.03260   0.61700   0.90500   0.01267  Uiso   1.00
N27    N     0.01280   0.65100   0.83610   0.01267  Uiso   1.00
N28    N     0.11240   0.76700   0.83690   0.01267  Uiso   1.00
N29    N     0.08770   0.58010   0.02740   0.01267  Uiso   1.00
N30    N     0.03130   0.91640   0.58370   0.01267  Uiso   1.00
Fe4    Fe    0.00000   0.50000   0.50000   0.01267  Uiso   1.00
Fe5    Fe    0.50000   0.00000   0.50000   0.01267  Uiso   1.00
Fe6    Fe    0.50000   0.50000   0.00000   0.01267  Uiso   1.00
H49    H     0.90860   0.20480   0.74250   0.01267  Uiso   1.00
H50    H     0.99190   0.25100   0.81420   0.01267  Uiso   1.00
H51    H     0.08840   0.40640   0.75150   0.01267  Uiso   1.00
H52    H     0.09590   0.50660   0.62400   0.01267  Uiso   1.00
H53    H     0.73840   0.29200   0.43400   0.01267  Uiso   1.00
H54    H     0.62130   0.19590   0.42250   0.01267  Uiso   1.00
H55    H     0.63870   0.99410   0.57860   0.01267  Uiso   1.00
H56    H     0.75510   0.08480   0.59370   0.01267  Uiso   1.00
H57    H     0.70380   0.05270   0.20480   0.01267  Uiso   1.00
H58    H     0.74090   0.93480   0.25100   0.01267  Uiso   1.00
H59    H     0.68200   0.84210   0.40640   0.01267  Uiso   1.00
H60    H     0.58930   0.86940   0.50660   0.01267  Uiso   1.00
H61    H     0.44640   0.27400   0.29200   0.01267  Uiso   1.00
H62    H     0.42540   0.38160   0.19590   0.01267  Uiso   1.00
H63    H     0.64460   0.42730   0.99410   0.01267  Uiso   1.00
H64    H     0.67030   0.32150   0.08480   0.01267  Uiso   1.00
H65    H     0.65110   0.74250   0.05270   0.01267  Uiso   1.00
H66    H     0.80610   0.81420   0.93480   0.01267  Uiso   1.00
H67    H     0.83990   0.75150   0.84210   0.01267  Uiso   1.00
H68    H     0.71990   0.62400   0.86940   0.01267  Uiso   1.00
H69    H     0.17240   0.43400   0.27400   0.01267  Uiso   1.00
H70    H     0.04380   0.42250   0.38160   0.01267  Uiso   1.00
H71    H     0.21730   0.57860   0.42730   0.01267  Uiso   1.00
H72    H     0.34880   0.59370   0.32150   0.01267  Uiso   1.00
H73    H     0.09140   0.79520   0.25750   0.01267  Uiso   1.00
H74    H     0.00810   0.74900   0.18580   0.01267  Uiso   1.00
H75    H     0.91160   0.59360   0.24850   0.01267  Uiso   1.00
H76    H     0.90410   0.49340   0.37600   0.01267  Uiso   1.00
H77    H     0.26160   0.70800   0.56600   0.01267  Uiso   1.00
H78    H     0.37870   0.80410   0.57750   0.01267  Uiso   1.00
H79    H     0.36130   0.00590   0.42140   0.01267  Uiso   1.00
H80    H     0.24490   0.91520   0.40630   0.01267  Uiso   1.00
H81    H     0.29620   0.94730   0.79520   0.01267  Uiso   1.00
H82    H     0.25910   0.06520   0.74900   0.01267  Uiso   1.00
H83    H     0.31800   0.15790   0.59360   0.01267  Uiso   1.00
H84    H     0.41070   0.13060   0.49340   0.01267  Uiso   1.00
H85    H     0.55360   0.72600   0.70800   0.01267  Uiso   1.00
H86    H     0.57460   0.61840   0.80410   0.01267  Uiso   1.00
H87    H     0.35540   0.57270   0.00590   0.01267  Uiso   1.00
H88    H     0.32970   0.67850   0.91520   0.01267  Uiso   1.00
H89    H     0.34890   0.25750   0.94730   0.01267  Uiso   1.00
H90    H     0.19390   0.18580   0.06520   0.01267  Uiso   1.00
H91    H     0.16010   0.24850   0.15790   0.01267  Uiso   1.00
H92    H     0.28010   0.37600   0.13060   0.01267  Uiso   1.00
H93    H     0.82760   0.56600   0.72600   0.01267  Uiso   1.00
H94    H     0.95620   0.57750   0.61840   0.01267  Uiso   1.00
H95    H     0.78270   0.42140   0.57270   0.01267  Uiso   1.00
H96    H     0.65120   0.40630   0.67850   0.01267  Uiso   1.00
C73    C     0.90320   0.31130   0.59280   0.01267  Uiso   1.00
C74    C     0.82270   0.26120   0.53610   0.01267  Uiso   1.00
C75    C     0.95400   0.33140   0.64320   0.01267  Uiso   1.00
C76    C     0.94660   0.26570   0.72030   0.01267  Uiso   1.00
C77    C     0.99590   0.29270   0.76200   0.01267  Uiso   1.00
C78    C     0.05330   0.38570   0.72450   0.01267  Uiso   1.00
C79    C     0.05700   0.44540   0.64830   0.01267  Uiso   1.00
C80    C     0.75580   0.19950   0.52090   0.01267  Uiso   1.00
C81    C     0.71740   0.23050   0.46640   0.01267  Uiso   1.00
C82    C     0.64750   0.17190   0.45910   0.01267  Uiso   1.00
C83    C     0.65770   0.05550   0.54910   0.01267  Uiso   1.00
C84    C     0.72700   0.10960   0.55970   0.01267  Uiso   1.00
C85    C     0.59190   0.09590   0.31130   0.01267  Uiso   1.00
C86    C     0.56150   0.20270   0.26120   0.01267  Uiso   1.00
C87    C     0.62260   0.02540   0.33140   0.01267  Uiso   1.00
C88    C     0.68090   0.01400   0.26570   0.01267  Uiso   1.00
C89    C     0.70320   0.94530   0.29270   0.01267  Uiso   1.00
C90    C     0.66760   0.88980   0.38570   0.01267  Uiso   1.00
C91    C     0.61160   0.90630   0.44540   0.01267  Uiso   1.00
C92    C     0.55630   0.27960   0.19950   0.01267  Uiso   1.00
C93    C     0.48690   0.30310   0.23050   0.01267  Uiso   1.00
C94    C     0.47560   0.36900   0.17190   0.01267  Uiso   1.00
C95    C     0.60220   0.39540   0.05550   0.01267  Uiso   1.00
C96    C     0.61740   0.33070   0.10960   0.01267  Uiso   1.00
C97    C     0.49600   0.59280   0.09590   0.01267  Uiso   1.00
C98    C     0.35880   0.53610   0.20270   0.01267  Uiso   1.00
C99    C     0.59720   0.64320   0.02540   0.01267  Uiso   1.00
C100   C     0.66690   0.72030   0.01400   0.01267  Uiso   1.00
C101   C     0.75790   0.76200   0.94530   0.01267  Uiso   1.00
C102   C     0.77780   0.72450   0.88980   0.01267  Uiso   1.00
C103   C     0.70530   0.64830   0.90630   0.01267  Uiso   1.00
C104   C     0.27670   0.52090   0.27960   0.01267  Uiso   1.00
C105   C     0.18380   0.46640   0.30310   0.01267  Uiso   1.00
C106   C     0.10660   0.45910   0.36900   0.01267  Uiso   1.00
C107   C     0.20680   0.54910   0.39540   0.01267  Uiso   1.00
C108   C     0.28670   0.55970   0.33070   0.01267  Uiso   1.00
C109   C     0.09680   0.68870   0.40720   0.01267  Uiso   1.00
C110   C     0.17730   0.73880   0.46390   0.01267  Uiso   1.00
C111   C     0.04600   0.66860   0.35680   0.01267  Uiso   1.00
C112   C     0.05340   0.73430   0.27970   0.01267  Uiso   1.00
C113   C     0.00410   0.70730   0.23800   0.01267  Uiso   1.00
C114   C     0.94670   0.61430   0.27550   0.01267  Uiso   1.00
C115   C     0.94300   0.55460   0.35170   0.01267  Uiso   1.00
C116   C     0.24420   0.80050   0.47910   0.01267  Uiso   1.00
C117   C     0.28260   0.76950   0.53360   0.01267  Uiso   1.00
C118   C     0.35250   0.82810   0.54090   0.01267  Uiso   1.00
C119   C     0.34230   0.94450   0.45090   0.01267  Uiso   1.00
C120   C     0.27300   0.89040   0.44030   0.01267  Uiso   1.00
C121   C     0.40810   0.90410   0.68870   0.01267  Uiso   1.00
C122   C     0.43850   0.79730   0.73880   0.01267  Uiso   1.00
C123   C     0.37740   0.97460   0.66860   0.01267  Uiso   1.00
C124   C     0.31910   0.98600   0.73430   0.01267  Uiso   1.00
C125   C     0.29680   0.05470   0.70730   0.01267  Uiso   1.00
C126   C     0.33240   0.11020   0.61430   0.01267  Uiso   1.00
C127   C     0.38840   0.09370   0.55460   0.01267  Uiso   1.00
C128   C     0.44370   0.72040   0.80050   0.01267  Uiso   1.00
C129   C     0.51310   0.69690   0.76950   0.01267  Uiso   1.00
C130   C     0.52440   0.63100   0.82810   0.01267  Uiso   1.00
C131   C     0.39780   0.60460   0.94450   0.01267  Uiso   1.00
C132   C     0.38260   0.66930   0.89040   0.01267  Uiso   1.00
C133   C     0.50400   0.40720   0.90410   0.01267  Uiso   1.00
C134   C     0.64120   0.46390   0.79730   0.01267  Uiso   1.00
C135   C     0.40280   0.35680   0.97460   0.01267  Uiso   1.00
C136   C     0.33310   0.27970   0.98600   0.01267  Uiso   1.00
C137   C     0.24210   0.23800   0.05470   0.01267  Uiso   1.00
C138   C     0.22220   0.27550   0.11020   0.01267  Uiso   1.00
C139   C     0.29470   0.35170   0.09370   0.01267  Uiso   1.00
C140   C     0.72330   0.47910   0.72040   0.01267  Uiso   1.00
C141   C     0.81620   0.53360   0.69690   0.01267  Uiso   1.00
C142   C     0.89340   0.54090   0.63100   0.01267  Uiso   1.00
C143   C     0.79320   0.45090   0.60460   0.01267  Uiso   1.00
C144   C     0.71330   0.44030   0.66930   0.01267  Uiso   1.00
N31    N     0.91560   0.38300   0.52200   0.01267  Uiso   1.00
N32    N     0.86180   0.34900   0.48710   0.01267  Uiso   1.00
N33    N     0.84540   0.23300   0.60390   0.01267  Uiso   1.00
N34    N     0.00760   0.41990   0.60750   0.01267  Uiso   1.00
N35    N     0.61490   0.08360   0.50010   0.01267  Uiso   1.00
N36    N     0.53260   0.09500   0.38300   0.01267  Uiso   1.00
N37    N     0.51280   0.16390   0.34900   0.01267  Uiso   1.00
N38    N     0.61240   0.16310   0.23300   0.01267  Uiso   1.00
N39    N     0.58770   0.97260   0.41990   0.01267  Uiso   1.00
N40    N     0.53130   0.41630   0.08360   0.01267  Uiso   1.00
N41    N     0.43760   0.52200   0.09500   0.01267  Uiso   1.00
N42    N     0.34890   0.48710   0.16390   0.01267  Uiso   1.00
N43    N     0.44930   0.60390   0.16310   0.01267  Uiso   1.00
N44    N     0.61510   0.60750   0.97260   0.01267  Uiso   1.00
N45    N     0.11500   0.50010   0.41630   0.01267  Uiso   1.00
N46    N     0.08440   0.61700   0.47800   0.01267  Uiso   1.00
N47    N     0.13820   0.65100   0.51290   0.01267  Uiso   1.00
N48    N     0.15460   0.76700   0.39610   0.01267  Uiso   1.00
N49    N     0.99240   0.58010   0.39250   0.01267  Uiso   1.00
N50    N     0.38510   0.91640   0.49990   0.01267  Uiso   1.00
N51    N     0.46740   0.90500   0.61700   0.01267  Uiso   1.00
N52    N     0.48720   0.83610   0.65100   0.01267  Uiso   1.00
N53    N     0.38760   0.83690   0.76700   0.01267  Uiso   1.00
N54    N     0.41230   0.02740   0.58010   0.01267  Uiso   1.00
N55    N     0.46870   0.58370   0.91640   0.01267  Uiso   1.00
N56    N     0.56240   0.47800   0.90500   0.01267  Uiso   1.00
N57    N     0.65110   0.51290   0.83610   0.01267  Uiso   1.00
N58    N     0.55070   0.39610   0.83690   0.01267  Uiso   1.00
N59    N     0.38490   0.39250   0.02740   0.01267  Uiso   1.00
N60    N     0.88500   0.49990   0.58370   0.01267  Uiso   1.00
