data_BUVYIB01_clean
_audit_creation_date              2014-07-02
_audit_creation_method            'Materials Studio'
_symmetry_space_group_name_H-M    'P1'
_symmetry_Int_Tables_number       1
_symmetry_cell_setting            triclinic
loop_
_symmetry_equiv_pos_as_xyz
  x,y,z
_cell_length_a                    12.3982
_cell_length_b                    18.8929
_cell_length_c                    18.8929
_cell_angle_alpha                 64.6450
_cell_angle_beta                  77.3646
_cell_angle_gamma                 102.6350
loop_
_atom_site_label
_atom_site_type_symbol
_atom_site_fract_x
_atom_site_fract_y
_atom_site_fract_z
_atom_site_U_iso_or_equiv
_atom_site_adp_type
_atom_site_occupancy
Fe1    Fe    0.00000   0.00000   0.50000   0.01267  Uiso   1.00
Fe2    Fe    0.50000   0.50000   0.50000   0.01267  Uiso   1.00
Fe3    Fe    0.00000   0.50000  -0.00000   0.01267  Uiso   1.00
H1     H     0.32100   0.07240   0.25010   0.01267  Uiso   1.00
H2     H     0.40330   0.97360   0.31150   0.01267  Uiso   1.00
H3     H     0.31930   0.88080   0.45480   0.01267  Uiso   1.00
H4     H     0.16110   0.89050   0.53290   0.01267  Uiso   1.00
H5     H     0.19690   0.29510   0.10290   0.01267  Uiso   1.00
H6     H     0.17100   0.40850   0.00900   0.01267  Uiso   1.00
H7     H     0.87780   0.36500   0.17640   0.01267  Uiso   1.00
H8     H     0.89920   0.25140   0.27430   0.01267  Uiso   1.00
H9     H     0.57110   0.25010   0.67750   0.01267  Uiso   1.00
H10    H     0.71480   0.31150   0.71490   0.01267  Uiso   1.00
H11    H     0.77410   0.45480   0.66440   0.01267  Uiso   1.00
H12    H     0.69400   0.53290   0.57660   0.01267  Uiso   1.00
H13    H     0.29980   0.10290   0.60200   0.01267  Uiso   1.00
H14    H     0.18000   0.00900   0.58250   0.01267  Uiso   1.00
H15    H     0.05420   0.17640   0.45860   0.01267  Uiso   1.00
H16    H     0.17350   0.27430   0.47430   0.01267  Uiso   1.00
H17    H     0.24860   0.67750   0.07240   0.01267  Uiso   1.00
H18    H     0.42970   0.71490   0.97360   0.01267  Uiso   1.00
H19    H     0.43850   0.66440   0.88080   0.01267  Uiso   1.00
H20    H     0.27060   0.57660   0.89050   0.01267  Uiso   1.00
H21    H     0.90180   0.60200   0.29510   0.01267  Uiso   1.00
H22    H     0.76250   0.58250   0.40850   0.01267  Uiso   1.00
H23    H     0.51280   0.45860   0.36500   0.01267  Uiso   1.00
H24    H     0.64780   0.47430   0.25140   0.01267  Uiso   1.00
H25    H     0.67900   0.92760   0.74990   0.01267  Uiso   1.00
H26    H     0.59670   0.02640   0.68850   0.01267  Uiso   1.00
H27    H     0.68070   0.11920   0.54520   0.01267  Uiso   1.00
H28    H     0.83890   0.10950   0.46710   0.01267  Uiso   1.00
H29    H     0.80310   0.70490   0.89710   0.01267  Uiso   1.00
H30    H     0.82900   0.59150   0.99100   0.01267  Uiso   1.00
H31    H     0.12220   0.63500   0.82360   0.01267  Uiso   1.00
H32    H     0.10080   0.74860   0.72570   0.01267  Uiso   1.00
H33    H     0.42890   0.74990   0.32250   0.01267  Uiso   1.00
H34    H     0.28520   0.68850   0.28510   0.01267  Uiso   1.00
H35    H     0.22590   0.54520   0.33560   0.01267  Uiso   1.00
H36    H     0.30600   0.46710   0.42340   0.01267  Uiso   1.00
H37    H     0.70020   0.89710   0.39800   0.01267  Uiso   1.00
H38    H     0.82000   0.99100   0.41750   0.01267  Uiso   1.00
H39    H     0.94580   0.82360   0.54140   0.01267  Uiso   1.00
H40    H     0.82650   0.72570   0.52570   0.01267  Uiso   1.00
H41    H     0.75140   0.32250   0.92760   0.01267  Uiso   1.00
H42    H     0.57030   0.28510   0.02640   0.01267  Uiso   1.00
H43    H     0.56150   0.33560   0.11920   0.01267  Uiso   1.00
H44    H     0.72940   0.42340   0.10950   0.01267  Uiso   1.00
H45    H     0.09820   0.39800   0.70490   0.01267  Uiso   1.00
H46    H     0.23750   0.41750   0.59150   0.01267  Uiso   1.00
H47    H     0.48720   0.54140   0.63500   0.01267  Uiso   1.00
H48    H     0.35220   0.52570   0.74860   0.01267  Uiso   1.00
C1     C     0.13049   0.09511   0.32804   0.01267  Uiso   1.00
C2     C     0.06792   0.18833   0.26427   0.01267  Uiso   1.00
C3     C     0.19184   0.03805   0.35723   0.01267  Uiso   1.00
C4     C     0.28897   0.03500   0.30759   0.01267  Uiso   1.00
C5     C     0.33781   0.97632   0.34389   0.01267  Uiso   1.00
C6     C     0.28825   0.92137   0.42922   0.01267  Uiso   1.00
C7     C     0.19306   0.92760   0.47532   0.01267  Uiso   1.00
C8     C     0.05363   0.26053   0.19994   0.01267  Uiso   1.00
C9     C     0.13168   0.30868   0.11954   0.01267  Uiso   1.00
C10    C     0.11530   0.37655   0.06315   0.01267  Uiso   1.00
C11    C     0.94336   0.35116   0.16148   0.01267  Uiso   1.00
C12    C     0.95567   0.28300   0.22049   0.01267  Uiso   1.00
C13    C     0.45853   0.32804   0.57685   0.01267  Uiso   1.00
C14    C     0.33219   0.26427   0.54740   0.01267  Uiso   1.00
C15    C     0.54907   0.35723   0.60472   0.01267  Uiso   1.00
C16    C     0.59656   0.30759   0.65741   0.01267  Uiso   1.00
C17    C     0.68170   0.34389   0.67979   0.01267  Uiso   1.00
C18    C     0.71747   0.42922   0.64941   0.01267  Uiso   1.00
C19    C     0.66838   0.47532   0.59708   0.01267  Uiso   1.00
C20    C     0.25357   0.19994   0.53953   0.01267  Uiso   1.00
C21    C     0.25122   0.11954   0.57178   0.01267  Uiso   1.00
C22    C     0.17845   0.06315   0.56030   0.01267  Uiso   1.00
C23    C     0.10484   0.16148   0.48736   0.01267  Uiso   1.00
C24    C     0.17616   0.22049   0.49651   0.01267  Uiso   1.00
C25    C     0.03538   0.57685   0.09511   0.01267  Uiso   1.00
C26    C     0.87959   0.54740   0.18833   0.01267  Uiso   1.00
C27    C     0.15379   0.60472   0.03805   0.01267  Uiso   1.00
C28    C     0.25397   0.65741   0.03500   0.01267  Uiso   1.00
C29    C     0.36149   0.67979   0.97632   0.01267  Uiso   1.00
C30    C     0.36688   0.64941   0.92137   0.01267  Uiso   1.00
C31    C     0.26546   0.59708   0.92760   0.01267  Uiso   1.00
C32    C     0.79310   0.53953   0.26053   0.01267  Uiso   1.00
C33    C     0.82300   0.57178   0.30868   0.01267  Uiso   1.00
C34    C     0.73875   0.56030   0.37655   0.01267  Uiso   1.00
C35    C     0.59220   0.48736   0.35116   0.01267  Uiso   1.00
C36    C     0.67267   0.49651   0.28300   0.01267  Uiso   1.00
C37    C     0.86951   0.90489   0.67196   0.01267  Uiso   1.00
C38    C     0.93208   0.81167   0.73573   0.01267  Uiso   1.00
C39    C     0.80816   0.96195   0.64277   0.01267  Uiso   1.00
C40    C     0.71103   0.96500   0.69241   0.01267  Uiso   1.00
C41    C     0.66219   0.02368   0.65611   0.01267  Uiso   1.00
C42    C     0.71175   0.07863   0.57078   0.01267  Uiso   1.00
C43    C     0.80694   0.07240   0.52468   0.01267  Uiso   1.00
C44    C     0.94637   0.73947   0.80006   0.01267  Uiso   1.00
C45    C     0.86832   0.69132   0.88046   0.01267  Uiso   1.00
C46    C     0.88470   0.62345   0.93685   0.01267  Uiso   1.00
C47    C     0.05664   0.64884   0.83852   0.01267  Uiso   1.00
C48    C     0.04433   0.71700   0.77951   0.01267  Uiso   1.00
C49    C     0.54147   0.67196   0.42315   0.01267  Uiso   1.00
C50    C     0.66781   0.73573   0.45260   0.01267  Uiso   1.00
C51    C     0.45093   0.64277   0.39528   0.01267  Uiso   1.00
C52    C     0.40344   0.69241   0.34259   0.01267  Uiso   1.00
C53    C     0.31830   0.65611   0.32021   0.01267  Uiso   1.00
C54    C     0.28253   0.57078   0.35059   0.01267  Uiso   1.00
C55    C     0.33162   0.52468   0.40292   0.01267  Uiso   1.00
C56    C     0.74643   0.80006   0.46047   0.01267  Uiso   1.00
C57    C     0.74878   0.88046   0.42822   0.01267  Uiso   1.00
C58    C     0.82155   0.93685   0.43970   0.01267  Uiso   1.00
C59    C     0.89516   0.83852   0.51264   0.01267  Uiso   1.00
C60    C     0.82384   0.77951   0.50349   0.01267  Uiso   1.00
C61    C     0.96462   0.42315   0.90489   0.01267  Uiso   1.00
C62    C     0.12041   0.45260   0.81167   0.01267  Uiso   1.00
C63    C     0.84621   0.39528   0.96195   0.01267  Uiso   1.00
C64    C     0.74603   0.34259   0.96500   0.01267  Uiso   1.00
C65    C     0.63851   0.32021   0.02368   0.01267  Uiso   1.00
C66    C     0.63312   0.35059   0.07863   0.01267  Uiso   1.00
C67    C     0.73454   0.40292   0.07240   0.01267  Uiso   1.00
C68    C     0.20690   0.46047   0.73947   0.01267  Uiso   1.00
C69    C     0.17700   0.42822   0.69132   0.01267  Uiso   1.00
C70    C     0.26125   0.43970   0.62345   0.01267  Uiso   1.00
C71    C     0.40780   0.51264   0.64884   0.01267  Uiso   1.00
C72    C     0.32733   0.50349   0.71700   0.01267  Uiso   1.00
N1     N     0.03636   0.08737   0.38489   0.01267  Uiso   1.00
N2     N     0.99393   0.14699   0.34440   0.01267  Uiso   1.00
N3     N     0.15445   0.15856   0.25001   0.01267  Uiso   1.00
N4     N     0.14222   0.98507   0.44183   0.01267  Uiso   1.00
N5     N     0.02218   0.39977   0.08193   0.01267  Uiso   1.00
N6     N     0.42125   0.38489   0.52774   0.01267  Uiso   1.00
N7     N     0.33833   0.34440   0.50861   0.01267  Uiso   1.00
N8     N     0.40446   0.25001   0.59143   0.01267  Uiso   1.00
N9     N     0.58405   0.44183   0.57310   0.01267  Uiso   1.00
N10    N     0.10411   0.08193   0.51830   0.01267  Uiso   1.00
N11    N     0.94899   0.52774   0.08737   0.01267  Uiso   1.00
N12    N     0.84694   0.50861   0.14699   0.01267  Uiso   1.00
N13    N     0.99589   0.59143   0.15856   0.01267  Uiso   1.00
N14    N     0.15715   0.57310   0.98507   0.01267  Uiso   1.00
N15    N     0.62241   0.51830   0.39977   0.01267  Uiso   1.00
N16    N     0.96364   0.91263   0.61511   0.01267  Uiso   1.00
N17    N     0.00607   0.85301   0.65560   0.01267  Uiso   1.00
N18    N     0.84555   0.84144   0.74999   0.01267  Uiso   1.00
N19    N     0.85778   0.01493   0.55817   0.01267  Uiso   1.00
N20    N     0.97782   0.60023   0.91807   0.01267  Uiso   1.00
N21    N     0.57875   0.61511   0.47226   0.01267  Uiso   1.00
N22    N     0.66167   0.65560   0.49139   0.01267  Uiso   1.00
N23    N     0.59554   0.74999   0.40857   0.01267  Uiso   1.00
N24    N     0.41595   0.55817   0.42690   0.01267  Uiso   1.00
N25    N     0.89589   0.91807   0.48170   0.01267  Uiso   1.00
N26    N     0.05101   0.47226   0.91263   0.01267  Uiso   1.00
N27    N     0.15306   0.49139   0.85301   0.01267  Uiso   1.00
N28    N     0.00411   0.40857   0.84144   0.01267  Uiso   1.00
N29    N     0.84285   0.42690   0.01493   0.01267  Uiso   1.00
N30    N     0.37759   0.48170   0.60023   0.01267  Uiso   1.00
