data_BUVYIB_clean
_audit_creation_date              2014-07-02
_audit_creation_method            'Materials Studio'
_symmetry_space_group_name_H-M    'P1'
_symmetry_Int_Tables_number       1
_symmetry_cell_setting            triclinic
loop_
_symmetry_equiv_pos_as_xyz
  x,y,z
_cell_length_a                    11.8998
_cell_length_b                    18.9792
_cell_length_c                    18.9792
_cell_angle_alpha                 64.2478
_cell_angle_beta                  77.9364
_cell_angle_gamma                 102.0640
loop_
_atom_site_label
_atom_site_type_symbol
_atom_site_fract_x
_atom_site_fract_y
_atom_site_fract_z
_atom_site_U_iso_or_equiv
_atom_site_adp_type
_atom_site_occupancy
Fe1    Fe    0.50000   0.00000   0.50000   0.01267  Uiso   1.00
Fe2    Fe    0.00000   0.50000   0.50000   0.01267  Uiso   1.00
Fe3    Fe    0.50000   0.50000   0.00000   0.01267  Uiso   1.00
H1     H     0.23800   0.06410   0.68410   0.01267  Uiso   1.00
H2     H     0.05040   0.96250   0.72230   0.01267  Uiso   1.00
H3     H     0.04660   0.87470   0.66450   0.01267  Uiso   1.00
H4     H     0.22140   0.88930   0.57350   0.01267  Uiso   1.00
H5     H     0.85440   0.25330   0.47220   0.01267  Uiso   1.00
H6     H     0.99300   0.36770   0.45610   0.01267  Uiso   1.00
H7     H     0.73080   0.40900   0.58320   0.01267  Uiso   1.00
H8     H     0.58520   0.29470   0.60210   0.01267  Uiso   1.00
H9     H     0.92210   0.68410   0.25180   0.01267  Uiso   1.00
H10    H     0.77270   0.72230   0.31520   0.01267  Uiso   1.00
H11    H     0.71110   0.66450   0.46080   0.01267  Uiso   1.00
H12    H     0.79490   0.57350   0.53720   0.01267  Uiso   1.00
H13    H     0.32660   0.47220   0.27450   0.01267  Uiso   1.00
H14    H     0.44910   0.45610   0.17620   0.01267  Uiso   1.00
H15    H     0.31400   0.58320   0.00780   0.01267  Uiso   1.00
H16    H     0.18730   0.60210   0.10320   0.01267  Uiso   1.00
H17    H     0.17390   0.25180   0.06410   0.01267  Uiso   1.00
H18    H     0.08790   0.31520   0.96250   0.01267  Uiso   1.00
H19    H     0.17190   0.46080   0.87470   0.01267  Uiso   1.00
H20    H     0.33210   0.53720   0.88930   0.01267  Uiso   1.00
H21    H     0.60110   0.27450   0.25330   0.01267  Uiso   1.00
H22    H     0.62530   0.17620   0.36770   0.01267  Uiso   1.00
H23    H     0.32180   0.00780   0.40900   0.01267  Uiso   1.00
H24    H     0.29050   0.10320   0.29470   0.01267  Uiso   1.00
H25    H     0.76200   0.93590   0.31590   0.01267  Uiso   1.00
H26    H     0.94960   0.03750   0.27770   0.01267  Uiso   1.00
H27    H     0.95340   0.12530   0.33550   0.01267  Uiso   1.00
H28    H     0.77860   0.11070   0.42650   0.01267  Uiso   1.00
H29    H     0.14560   0.74670   0.52780   0.01267  Uiso   1.00
H30    H     0.00700   0.63230   0.54390   0.01267  Uiso   1.00
H31    H     0.26920   0.59100   0.41680   0.01267  Uiso   1.00
H32    H     0.41480   0.70530   0.39790   0.01267  Uiso   1.00
H33    H     0.07790   0.31590   0.74820   0.01267  Uiso   1.00
H34    H     0.22730   0.27770   0.68480   0.01267  Uiso   1.00
H35    H     0.28890   0.33550   0.53920   0.01267  Uiso   1.00
H36    H     0.20510   0.42650   0.46280   0.01267  Uiso   1.00
H37    H     0.67340   0.52780   0.72550   0.01267  Uiso   1.00
H38    H     0.55090   0.54390   0.82380   0.01267  Uiso   1.00
H39    H     0.68600   0.41680   0.99220   0.01267  Uiso   1.00
H40    H     0.81270   0.39790   0.89680   0.01267  Uiso   1.00
H41    H     0.82610   0.74820   0.93590   0.01267  Uiso   1.00
H42    H     0.91210   0.68480   0.03750   0.01267  Uiso   1.00
H43    H     0.82810   0.53920   0.12530   0.01267  Uiso   1.00
H44    H     0.66790   0.46280   0.11070   0.01267  Uiso   1.00
H45    H     0.39890   0.72550   0.74670   0.01267  Uiso   1.00
H46    H     0.37470   0.82380   0.63230   0.01267  Uiso   1.00
H47    H     0.67820   0.99220   0.59100   0.01267  Uiso   1.00
H48    H     0.70950   0.89680   0.70530   0.01267  Uiso   1.00
C1     C     0.45770   0.09290   0.57880   0.01267  Uiso   1.00
C2     C     0.61639   0.18784   0.54807   0.01267  Uiso   1.00
C3     C     0.33503   0.03308   0.60769   0.01267  Uiso   1.00
C4     C     0.23291   0.02752   0.66219   0.01267  Uiso   1.00
C5     C     0.12271   0.96806   0.68463   0.01267  Uiso   1.00
C6     C     0.12105   0.91636   0.65021   0.01267  Uiso   1.00
C7     C     0.22550   0.92525   0.59625   0.01267  Uiso   1.00
C8     C     0.70391   0.25998   0.53915   0.01267  Uiso   1.00
C9     C     0.82688   0.28443   0.49559   0.01267  Uiso   1.00
C10    C     0.90917   0.35281   0.48600   0.01267  Uiso   1.00
C11    C     0.75606   0.37694   0.56026   0.01267  Uiso   1.00
C12    C     0.66858   0.30869   0.57205   0.01267  Uiso   1.00
C13    C     0.03650   0.57880   0.32830   0.01267  Uiso   1.00
C14    C     0.16446   0.54807   0.26409   0.01267  Uiso   1.00
C15    C     0.94272   0.60769   0.35923   0.01267  Uiso   1.00
C16    C     0.89510   0.66219   0.31029   0.01267  Uiso   1.00
C17    C     0.80734   0.68463   0.34731   0.01267  Uiso   1.00
C18    C     0.77126   0.65021   0.43343   0.01267  Uiso   1.00
C19    C     0.82175   0.59625   0.47850   0.01267  Uiso   1.00
C20    C     0.24306   0.53915   0.20087   0.01267  Uiso   1.00
C21    C     0.32247   0.49559   0.21998   0.01267  Uiso   1.00
C22    C     0.39517   0.48600   0.16119   0.01267  Uiso   1.00
C23    C     0.31632   0.56026   0.06280   0.01267  Uiso   1.00
C24    C     0.24063   0.57205   0.11926   0.01267  Uiso   1.00
C25    C     0.36480   0.32830   0.09290   0.01267  Uiso   1.00
C26    C     0.42855   0.26409   0.18784   0.01267  Uiso   1.00
C27    C     0.30195   0.35923   0.03308   0.01267  Uiso   1.00
C28    C     0.20539   0.31029   0.02752   0.01267  Uiso   1.00
C29    C     0.15465   0.34731   0.96806   0.01267  Uiso   1.00
C30    C     0.20469   0.43343   0.91636   0.01267  Uiso   1.00
C31    C     0.30025   0.47850   0.92525   0.01267  Uiso   1.00
C32    C     0.44393   0.20087   0.25998   0.01267  Uiso   1.00
C33    C     0.54245   0.21998   0.28443   0.01267  Uiso   1.00
C34    C     0.55636   0.16119   0.35281   0.01267  Uiso   1.00
C35    C     0.37912   0.06280   0.37694   0.01267  Uiso   1.00
C36    C     0.35989   0.11926   0.30869   0.01267  Uiso   1.00
C37    C     0.54230   0.90710   0.42120   0.01267  Uiso   1.00
C38    C     0.38361   0.81216   0.45193   0.01267  Uiso   1.00
C39    C     0.66497   0.96692   0.39231   0.01267  Uiso   1.00
C40    C     0.76709   0.97248   0.33781   0.01267  Uiso   1.00
C41    C     0.87729   0.03194   0.31537   0.01267  Uiso   1.00
C42    C     0.87895   0.08364   0.34979   0.01267  Uiso   1.00
C43    C     0.77450   0.07475   0.40375   0.01267  Uiso   1.00
C44    C     0.29609   0.74002   0.46085   0.01267  Uiso   1.00
C45    C     0.17312   0.71557   0.50441   0.01267  Uiso   1.00
C46    C     0.09083   0.64719   0.51400   0.01267  Uiso   1.00
C47    C     0.24394   0.62306   0.43974   0.01267  Uiso   1.00
C48    C     0.33142   0.69131   0.42795   0.01267  Uiso   1.00
C49    C     0.96350   0.42120   0.67170   0.01267  Uiso   1.00
C50    C     0.83554   0.45193   0.73591   0.01267  Uiso   1.00
C51    C     0.05728   0.39231   0.64077   0.01267  Uiso   1.00
C52    C     0.10490   0.33781   0.68971   0.01267  Uiso   1.00
C53    C     0.19266   0.31537   0.65269   0.01267  Uiso   1.00
C54    C     0.22874   0.34979   0.56657   0.01267  Uiso   1.00
C55    C     0.17825   0.40375   0.52150   0.01267  Uiso   1.00
C56    C     0.75694   0.46085   0.79913   0.01267  Uiso   1.00
C57    C     0.67753   0.50441   0.78002   0.01267  Uiso   1.00
C58    C     0.60483   0.51400   0.83881   0.01267  Uiso   1.00
C59    C     0.68368   0.43974   0.93720   0.01267  Uiso   1.00
C60    C     0.75937   0.42795   0.88074   0.01267  Uiso   1.00
C61    C     0.63520   0.67170   0.90710   0.01267  Uiso   1.00
C62    C     0.57145   0.73591   0.81216   0.01267  Uiso   1.00
C63    C     0.69805   0.64077   0.96692   0.01267  Uiso   1.00
C64    C     0.79461   0.68971   0.97248   0.01267  Uiso   1.00
C65    C     0.84535   0.65269   0.03194   0.01267  Uiso   1.00
C66    C     0.79531   0.56657   0.08364   0.01267  Uiso   1.00
C67    C     0.69975   0.52150   0.07475   0.01267  Uiso   1.00
C68    C     0.55607   0.79913   0.74002   0.01267  Uiso   1.00
C69    C     0.45755   0.78002   0.71557   0.01267  Uiso   1.00
C70    C     0.44364   0.83881   0.64719   0.01267  Uiso   1.00
C71    C     0.62088   0.93720   0.62306   0.01267  Uiso   1.00
C72    C     0.64011   0.88074   0.69131   0.01267  Uiso   1.00
N1     N     0.54759   0.08629   0.52932   0.01267  Uiso   1.00
N2     N     0.65239   0.14805   0.50828   0.01267  Uiso   1.00
N3     N     0.49505   0.15538   0.59313   0.01267  Uiso   1.00
N4     N     0.33481   0.98253   0.57340   0.01267  Uiso   1.00
N5     N     0.87598   0.40067   0.51763   0.01267  Uiso   1.00
N6     N     0.07691   0.52932   0.38439   0.01267  Uiso   1.00
N7     N     0.16067   0.50828   0.34367   0.01267  Uiso   1.00
N8     N     0.08818   0.59313   0.25149   0.01267  Uiso   1.00
N9     N     0.90821   0.57340   0.44407   0.01267  Uiso   1.00
N10    N     0.39361   0.51763   0.08170   0.01267  Uiso   1.00
N11    N     0.46130   0.38439   0.08629   0.01267  Uiso   1.00
N12    N     0.50434   0.34367   0.14805   0.01267  Uiso   1.00
N13    N     0.33967   0.25149   0.15538   0.01267  Uiso   1.00
N14    N     0.35228   0.44407   0.98253   0.01267  Uiso   1.00
N15    N     0.47531   0.08170   0.40067   0.01267  Uiso   1.00
N16    N     0.45241   0.91371   0.47068   0.01267  Uiso   1.00
N17    N     0.34761   0.85195   0.49172   0.01267  Uiso   1.00
N18    N     0.50495   0.84462   0.40687   0.01267  Uiso   1.00
N19    N     0.66519   0.01747   0.42660   0.01267  Uiso   1.00
N20    N     0.12402   0.59933   0.48237   0.01267  Uiso   1.00
N21    N     0.92309   0.47068   0.61561   0.01267  Uiso   1.00
N22    N     0.83933   0.49172   0.65633   0.01267  Uiso   1.00
N23    N     0.91182   0.40687   0.74851   0.01267  Uiso   1.00
N24    N     0.09179   0.42660   0.55593   0.01267  Uiso   1.00
N25    N     0.60639   0.48237   0.91830   0.01267  Uiso   1.00
N26    N     0.53870   0.61561   0.91371   0.01267  Uiso   1.00
N27    N     0.49566   0.65633   0.85195   0.01267  Uiso   1.00
N28    N     0.66033   0.74851   0.84462   0.01267  Uiso   1.00
N29    N     0.64772   0.55593   0.01747   0.01267  Uiso   1.00
N30    N     0.52469   0.91830   0.59933   0.01267  Uiso   1.00
