data_image0
_cell_length_a       13.976
_cell_length_b       13.976
_cell_length_c       17.531
_cell_angle_alpha    90
_cell_angle_beta     90
_cell_angle_gamma    90

_symmetry_space_group_name_H-M    "P 1"
_symmetry_int_tables_number       1

loop_
  _symmetry_equiv_pos_as_xyz
  'x, y, z'

loop_
  _atom_site_label
  _atom_site_occupancy
  _atom_site_fract_x
  _atom_site_fract_y
  _atom_site_fract_z
  _atom_site_thermal_displace_type
  _atom_site_B_iso_or_equiv
  _atom_site_type_symbol
  Pr1      1.0000 0.28526  0.60751  0.24980  Biso   1.000  Pr
  C1       1.0000 0.45900  0.72460  0.35050  Biso   1.000  C
  C2       1.0000 0.52020  0.66230  0.29890  Biso   1.000  C
  C3       1.0000 0.61930  0.66400  0.30270  Biso   1.000  C
  H1       1.0000 0.65130  0.70110  0.33860  Biso   1.000  H
  C4       1.0000 0.66860  0.60740  0.25030  Biso   1.000  C
  H2       1.0000 0.73520  0.60790  0.24980  Biso   1.000  H
  C5       1.0000 0.61940  0.55090  0.19930  Biso   1.000  C
  H3       1.0000 0.65160  0.51300  0.16410  Biso   1.000  H
  C6       1.0000 0.52080  0.55220  0.20210  Biso   1.000  C
  C7       1.0000 0.45970  0.48950  0.15060  Biso   1.000  C
  C8       1.0000 0.38160  0.06660  0.40050  Biso   1.000  C
  C9       1.0000 0.44450  0.12780  0.45170  Biso   1.000  C
  C10      1.0000 0.44370  0.22730  0.44800  Biso   1.000  C
  H4       1.0000 0.40660  0.25900  0.41190  Biso   1.000  H
  C11      1.0000 0.05620  0.48800  0.44830  Biso   1.000  C
  H5       1.0000 0.09330  0.45530  0.41280  Biso   1.000  H
  C12      1.0000 0.05530  0.58700  0.45110  Biso   1.000  C
  C13      1.0000 0.11740  0.64910  0.39980  Biso   1.000  C
  H6       1.0000 0.30900  0.45900  0.36900  Biso   1.000  H
  H7       1.0000 0.14500  0.41300  0.22700  Biso   1.000  H
  H8       1.0000 0.35200  0.66500  0.13700  Biso   1.000  H
  H9       1.0000 0.88500  0.80400  0.37300  Biso   1.000  H
  H10      1.0000 0.31500  0.76300  0.13400  Biso   1.000  H
  N1       1.0000 0.47120  0.60670  0.25000  Biso   1.000  N
  O1       1.0000 0.36860  0.71810  0.34180  Biso   1.000  O
  O2       1.0000 0.50240  0.77780  0.39600  Biso   1.000  O
  O3       1.0000 0.37000  0.49590  0.15820  Biso   1.000  O
  O4       1.0000 0.50410  0.43510  0.10480  Biso   1.000  O
  O5       1.0000 0.35160  0.49350  0.35040  Biso   1.000  O
  O6       1.0000 0.19200  0.44420  0.24090  Biso   1.000  O
  O7       1.0000 0.32810  0.11130  0.35500  Biso   1.000  O
  O8       1.0000 0.35260  0.72150  0.15020  Biso   1.000  O
  O9       1.0000 0.17070  0.60450  0.35410  Biso   1.000  O
  O10      1.0000 0.11110  0.73850  0.40750  Biso   1.000  O
  O11      1.0000 0.88580  0.75570  0.40030  Biso   1.000  O
  O12      1.0000 0.38880  0.97750  0.40800  Biso   1.000  O
  Pr2      1.0000 0.78526  0.10751  0.74980  Biso   1.000  Pr
  C14      1.0000 0.95900  0.22460  0.85050  Biso   1.000  C
  C15      1.0000 0.02020  0.16230  0.79890  Biso   1.000  C
  C16      1.0000 0.11930  0.16400  0.80270  Biso   1.000  C
  H11      1.0000 0.15130  0.20110  0.83860  Biso   1.000  H
  C17      1.0000 0.16860  0.10740  0.75030  Biso   1.000  C
  H12      1.0000 0.23520  0.10790  0.74980  Biso   1.000  H
  C18      1.0000 0.11940  0.05090  0.69930  Biso   1.000  C
  H13      1.0000 0.15160  0.01300  0.66410  Biso   1.000  H
  C19      1.0000 0.02080  0.05220  0.70210  Biso   1.000  C
  C20      1.0000 0.95970  0.98950  0.65060  Biso   1.000  C
  C21      1.0000 0.88160  0.56660  0.90050  Biso   1.000  C
  C22      1.0000 0.94450  0.62780  0.95170  Biso   1.000  C
  C23      1.0000 0.94370  0.72730  0.94800  Biso   1.000  C
  H14      1.0000 0.90660  0.75900  0.91190  Biso   1.000  H
  C24      1.0000 0.55620  0.98800  0.94830  Biso   1.000  C
  H15      1.0000 0.59330  0.95530  0.91280  Biso   1.000  H
  C25      1.0000 0.55530  0.08700  0.95110  Biso   1.000  C
  C26      1.0000 0.61740  0.14910  0.89980  Biso   1.000  C
  H16      1.0000 0.80900  0.95900  0.86900  Biso   1.000  H
  H17      1.0000 0.64500  0.91300  0.72700  Biso   1.000  H
  H18      1.0000 0.85200  0.16500  0.63700  Biso   1.000  H
  H19      1.0000 0.38500  0.30400  0.87300  Biso   1.000  H
  H20      1.0000 0.81500  0.26300  0.63400  Biso   1.000  H
  N2       1.0000 0.97120  0.10670  0.75000  Biso   1.000  N
  O13      1.0000 0.86860  0.21810  0.84180  Biso   1.000  O
  O14      1.0000 0.00240  0.27780  0.89600  Biso   1.000  O
  O15      1.0000 0.87000  0.99590  0.65820  Biso   1.000  O
  O16      1.0000 0.00410  0.93510  0.60480  Biso   1.000  O
  O17      1.0000 0.85160  0.99350  0.85040  Biso   1.000  O
  O18      1.0000 0.69200  0.94420  0.74090  Biso   1.000  O
  O19      1.0000 0.82810  0.61130  0.85500  Biso   1.000  O
  O20      1.0000 0.85260  0.22150  0.65020  Biso   1.000  O
  O21      1.0000 0.67070  0.10450  0.85410  Biso   1.000  O
  O22      1.0000 0.61110  0.23850  0.90750  Biso   1.000  O
  O23      1.0000 0.38580  0.25570  0.90030  Biso   1.000  O
  O24      1.0000 0.88880  0.47750  0.90800  Biso   1.000  O
  Pr3      1.0000 0.71474  0.60751  0.75020  Biso   1.000  Pr
  C27      1.0000 0.54100  0.72460  0.64950  Biso   1.000  C
  C28      1.0000 0.47980  0.66230  0.70110  Biso   1.000  C
  C29      1.0000 0.38070  0.66400  0.69730  Biso   1.000  C
  H21      1.0000 0.34870  0.70110  0.66140  Biso   1.000  H
  C30      1.0000 0.33140  0.60740  0.74970  Biso   1.000  C
  H22      1.0000 0.26480  0.60790  0.75020  Biso   1.000  H
  C31      1.0000 0.38060  0.55090  0.80070  Biso   1.000  C
  H23      1.0000 0.34840  0.51300  0.83590  Biso   1.000  H
  C32      1.0000 0.47920  0.55220  0.79790  Biso   1.000  C
  C33      1.0000 0.54030  0.48950  0.84940  Biso   1.000  C
  C34      1.0000 0.61840  0.06660  0.59950  Biso   1.000  C
  C35      1.0000 0.55550  0.12780  0.54830  Biso   1.000  C
  C36      1.0000 0.55630  0.22730  0.55200  Biso   1.000  C
  H24      1.0000 0.59340  0.25900  0.58810  Biso   1.000  H
  C37      1.0000 0.94380  0.48800  0.55170  Biso   1.000  C
  H25      1.0000 0.90670  0.45530  0.58720  Biso   1.000  H
  C38      1.0000 0.94470  0.58700  0.54890  Biso   1.000  C
  C39      1.0000 0.88260  0.64910  0.60020  Biso   1.000  C
  H26      1.0000 0.69100  0.45900  0.63100  Biso   1.000  H
  H27      1.0000 0.85500  0.41300  0.77300  Biso   1.000  H
  H28      1.0000 0.64800  0.66500  0.86300  Biso   1.000  H
  H29      1.0000 0.11500  0.80400  0.62700  Biso   1.000  H
  H30      1.0000 0.68500  0.76300  0.86600  Biso   1.000  H
  N3       1.0000 0.52880  0.60670  0.75000  Biso   1.000  N
  O25      1.0000 0.63140  0.71810  0.65820  Biso   1.000  O
  O26      1.0000 0.49760  0.77780  0.60400  Biso   1.000  O
  O27      1.0000 0.63000  0.49590  0.84180  Biso   1.000  O
  O28      1.0000 0.49590  0.43510  0.89520  Biso   1.000  O
  O29      1.0000 0.64840  0.49350  0.64960  Biso   1.000  O
  O30      1.0000 0.80800  0.44420  0.75910  Biso   1.000  O
  O31      1.0000 0.67190  0.11130  0.64500  Biso   1.000  O
  O32      1.0000 0.64740  0.72150  0.84980  Biso   1.000  O
  O33      1.0000 0.82930  0.60450  0.64590  Biso   1.000  O
  O34      1.0000 0.88890  0.73850  0.59250  Biso   1.000  O
  O35      1.0000 0.11420  0.75570  0.59970  Biso   1.000  O
  O36      1.0000 0.61120  0.97750  0.59200  Biso   1.000  O
  Pr4      1.0000 0.21474  0.10751  0.25020  Biso   1.000  Pr
  C40      1.0000 0.04100  0.22460  0.14950  Biso   1.000  C
  C41      1.0000 0.97980  0.16230  0.20110  Biso   1.000  C
  C42      1.0000 0.88070  0.16400  0.19730  Biso   1.000  C
  H31      1.0000 0.84870  0.20110  0.16140  Biso   1.000  H
  C43      1.0000 0.83140  0.10740  0.24970  Biso   1.000  C
  H32      1.0000 0.76480  0.10790  0.25020  Biso   1.000  H
  C44      1.0000 0.88060  0.05090  0.30070  Biso   1.000  C
  H33      1.0000 0.84840  0.01300  0.33590  Biso   1.000  H
  C45      1.0000 0.97920  0.05220  0.29790  Biso   1.000  C
  C46      1.0000 0.04030  0.98950  0.34940  Biso   1.000  C
  C47      1.0000 0.11840  0.56660  0.09950  Biso   1.000  C
  C48      1.0000 0.05550  0.62780  0.04830  Biso   1.000  C
  C49      1.0000 0.05630  0.72730  0.05200  Biso   1.000  C
  H34      1.0000 0.09340  0.75900  0.08810  Biso   1.000  H
  C50      1.0000 0.44380  0.98800  0.05170  Biso   1.000  C
  H35      1.0000 0.40670  0.95530  0.08720  Biso   1.000  H
  C51      1.0000 0.44470  0.08700  0.04890  Biso   1.000  C
  C52      1.0000 0.38260  0.14910  0.10020  Biso   1.000  C
  H36      1.0000 0.19100  0.95900  0.13100  Biso   1.000  H
  H37      1.0000 0.35500  0.91300  0.27300  Biso   1.000  H
  H38      1.0000 0.14800  0.16500  0.36300  Biso   1.000  H
  H39      1.0000 0.61500  0.30400  0.12700  Biso   1.000  H
  H40      1.0000 0.18500  0.26300  0.36600  Biso   1.000  H
  N4       1.0000 0.02880  0.10670  0.25000  Biso   1.000  N
  O37      1.0000 0.13140  0.21810  0.15820  Biso   1.000  O
  O38      1.0000 0.99760  0.27780  0.10400  Biso   1.000  O
  O39      1.0000 0.13000  0.99590  0.34180  Biso   1.000  O
  O40      1.0000 0.99590  0.93510  0.39520  Biso   1.000  O
  O41      1.0000 0.14840  0.99350  0.14960  Biso   1.000  O
  O42      1.0000 0.30800  0.94420  0.25910  Biso   1.000  O
  O43      1.0000 0.17190  0.61130  0.14500  Biso   1.000  O
  O44      1.0000 0.14740  0.22150  0.34980  Biso   1.000  O
  O45      1.0000 0.32930  0.10450  0.14590  Biso   1.000  O
  O46      1.0000 0.38890  0.23850  0.09250  Biso   1.000  O
  O47      1.0000 0.61420  0.25570  0.09970  Biso   1.000  O
  O48      1.0000 0.11120  0.47750  0.09200  Biso   1.000  O
  Pr5      1.0000 0.50000  0.89265  0.50000  Biso   1.000  Pr
  C53      1.0000 0.50000  0.27880  0.50000  Biso   1.000  C
  H41      1.0000 0.50000  0.34530  0.50000  Biso   1.000  H
  N5       1.0000 0.50000  0.07780  0.50000  Biso   1.000  N
  Pr6      1.0000 0.00000  0.39265  0.00000  Biso   1.000  Pr
  C54      1.0000 0.00000  0.77880  0.00000  Biso   1.000  C
  H42      1.0000 0.00000  0.84530  0.00000  Biso   1.000  H
  N6       1.0000 0.00000  0.57780  0.00000  Biso   1.000  N
  Pr7      1.0000 0.00000  0.82225  0.50000  Biso   1.000  Pr
  C55      1.0000 0.00000  0.43980  0.50000  Biso   1.000  C
  H43      1.0000 0.00000  0.37330  0.50000  Biso   1.000  H
  N7       1.0000 0.00000  0.63740  0.50000  Biso   1.000  N
  Pr8      1.0000 0.50000  0.32225  0.00000  Biso   1.000  Pr
  C56      1.0000 0.50000  0.93980  0.00000  Biso   1.000  C
  H44      1.0000 0.50000  0.87330  0.00000  Biso   1.000  H
  N8       1.0000 0.50000  0.13740  0.00000  Biso   1.000  N
