data_image0
_cell_length_a       17.629
_cell_length_b       19.797
_cell_length_c       13.2566
_cell_angle_alpha    90
_cell_angle_beta     131.7
_cell_angle_gamma    90

_symmetry_space_group_name_H-M    "P 1"
_symmetry_int_tables_number       1

loop_
  _symmetry_equiv_pos_as_xyz
  'x, y, z'

loop_
  _atom_site_label
  _atom_site_occupancy
  _atom_site_fract_x
  _atom_site_fract_y
  _atom_site_fract_z
  _atom_site_thermal_displace_type
  _atom_site_B_iso_or_equiv
  _atom_site_type_symbol
  Ce1      1.0000 0.39237  0.01738  0.28468  Biso   1.000  Ce
  Ce2      1.0000 0.10752  0.76738  0.21520  Biso   1.000  Ce
  O1       1.0000 0.47184  0.11577  0.25930  Biso   1.000  O
  O2       1.0000 0.56070  0.21254  0.33240  Biso   1.000  O
  O3       1.0000 0.39790  0.00464  0.48080  Biso   1.000  O
  O4       1.0000 0.44270  0.04140  0.67450  Biso   1.000  O
  O5       1.0000 0.21291  0.86543  0.24100  Biso   1.000  O
  O6       1.0000 0.22850  0.96230  0.16740  Biso   1.000  O
  O7       1.0000 0.91712  0.75488  0.01870  Biso   1.000  O
  O8       1.0000 0.76789  0.79146  0.82510  Biso   1.000  O
  N1       1.0000 0.48530  0.11131  0.47120  Biso   1.000  N
  N2       1.0000 0.01390  0.86069  0.02820  Biso   1.000  N
  C1       1.0000 0.53060  0.16279  0.46490  Biso   1.000  C
  C2       1.0000 0.58310  0.21266  0.56380  Biso   1.000  C
  H1       1.0000 0.61640  0.24710  0.55900  Biso   1.000  H
  C3       1.0000 0.58480  0.20990  0.66970  Biso   1.000  C
  H2       1.0000 0.61790  0.24320  0.73600  Biso   1.000  H
  C4       1.0000 0.53620  0.15661  0.67550  Biso   1.000  C
  H3       1.0000 0.53550  0.15390  0.74490  Biso   1.000  H
  C5       1.0000 0.48910  0.10782  0.57570  Biso   1.000  C
  C6       1.0000 0.51990  0.16391  0.34180  Biso   1.000  C
  C7       1.0000 0.43930  0.04646  0.57730  Biso   1.000  C
  C8       1.0000 0.06610  0.91237  0.03520  Biso   1.000  C
  C9       1.0000 0.01940  0.96290  0.93610  Biso   1.000  C
  H4       1.0000 0.05740  0.99770  0.94120  Biso   1.000  H
  C10      1.0000 0.91550  0.95960  0.83050  Biso   1.000  C
  H5       1.0000 0.88230  0.99270  0.76380  Biso   1.000  H
  C11      1.0000 0.86110  0.90679  0.82450  Biso   1.000  C
  H6       1.0000 0.79090  0.90430  0.75530  Biso   1.000  H
  C12      1.0000 0.91370  0.85776  0.92390  Biso   1.000  C
  C13      1.0000 0.17850  0.91354  0.15780  Biso   1.000  C
  C14      1.0000 0.86240  0.79608  0.92280  Biso   1.000  C
  Ce3      1.0000 0.89237  0.51738  0.28468  Biso   1.000  Ce
  Ce4      1.0000 0.60752  0.26738  0.21520  Biso   1.000  Ce
  O9       1.0000 0.97184  0.61577  0.25930  Biso   1.000  O
  O10      1.0000 0.06070  0.71254  0.33240  Biso   1.000  O
  O11      1.0000 0.89790  0.50464  0.48080  Biso   1.000  O
  O12      1.0000 0.94270  0.54140  0.67450  Biso   1.000  O
  O13      1.0000 0.71291  0.36543  0.24100  Biso   1.000  O
  O14      1.0000 0.72850  0.46230  0.16740  Biso   1.000  O
  O15      1.0000 0.41712  0.25488  0.01870  Biso   1.000  O
  O16      1.0000 0.26789  0.29146  0.82510  Biso   1.000  O
  N3       1.0000 0.98530  0.61131  0.47120  Biso   1.000  N
  N4       1.0000 0.51390  0.36069  0.02820  Biso   1.000  N
  C15      1.0000 0.03060  0.66279  0.46490  Biso   1.000  C
  C16      1.0000 0.08310  0.71266  0.56380  Biso   1.000  C
  H7       1.0000 0.11640  0.74710  0.55900  Biso   1.000  H
  C17      1.0000 0.08480  0.70990  0.66970  Biso   1.000  C
  H8       1.0000 0.11790  0.74320  0.73600  Biso   1.000  H
  C18      1.0000 0.03620  0.65661  0.67550  Biso   1.000  C
  H9       1.0000 0.03550  0.65390  0.74490  Biso   1.000  H
  C19      1.0000 0.98910  0.60782  0.57570  Biso   1.000  C
  C20      1.0000 0.01990  0.66391  0.34180  Biso   1.000  C
  C21      1.0000 0.93930  0.54646  0.57730  Biso   1.000  C
  C22      1.0000 0.56610  0.41237  0.03520  Biso   1.000  C
  C23      1.0000 0.51940  0.46290  0.93610  Biso   1.000  C
  H10      1.0000 0.55740  0.49770  0.94120  Biso   1.000  H
  C24      1.0000 0.41550  0.45960  0.83050  Biso   1.000  C
  H11      1.0000 0.38230  0.49270  0.76380  Biso   1.000  H
  C25      1.0000 0.36110  0.40679  0.82450  Biso   1.000  C
  H12      1.0000 0.29090  0.40430  0.75530  Biso   1.000  H
  C26      1.0000 0.41370  0.35776  0.92390  Biso   1.000  C
  C27      1.0000 0.67850  0.41354  0.15780  Biso   1.000  C
  C28      1.0000 0.36240  0.29608  0.92280  Biso   1.000  C
  Ce5      1.0000 0.39237  0.98262  0.78468  Biso   1.000  Ce
  Ce6      1.0000 0.10752  0.23262  0.71520  Biso   1.000  Ce
  O17      1.0000 0.47184  0.88423  0.75930  Biso   1.000  O
  O18      1.0000 0.56070  0.78746  0.83240  Biso   1.000  O
  O19      1.0000 0.39790  0.99536  0.98080  Biso   1.000  O
  O20      1.0000 0.44270  0.95860  0.17450  Biso   1.000  O
  O21      1.0000 0.21291  0.13457  0.74100  Biso   1.000  O
  O22      1.0000 0.22850  0.03770  0.66740  Biso   1.000  O
  O23      1.0000 0.91712  0.24512  0.51870  Biso   1.000  O
  O24      1.0000 0.76789  0.20854  0.32510  Biso   1.000  O
  N5       1.0000 0.48530  0.88869  0.97120  Biso   1.000  N
  N6       1.0000 0.01390  0.13931  0.52820  Biso   1.000  N
  C29      1.0000 0.53060  0.83721  0.96490  Biso   1.000  C
  C30      1.0000 0.58310  0.78734  0.06380  Biso   1.000  C
  H13      1.0000 0.61640  0.75290  0.05900  Biso   1.000  H
  C31      1.0000 0.58480  0.79010  0.16970  Biso   1.000  C
  H14      1.0000 0.61790  0.75680  0.23600  Biso   1.000  H
  C32      1.0000 0.53620  0.84339  0.17550  Biso   1.000  C
  H15      1.0000 0.53550  0.84610  0.24490  Biso   1.000  H
  C33      1.0000 0.48910  0.89218  0.07570  Biso   1.000  C
  C34      1.0000 0.51990  0.83609  0.84180  Biso   1.000  C
  C35      1.0000 0.43930  0.95354  0.07730  Biso   1.000  C
  C36      1.0000 0.06610  0.08763  0.53520  Biso   1.000  C
  C37      1.0000 0.01940  0.03710  0.43610  Biso   1.000  C
  H16      1.0000 0.05740  0.00230  0.44120  Biso   1.000  H
  C38      1.0000 0.91550  0.04040  0.33050  Biso   1.000  C
  H17      1.0000 0.88230  0.00730  0.26380  Biso   1.000  H
  C39      1.0000 0.86110  0.09321  0.32450  Biso   1.000  C
  H18      1.0000 0.79090  0.09570  0.25530  Biso   1.000  H
  C40      1.0000 0.91370  0.14224  0.42390  Biso   1.000  C
  C41      1.0000 0.17850  0.08646  0.65780  Biso   1.000  C
  C42      1.0000 0.86240  0.20392  0.42280  Biso   1.000  C
  Ce7      1.0000 0.89237  0.48262  0.78468  Biso   1.000  Ce
  Ce8      1.0000 0.60752  0.73262  0.71520  Biso   1.000  Ce
  O25      1.0000 0.97184  0.38423  0.75930  Biso   1.000  O
  O26      1.0000 0.06070  0.28746  0.83240  Biso   1.000  O
  O27      1.0000 0.89790  0.49536  0.98080  Biso   1.000  O
  O28      1.0000 0.94270  0.45860  0.17450  Biso   1.000  O
  O29      1.0000 0.71291  0.63457  0.74100  Biso   1.000  O
  O30      1.0000 0.72850  0.53770  0.66740  Biso   1.000  O
  O31      1.0000 0.41712  0.74512  0.51870  Biso   1.000  O
  O32      1.0000 0.26789  0.70854  0.32510  Biso   1.000  O
  N7       1.0000 0.98530  0.38869  0.97120  Biso   1.000  N
  N8       1.0000 0.51390  0.63931  0.52820  Biso   1.000  N
  C43      1.0000 0.03060  0.33721  0.96490  Biso   1.000  C
  C44      1.0000 0.08310  0.28734  0.06380  Biso   1.000  C
  H19      1.0000 0.11640  0.25290  0.05900  Biso   1.000  H
  C45      1.0000 0.08480  0.29010  0.16970  Biso   1.000  C
  H20      1.0000 0.11790  0.25680  0.23600  Biso   1.000  H
  C46      1.0000 0.03620  0.34339  0.17550  Biso   1.000  C
  H21      1.0000 0.03550  0.34610  0.24490  Biso   1.000  H
  C47      1.0000 0.98910  0.39218  0.07570  Biso   1.000  C
  C48      1.0000 0.01990  0.33609  0.84180  Biso   1.000  C
  C49      1.0000 0.93930  0.45354  0.07730  Biso   1.000  C
  C50      1.0000 0.56610  0.58763  0.53520  Biso   1.000  C
  C51      1.0000 0.51940  0.53710  0.43610  Biso   1.000  C
  H22      1.0000 0.55740  0.50230  0.44120  Biso   1.000  H
  C52      1.0000 0.41550  0.54040  0.33050  Biso   1.000  C
  H23      1.0000 0.38230  0.50730  0.26380  Biso   1.000  H
  C53      1.0000 0.36110  0.59321  0.32450  Biso   1.000  C
  H24      1.0000 0.29090  0.59570  0.25530  Biso   1.000  H
  C54      1.0000 0.41370  0.64224  0.42390  Biso   1.000  C
  C55      1.0000 0.67850  0.58646  0.65780  Biso   1.000  C
  C56      1.0000 0.36240  0.70392  0.42280  Biso   1.000  C
