data_image0
_cell_length_a       13.936
_cell_length_b       13.936
_cell_length_c       17.469
_cell_angle_alpha    90
_cell_angle_beta     90
_cell_angle_gamma    90

_symmetry_space_group_name_H-M    "P 1"
_symmetry_int_tables_number       1

loop_
  _symmetry_equiv_pos_as_xyz
  'x, y, z'

loop_
  _atom_site_label
  _atom_site_occupancy
  _atom_site_fract_x
  _atom_site_fract_y
  _atom_site_fract_z
  _atom_site_thermal_displace_type
  _atom_site_B_iso_or_equiv
  _atom_site_type_symbol
  Nd1      1.0000 0.28547  0.67676  0.74981  Biso   1.000  Nd
  N1       1.0000 0.47060  0.67730  0.75030  Biso   1.000  N
  O1       1.0000 0.36730  0.56460  0.84180  Biso   1.000  O
  O2       1.0000 0.17260  0.67370  0.64500  Biso   1.000  O
  O3       1.0000 0.36830  0.78830  0.65840  Biso   1.000  O
  O4       1.0000 0.50360  0.84990  0.60520  Biso   1.000  O
  O5       1.0000 0.11180  0.54400  0.90780  Biso   1.000  O
  O6       1.0000 0.50250  0.50560  0.89670  Biso   1.000  O
  O7       1.0000 0.17140  0.68020  0.85360  Biso   1.000  O
  O8       1.0000 0.11220  0.80870  0.59180  Biso   1.000  O
  C1       1.0000 0.05600  0.65710  0.54840  Biso   1.000  C
  C2       1.0000 0.52030  0.73290  0.70140  Biso   1.000  C
  C3       1.0000 0.51940  0.62150  0.79880  Biso   1.000  C
  C4       1.0000 0.66890  0.67730  0.75070  Biso   1.000  C
  H1       1.0000 0.73560  0.67770  0.75110  Biso   1.000  H
  C5       1.0000 0.11900  0.71860  0.59960  Biso   1.000  C
  C6       1.0000 0.61820  0.62020  0.80170  Biso   1.000  C
  H2       1.0000 0.65020  0.58200  0.83710  Biso   1.000  H
  C7       1.0000 0.45950  0.79580  0.65020  Biso   1.000  C
  C8       1.0000 0.61910  0.73330  0.69940  Biso   1.000  C
  H3       1.0000 0.65170  0.77080  0.66390  Biso   1.000  H
  C9       1.0000 0.11820  0.63450  0.89990  Biso   1.000  C
  C10      1.0000 0.05580  0.69710  0.95100  Biso   1.000  C
  C11      1.0000 0.05550  0.79580  0.94840  Biso   1.000  C
  H4       1.0000 0.09210  0.82860  0.91240  Biso   1.000  H
  C12      1.0000 0.45780  0.55800  0.85040  Biso   1.000  C
  C13      1.0000 0.05640  0.55710  0.55170  Biso   1.000  C
  H5       1.0000 0.09360  0.52490  0.58760  Biso   1.000  H
  Nd2      1.0000 0.78547  0.17676  0.24981  Biso   1.000  Nd
  N2       1.0000 0.97060  0.17730  0.25030  Biso   1.000  N
  O9       1.0000 0.86730  0.06460  0.34180  Biso   1.000  O
  O10      1.0000 0.67260  0.17370  0.14500  Biso   1.000  O
  O11      1.0000 0.86830  0.28830  0.15840  Biso   1.000  O
  O12      1.0000 0.00360  0.34990  0.10520  Biso   1.000  O
  O13      1.0000 0.61180  0.04400  0.40780  Biso   1.000  O
  O14      1.0000 0.00250  0.00560  0.39670  Biso   1.000  O
  O15      1.0000 0.67140  0.18020  0.35360  Biso   1.000  O
  O16      1.0000 0.61220  0.30870  0.09180  Biso   1.000  O
  C14      1.0000 0.55600  0.15710  0.04840  Biso   1.000  C
  C15      1.0000 0.02030  0.23290  0.20140  Biso   1.000  C
  C16      1.0000 0.01940  0.12150  0.29880  Biso   1.000  C
  C17      1.0000 0.16890  0.17730  0.25070  Biso   1.000  C
  H6       1.0000 0.23560  0.17770  0.25110  Biso   1.000  H
  C18      1.0000 0.61900  0.21860  0.09960  Biso   1.000  C
  C19      1.0000 0.11820  0.12020  0.30170  Biso   1.000  C
  H7       1.0000 0.15020  0.08200  0.33710  Biso   1.000  H
  C20      1.0000 0.95950  0.29580  0.15020  Biso   1.000  C
  C21      1.0000 0.11910  0.23330  0.19940  Biso   1.000  C
  H8       1.0000 0.15170  0.27080  0.16390  Biso   1.000  H
  C22      1.0000 0.61820  0.13450  0.39990  Biso   1.000  C
  C23      1.0000 0.55580  0.19710  0.45100  Biso   1.000  C
  C24      1.0000 0.55550  0.29580  0.44840  Biso   1.000  C
  H9       1.0000 0.59210  0.32860  0.41240  Biso   1.000  H
  C25      1.0000 0.95780  0.05800  0.35040  Biso   1.000  C
  C26      1.0000 0.55640  0.05710  0.05170  Biso   1.000  C
  H10      1.0000 0.59360  0.02490  0.08760  Biso   1.000  H
  Nd3      1.0000 0.71453  0.67676  0.25019  Biso   1.000  Nd
  N3       1.0000 0.52940  0.67730  0.24970  Biso   1.000  N
  O17      1.0000 0.63270  0.56460  0.15820  Biso   1.000  O
  O18      1.0000 0.82740  0.67370  0.35500  Biso   1.000  O
  O19      1.0000 0.63170  0.78830  0.34160  Biso   1.000  O
  O20      1.0000 0.49640  0.84990  0.39480  Biso   1.000  O
  O21      1.0000 0.88820  0.54400  0.09220  Biso   1.000  O
  O22      1.0000 0.49750  0.50560  0.10330  Biso   1.000  O
  O23      1.0000 0.82860  0.68020  0.14640  Biso   1.000  O
  O24      1.0000 0.88780  0.80870  0.40820  Biso   1.000  O
  C27      1.0000 0.94400  0.65710  0.45160  Biso   1.000  C
  C28      1.0000 0.47970  0.73290  0.29860  Biso   1.000  C
  C29      1.0000 0.48060  0.62150  0.20120  Biso   1.000  C
  C30      1.0000 0.33110  0.67730  0.24930  Biso   1.000  C
  H11      1.0000 0.26440  0.67770  0.24890  Biso   1.000  H
  C31      1.0000 0.88100  0.71860  0.40040  Biso   1.000  C
  C32      1.0000 0.38180  0.62020  0.19830  Biso   1.000  C
  H12      1.0000 0.34980  0.58200  0.16290  Biso   1.000  H
  C33      1.0000 0.54050  0.79580  0.34980  Biso   1.000  C
  C34      1.0000 0.38090  0.73330  0.30060  Biso   1.000  C
  H13      1.0000 0.34830  0.77080  0.33610  Biso   1.000  H
  C35      1.0000 0.88180  0.63450  0.10010  Biso   1.000  C
  C36      1.0000 0.94420  0.69710  0.04900  Biso   1.000  C
  C37      1.0000 0.94450  0.79580  0.05160  Biso   1.000  C
  H14      1.0000 0.90790  0.82860  0.08760  Biso   1.000  H
  C38      1.0000 0.54220  0.55800  0.14960  Biso   1.000  C
  C39      1.0000 0.94360  0.55710  0.44830  Biso   1.000  C
  H15      1.0000 0.90640  0.52490  0.41240  Biso   1.000  H
  Nd4      1.0000 0.21453  0.17676  0.75019  Biso   1.000  Nd
  N4       1.0000 0.02940  0.17730  0.74970  Biso   1.000  N
  O25      1.0000 0.13270  0.06460  0.65820  Biso   1.000  O
  O26      1.0000 0.32740  0.17370  0.85500  Biso   1.000  O
  O27      1.0000 0.13170  0.28830  0.84160  Biso   1.000  O
  O28      1.0000 0.99640  0.34990  0.89480  Biso   1.000  O
  O29      1.0000 0.38820  0.04400  0.59220  Biso   1.000  O
  O30      1.0000 0.99750  0.00560  0.60330  Biso   1.000  O
  O31      1.0000 0.32860  0.18020  0.64640  Biso   1.000  O
  O32      1.0000 0.38780  0.30870  0.90820  Biso   1.000  O
  C40      1.0000 0.44400  0.15710  0.95160  Biso   1.000  C
  C41      1.0000 0.97970  0.23290  0.79860  Biso   1.000  C
  C42      1.0000 0.98060  0.12150  0.70120  Biso   1.000  C
  C43      1.0000 0.83110  0.17730  0.74930  Biso   1.000  C
  H16      1.0000 0.76440  0.17770  0.74890  Biso   1.000  H
  C44      1.0000 0.38100  0.21860  0.90040  Biso   1.000  C
  C45      1.0000 0.88180  0.12020  0.69830  Biso   1.000  C
  H17      1.0000 0.84980  0.08200  0.66290  Biso   1.000  H
  C46      1.0000 0.04050  0.29580  0.84980  Biso   1.000  C
  C47      1.0000 0.88090  0.23330  0.80060  Biso   1.000  C
  H18      1.0000 0.84830  0.27080  0.83610  Biso   1.000  H
  C48      1.0000 0.38180  0.13450  0.60010  Biso   1.000  C
  C49      1.0000 0.44420  0.19710  0.54900  Biso   1.000  C
  C50      1.0000 0.44450  0.29580  0.55160  Biso   1.000  C
  H19      1.0000 0.40790  0.32860  0.58760  Biso   1.000  H
  C51      1.0000 0.04220  0.05800  0.64960  Biso   1.000  C
  C52      1.0000 0.44360  0.05710  0.94830  Biso   1.000  C
  H20      1.0000 0.40640  0.02490  0.91240  Biso   1.000  H
  Nd5      1.0000 0.50000  0.96231  0.50000  Biso   1.000  Nd
  Nd6      1.0000 0.00000  0.46231  0.00000  Biso   1.000  Nd
  Nd7      1.0000 0.00000  0.89133  0.50000  Biso   1.000  Nd
  N5       1.0000 0.00000  0.70600  0.50000  Biso   1.000  N
  C53      1.0000 0.00000  0.50700  0.50000  Biso   1.000  C
  H21      1.0000 0.00000  0.44030  0.50000  Biso   1.000  H
  Nd8      1.0000 0.50000  0.39133  0.00000  Biso   1.000  Nd
  N6       1.0000 0.50000  0.20600  0.00000  Biso   1.000  N
  C54      1.0000 0.50000  0.00700  0.00000  Biso   1.000  C
  H22      1.0000 0.50000  0.94030  0.00000  Biso   1.000  H
  N7       1.0000 0.00000  0.64630  0.00000  Biso   1.000  N
  C55      1.0000 0.00000  0.84450  0.00000  Biso   1.000  C
  H23      1.0000 0.00000  0.91130  0.00000  Biso   1.000  H
  N8       1.0000 0.50000  0.14630  0.50000  Biso   1.000  N
  C56      1.0000 0.50000  0.34450  0.50000  Biso   1.000  C
  H24      1.0000 0.50000  0.41130  0.50000  Biso   1.000  H
