data_image0
_cell_length_a       22.771
_cell_length_b       21.3119
_cell_length_c       19.01
_cell_angle_alpha    90
_cell_angle_beta     118.499
_cell_angle_gamma    90

_symmetry_space_group_name_H-M    "P 1"
_symmetry_int_tables_number       1

loop_
  _symmetry_equiv_pos_as_xyz
  'x, y, z'

loop_
  _atom_site_label
  _atom_site_occupancy
  _atom_site_fract_x
  _atom_site_fract_y
  _atom_site_fract_z
  _atom_site_thermal_displace_type
  _atom_site_B_iso_or_equiv
  _atom_site_type_symbol
  Ag1      1.0000 0.22722  0.37808  0.19342  Biso   1.000  Ag
  N1       1.0000 0.07050  0.37490  0.88820  Biso   1.000  N
  N2       1.0000 0.43250  0.62650  0.11410  Biso   1.000  N
  N3       1.0000 0.16420  0.37940  0.04970  Biso   1.000  N
  N4       1.0000 0.08880  0.28940  0.75720  Biso   1.000  N
  N5       1.0000 0.19480  0.20650  0.79270  Biso   1.000  N
  N6       1.0000 0.30940  0.45820  0.21540  Biso   1.000  N
  N7       1.0000 0.41120  0.54300  0.24560  Biso   1.000  N
  N8       1.0000 0.17270  0.45360  0.24140  Biso   1.000  N
  C1       1.0000 0.38460  0.50750  0.17920  Biso   1.000  C
  N9       1.0000 0.16970  0.30360  0.23490  Biso   1.000  N
  N10      1.0000 0.06920  0.52570  0.23560  Biso   1.000  N
  N11      1.0000 0.07020  0.22580  0.23380  Biso   1.000  N
  C2       1.0000 0.33450  0.49380  0.27980  Biso   1.000  C
  H1       1.0000 0.31720  0.49090  0.31630  Biso   1.000  H
  N12      1.0000 0.33720  0.62980  0.95210  Biso   1.000  N
  C3       1.0000 0.11620  0.25570  0.82510  Biso   1.000  C
  C4       1.0000 0.13900  0.31810  0.27790  Biso   1.000  C
  C5       1.0000 0.12900  0.42970  0.01030  Biso   1.000  C
  H2       1.0000 0.13550  0.46790  0.03880  Biso   1.000  H
  C6       1.0000 0.15010  0.32650  0.00710  Biso   1.000  C
  H3       1.0000 0.17340  0.28930  0.03300  Biso   1.000  H
  C7       1.0000 0.08350  0.42850  0.92980  Biso   1.000  C
  H4       1.0000 0.06110  0.46600  0.90360  Biso   1.000  H
  C8       1.0000 0.16840  0.21450  0.84160  Biso   1.000  C
  H5       1.0000 0.18610  0.19080  0.88980  Biso   1.000  H
  C9       1.0000 0.08740  0.26240  0.88180  Biso   1.000  C
  H6       1.0000 0.03830  0.25760  0.85090  Biso   1.000  H
  H7       1.0000 0.10470  0.22770  0.92110  Biso   1.000  H
  C10      1.0000 0.16790  0.24170  0.72540  Biso   1.000  C
  H8       1.0000 0.18570  0.23860  0.68940  Biso   1.000  H
  C11      1.0000 0.10290  0.32340  0.92660  Biso   1.000  C
  C12      1.0000 0.39880  0.57440  0.07700  Biso   1.000  C
  C13      1.0000 0.16150  0.37650  0.32850  Biso   1.000  C
  H9       1.0000 0.14350  0.37590  0.36670  Biso   1.000  H
  H10      1.0000 0.21090  0.37630  0.36010  Biso   1.000  H
  C14      1.0000 0.13960  0.43590  0.28030  Biso   1.000  C
  C15      1.0000 0.42090  0.67900  0.07120  Biso   1.000  C
  H11      1.0000 0.44540  0.71600  0.09550  Biso   1.000  H
  C16      1.0000 0.37260  0.67940  0.99080  Biso   1.000  C
  H12      1.0000 0.36480  0.71770  0.96200  Biso   1.000  H
  C17      1.0000 0.11540  0.28190  0.70790  Biso   1.000  C
  H13      1.0000 0.09730  0.30520  0.65940  Biso   1.000  H
  C18      1.0000 0.41450  0.51380  0.12370  Biso   1.000  C
  H14      1.0000 0.39840  0.47840  0.08530  Biso   1.000  H
  H15      1.0000 0.46360  0.50970  0.15580  Biso   1.000  H
  C19      1.0000 0.10110  0.21290  0.19080  Biso   1.000  C
  H16      1.0000 0.08870  0.17630  0.15840  Biso   1.000  H
  C20      1.0000 0.38650  0.53580  0.29520  Biso   1.000  C
  H17      1.0000 0.40450  0.56000  0.34290  Biso   1.000  H
  C21      1.0000 0.15020  0.25120  0.19210  Biso   1.000  C
  H18      1.0000 0.17100  0.23970  0.16100  Biso   1.000  H
  C22      1.0000 0.33490  0.46510  0.16530  Biso   1.000  C
  H19      1.0000 0.31790  0.43990  0.11850  Biso   1.000  H
  C23      1.0000 0.08920  0.27880  0.27680  Biso   1.000  C
  H20      1.0000 0.06820  0.29020  0.30770  Biso   1.000  H
  C24      1.0000 0.08880  0.47390  0.27730  Biso   1.000  C
  H21      1.0000 0.06710  0.46150  0.30710  Biso   1.000  H
  C25      1.0000 0.15360  0.50620  0.20010  Biso   1.000  C
  H22      1.0000 0.17610  0.52000  0.17180  Biso   1.000  H
  C26      1.0000 0.34940  0.57770  0.99600  Biso   1.000  C
  H23      1.0000 0.32370  0.54130  0.97160  Biso   1.000  H
  C27      1.0000 0.10150  0.54190  0.19700  Biso   1.000  C
  H24      1.0000 0.08890  0.57920  0.16580  Biso   1.000  H
  Ag2      1.0000 0.27420  0.37130  0.30120  Biso   1.000  Ag
  Ag3      1.0000 0.77278  0.37808  0.30658  Biso   1.000  Ag
  N13      1.0000 0.92950  0.37490  0.61180  Biso   1.000  N
  N14      1.0000 0.56750  0.62650  0.38590  Biso   1.000  N
  N15      1.0000 0.83580  0.37940  0.45030  Biso   1.000  N
  N16      1.0000 0.91120  0.28940  0.74280  Biso   1.000  N
  N17      1.0000 0.80520  0.20650  0.70730  Biso   1.000  N
  N18      1.0000 0.69060  0.45820  0.28460  Biso   1.000  N
  N19      1.0000 0.58880  0.54300  0.25440  Biso   1.000  N
  N20      1.0000 0.82730  0.45360  0.25860  Biso   1.000  N
  C28      1.0000 0.61540  0.50750  0.32080  Biso   1.000  C
  N21      1.0000 0.83030  0.30360  0.26510  Biso   1.000  N
  N22      1.0000 0.93080  0.52570  0.26440  Biso   1.000  N
  N23      1.0000 0.92980  0.22580  0.26620  Biso   1.000  N
  C29      1.0000 0.66550  0.49380  0.22020  Biso   1.000  C
  H25      1.0000 0.68280  0.49090  0.18370  Biso   1.000  H
  N24      1.0000 0.66280  0.62980  0.54790  Biso   1.000  N
  C30      1.0000 0.88380  0.25570  0.67490  Biso   1.000  C
  C31      1.0000 0.86100  0.31810  0.22210  Biso   1.000  C
  C32      1.0000 0.87100  0.42970  0.48970  Biso   1.000  C
  H26      1.0000 0.86450  0.46790  0.46120  Biso   1.000  H
  C33      1.0000 0.84990  0.32650  0.49290  Biso   1.000  C
  H27      1.0000 0.82660  0.28930  0.46700  Biso   1.000  H
  C34      1.0000 0.91650  0.42850  0.57020  Biso   1.000  C
  H28      1.0000 0.93890  0.46600  0.59640  Biso   1.000  H
  C35      1.0000 0.83160  0.21450  0.65840  Biso   1.000  C
  H29      1.0000 0.81390  0.19080  0.61020  Biso   1.000  H
  C36      1.0000 0.91260  0.26240  0.61820  Biso   1.000  C
  H30      1.0000 0.96170  0.25760  0.64910  Biso   1.000  H
  H31      1.0000 0.89530  0.22770  0.57890  Biso   1.000  H
  C37      1.0000 0.83210  0.24170  0.77460  Biso   1.000  C
  H32      1.0000 0.81430  0.23860  0.81060  Biso   1.000  H
  C38      1.0000 0.89710  0.32340  0.57340  Biso   1.000  C
  C39      1.0000 0.60120  0.57440  0.42300  Biso   1.000  C
  C40      1.0000 0.83850  0.37650  0.17150  Biso   1.000  C
  H33      1.0000 0.85650  0.37590  0.13330  Biso   1.000  H
  H34      1.0000 0.78910  0.37630  0.13990  Biso   1.000  H
  C41      1.0000 0.86040  0.43590  0.21970  Biso   1.000  C
  C42      1.0000 0.57910  0.67900  0.42880  Biso   1.000  C
  H35      1.0000 0.55460  0.71600  0.40450  Biso   1.000  H
  C43      1.0000 0.62740  0.67940  0.50920  Biso   1.000  C
  H36      1.0000 0.63520  0.71770  0.53800  Biso   1.000  H
  C44      1.0000 0.88460  0.28190  0.79210  Biso   1.000  C
  H37      1.0000 0.90270  0.30520  0.84060  Biso   1.000  H
  C45      1.0000 0.58550  0.51380  0.37630  Biso   1.000  C
  H38      1.0000 0.60160  0.47840  0.41470  Biso   1.000  H
  H39      1.0000 0.53640  0.50970  0.34420  Biso   1.000  H
  C46      1.0000 0.89890  0.21290  0.30920  Biso   1.000  C
  H40      1.0000 0.91130  0.17630  0.34160  Biso   1.000  H
  C47      1.0000 0.61350  0.53580  0.20480  Biso   1.000  C
  H41      1.0000 0.59550  0.56000  0.15710  Biso   1.000  H
  C48      1.0000 0.84980  0.25120  0.30790  Biso   1.000  C
  H42      1.0000 0.82900  0.23970  0.33900  Biso   1.000  H
  C49      1.0000 0.66510  0.46510  0.33470  Biso   1.000  C
  H43      1.0000 0.68210  0.43990  0.38150  Biso   1.000  H
  C50      1.0000 0.91080  0.27880  0.22320  Biso   1.000  C
  H44      1.0000 0.93180  0.29020  0.19230  Biso   1.000  H
  C51      1.0000 0.91120  0.47390  0.22270  Biso   1.000  C
  H45      1.0000 0.93290  0.46150  0.19290  Biso   1.000  H
  C52      1.0000 0.84640  0.50620  0.29990  Biso   1.000  C
  H46      1.0000 0.82390  0.52000  0.32820  Biso   1.000  H
  C53      1.0000 0.65060  0.57770  0.50400  Biso   1.000  C
  H47      1.0000 0.67630  0.54130  0.52840  Biso   1.000  H
  C54      1.0000 0.89850  0.54190  0.30300  Biso   1.000  C
  H48      1.0000 0.91110  0.57920  0.33420  Biso   1.000  H
  Ag4      1.0000 0.72580  0.37130  0.19880  Biso   1.000  Ag
  Ag5      1.0000 0.27278  0.12192  0.80658  Biso   1.000  Ag
  N25      1.0000 0.42950  0.12510  0.11180  Biso   1.000  N
  N26      1.0000 0.06750  0.87350  0.88590  Biso   1.000  N
  N27      1.0000 0.33580  0.12060  0.95030  Biso   1.000  N
  N28      1.0000 0.41120  0.21060  0.24280  Biso   1.000  N
  N29      1.0000 0.30520  0.29350  0.20730  Biso   1.000  N
  N30      1.0000 0.19060  0.04180  0.78460  Biso   1.000  N
  N31      1.0000 0.08880  0.95700  0.75440  Biso   1.000  N
  N32      1.0000 0.32730  0.04640  0.75860  Biso   1.000  N
  C55      1.0000 0.11540  0.99250  0.82080  Biso   1.000  C
  N33      1.0000 0.33030  0.19640  0.76510  Biso   1.000  N
  N34      1.0000 0.43080  0.97430  0.76440  Biso   1.000  N
  N35      1.0000 0.42980  0.27420  0.76620  Biso   1.000  N
  C56      1.0000 0.16550  0.00620  0.72020  Biso   1.000  C
  H49      1.0000 0.18280  0.00910  0.68370  Biso   1.000  H
  N36      1.0000 0.16280  0.87020  0.04790  Biso   1.000  N
  C57      1.0000 0.38380  0.24430  0.17490  Biso   1.000  C
  C58      1.0000 0.36100  0.18190  0.72210  Biso   1.000  C
  C59      1.0000 0.37100  0.07030  0.98970  Biso   1.000  C
  H50      1.0000 0.36450  0.03210  0.96120  Biso   1.000  H
  C60      1.0000 0.34990  0.17350  0.99290  Biso   1.000  C
  H51      1.0000 0.32660  0.21070  0.96700  Biso   1.000  H
  C61      1.0000 0.41650  0.07150  0.07020  Biso   1.000  C
  H52      1.0000 0.43890  0.03400  0.09640  Biso   1.000  H
  C62      1.0000 0.33160  0.28550  0.15840  Biso   1.000  C
  H53      1.0000 0.31390  0.30920  0.11020  Biso   1.000  H
  C63      1.0000 0.41260  0.23760  0.11820  Biso   1.000  C
  H54      1.0000 0.46170  0.24240  0.14910  Biso   1.000  H
  H55      1.0000 0.39530  0.27230  0.07890  Biso   1.000  H
  C64      1.0000 0.33210  0.25830  0.27460  Biso   1.000  C
  H56      1.0000 0.31430  0.26140  0.31060  Biso   1.000  H
  C65      1.0000 0.39710  0.17660  0.07340  Biso   1.000  C
  C66      1.0000 0.10120  0.92560  0.92300  Biso   1.000  C
  C67      1.0000 0.33850  0.12350  0.67150  Biso   1.000  C
  H57      1.0000 0.35650  0.12410  0.63330  Biso   1.000  H
  H58      1.0000 0.28910  0.12370  0.63990  Biso   1.000  H
  C68      1.0000 0.36040  0.06410  0.71970  Biso   1.000  C
  C69      1.0000 0.07910  0.82100  0.92880  Biso   1.000  C
  H59      1.0000 0.05460  0.78400  0.90450  Biso   1.000  H
  C70      1.0000 0.12740  0.82060  0.00920  Biso   1.000  C
  H60      1.0000 0.13520  0.78230  0.03800  Biso   1.000  H
  C71      1.0000 0.38460  0.21810  0.29210  Biso   1.000  C
  H61      1.0000 0.40270  0.19480  0.34060  Biso   1.000  H
  C72      1.0000 0.08550  0.98620  0.87630  Biso   1.000  C
  H62      1.0000 0.10160  0.02160  0.91470  Biso   1.000  H
  H63      1.0000 0.03640  0.99030  0.84420  Biso   1.000  H
  C73      1.0000 0.39890  0.28710  0.80920  Biso   1.000  C
  H64      1.0000 0.41130  0.32370  0.84160  Biso   1.000  H
  C74      1.0000 0.11350  0.96420  0.70480  Biso   1.000  C
  H65      1.0000 0.09550  0.94000  0.65710  Biso   1.000  H
  C75      1.0000 0.34980  0.24880  0.80790  Biso   1.000  C
  H66      1.0000 0.32900  0.26030  0.83900  Biso   1.000  H
  C76      1.0000 0.16510  0.03490  0.83470  Biso   1.000  C
  H67      1.0000 0.18210  0.06010  0.88150  Biso   1.000  H
  C77      1.0000 0.41080  0.22120  0.72320  Biso   1.000  C
  H68      1.0000 0.43180  0.20980  0.69230  Biso   1.000  H
  C78      1.0000 0.41120  0.02610  0.72270  Biso   1.000  C
  H69      1.0000 0.43290  0.03850  0.69290  Biso   1.000  H
  C79      1.0000 0.34640  0.99380  0.79990  Biso   1.000  C
  H70      1.0000 0.32390  0.98000  0.82820  Biso   1.000  H
  C80      1.0000 0.15060  0.92230  0.00400  Biso   1.000  C
  H71      1.0000 0.17630  0.95870  0.02840  Biso   1.000  H
  C81      1.0000 0.39850  0.95810  0.80300  Biso   1.000  C
  H72      1.0000 0.41110  0.92080  0.83420  Biso   1.000  H
  Ag6      1.0000 0.22580  0.12870  0.69880  Biso   1.000  Ag
  Ag7      1.0000 0.72722  0.12192  0.69342  Biso   1.000  Ag
  N37      1.0000 0.57050  0.12510  0.38820  Biso   1.000  N
  N38      1.0000 0.93250  0.87350  0.61410  Biso   1.000  N
  N39      1.0000 0.66420  0.12060  0.54970  Biso   1.000  N
  N40      1.0000 0.58880  0.21060  0.25720  Biso   1.000  N
  N41      1.0000 0.69480  0.29350  0.29270  Biso   1.000  N
  N42      1.0000 0.80940  0.04180  0.71540  Biso   1.000  N
  N43      1.0000 0.91120  0.95700  0.74560  Biso   1.000  N
  N44      1.0000 0.67270  0.04640  0.74140  Biso   1.000  N
  C82      1.0000 0.88460  0.99250  0.67920  Biso   1.000  C
  N45      1.0000 0.66970  0.19640  0.73490  Biso   1.000  N
  N46      1.0000 0.56920  0.97430  0.73560  Biso   1.000  N
  N47      1.0000 0.57020  0.27420  0.73380  Biso   1.000  N
  C83      1.0000 0.83450  0.00620  0.77980  Biso   1.000  C
  H73      1.0000 0.81720  0.00910  0.81630  Biso   1.000  H
  N48      1.0000 0.83720  0.87020  0.45210  Biso   1.000  N
  C84      1.0000 0.61620  0.24430  0.32510  Biso   1.000  C
  C85      1.0000 0.63900  0.18190  0.77790  Biso   1.000  C
  C86      1.0000 0.62900  0.07030  0.51030  Biso   1.000  C
  H74      1.0000 0.63550  0.03210  0.53880  Biso   1.000  H
  C87      1.0000 0.65010  0.17350  0.50710  Biso   1.000  C
  H75      1.0000 0.67340  0.21070  0.53300  Biso   1.000  H
  C88      1.0000 0.58350  0.07150  0.42980  Biso   1.000  C
  H76      1.0000 0.56110  0.03400  0.40360  Biso   1.000  H
  C89      1.0000 0.66840  0.28550  0.34160  Biso   1.000  C
  H77      1.0000 0.68610  0.30920  0.38980  Biso   1.000  H
  C90      1.0000 0.58740  0.23760  0.38180  Biso   1.000  C
  H78      1.0000 0.53830  0.24240  0.35090  Biso   1.000  H
  H79      1.0000 0.60470  0.27230  0.42110  Biso   1.000  H
  C91      1.0000 0.66790  0.25830  0.22540  Biso   1.000  C
  H80      1.0000 0.68570  0.26140  0.18940  Biso   1.000  H
  C92      1.0000 0.60290  0.17660  0.42660  Biso   1.000  C
  C93      1.0000 0.89880  0.92560  0.57700  Biso   1.000  C
  C94      1.0000 0.66150  0.12350  0.82850  Biso   1.000  C
  H81      1.0000 0.64350  0.12410  0.86670  Biso   1.000  H
  H82      1.0000 0.71090  0.12370  0.86010  Biso   1.000  H
  C95      1.0000 0.63960  0.06410  0.78030  Biso   1.000  C
  C96      1.0000 0.92090  0.82100  0.57120  Biso   1.000  C
  H83      1.0000 0.94540  0.78400  0.59550  Biso   1.000  H
  C97      1.0000 0.87260  0.82060  0.49080  Biso   1.000  C
  H84      1.0000 0.86480  0.78230  0.46200  Biso   1.000  H
  C98      1.0000 0.61540  0.21810  0.20790  Biso   1.000  C
  H85      1.0000 0.59730  0.19480  0.15940  Biso   1.000  H
  C99      1.0000 0.91450  0.98620  0.62370  Biso   1.000  C
  H86      1.0000 0.89840  0.02160  0.58530  Biso   1.000  H
  H87      1.0000 0.96360  0.99030  0.65580  Biso   1.000  H
  C100     1.0000 0.60110  0.28710  0.69080  Biso   1.000  C
  H88      1.0000 0.58870  0.32370  0.65840  Biso   1.000  H
  C101     1.0000 0.88650  0.96420  0.79520  Biso   1.000  C
  H89      1.0000 0.90450  0.94000  0.84290  Biso   1.000  H
  C102     1.0000 0.65020  0.24880  0.69210  Biso   1.000  C
  H90      1.0000 0.67100  0.26030  0.66100  Biso   1.000  H
  C103     1.0000 0.83490  0.03490  0.66530  Biso   1.000  C
  H91      1.0000 0.81790  0.06010  0.61850  Biso   1.000  H
  C104     1.0000 0.58920  0.22120  0.77680  Biso   1.000  C
  H92      1.0000 0.56820  0.20980  0.80770  Biso   1.000  H
  C105     1.0000 0.58880  0.02610  0.77730  Biso   1.000  C
  H93      1.0000 0.56710  0.03850  0.80710  Biso   1.000  H
  C106     1.0000 0.65360  0.99380  0.70010  Biso   1.000  C
  H94      1.0000 0.67610  0.98000  0.67180  Biso   1.000  H
  C107     1.0000 0.84940  0.92230  0.49600  Biso   1.000  C
  H95      1.0000 0.82370  0.95870  0.47160  Biso   1.000  H
  C108     1.0000 0.60150  0.95810  0.69700  Biso   1.000  C
  H96      1.0000 0.58890  0.92080  0.66580  Biso   1.000  H
  Ag8      1.0000 0.77420  0.12870  0.80120  Biso   1.000  Ag
  Ag9      1.0000 0.00000  0.37960  0.75000  Biso   1.000  Ag
  Ag10     1.0000 0.50000  0.12040  0.25000  Biso   1.000  Ag
  Ag11     1.0000 0.50000  0.63436  0.25000  Biso   1.000  Ag
  Ag12     1.0000 0.00000  0.86564  0.75000  Biso   1.000  Ag
  Ag13     1.0000 0.72722  0.87808  0.19342  Biso   1.000  Ag
  N49      1.0000 0.57050  0.87490  0.88820  Biso   1.000  N
  N50      1.0000 0.93250  0.12650  0.11410  Biso   1.000  N
  N51      1.0000 0.66420  0.87940  0.04970  Biso   1.000  N
  N52      1.0000 0.58880  0.78940  0.75720  Biso   1.000  N
  N53      1.0000 0.69480  0.70650  0.79270  Biso   1.000  N
  N54      1.0000 0.80940  0.95820  0.21540  Biso   1.000  N
  N55      1.0000 0.91120  0.04300  0.24560  Biso   1.000  N
  N56      1.0000 0.67270  0.95360  0.24140  Biso   1.000  N
  C109     1.0000 0.88460  0.00750  0.17920  Biso   1.000  C
  N57      1.0000 0.66970  0.80360  0.23490  Biso   1.000  N
  N58      1.0000 0.56920  0.02570  0.23560  Biso   1.000  N
  N59      1.0000 0.57020  0.72580  0.23380  Biso   1.000  N
  C110     1.0000 0.83450  0.99380  0.27980  Biso   1.000  C
  H97      1.0000 0.81720  0.99090  0.31630  Biso   1.000  H
  N60      1.0000 0.83720  0.12980  0.95210  Biso   1.000  N
  C111     1.0000 0.61620  0.75570  0.82510  Biso   1.000  C
  C112     1.0000 0.63900  0.81810  0.27790  Biso   1.000  C
  C113     1.0000 0.62900  0.92970  0.01030  Biso   1.000  C
  H98      1.0000 0.63550  0.96790  0.03880  Biso   1.000  H
  C114     1.0000 0.65010  0.82650  0.00710  Biso   1.000  C
  H99      1.0000 0.67340  0.78930  0.03300  Biso   1.000  H
  C115     1.0000 0.58350  0.92850  0.92980  Biso   1.000  C
  H100     1.0000 0.56110  0.96600  0.90360  Biso   1.000  H
  C116     1.0000 0.66840  0.71450  0.84160  Biso   1.000  C
  H101     1.0000 0.68610  0.69080  0.88980  Biso   1.000  H
  C117     1.0000 0.58740  0.76240  0.88180  Biso   1.000  C
  H102     1.0000 0.53830  0.75760  0.85090  Biso   1.000  H
  H103     1.0000 0.60470  0.72770  0.92110  Biso   1.000  H
  C118     1.0000 0.66790  0.74170  0.72540  Biso   1.000  C
  H104     1.0000 0.68570  0.73860  0.68940  Biso   1.000  H
  C119     1.0000 0.60290  0.82340  0.92660  Biso   1.000  C
  C120     1.0000 0.89880  0.07440  0.07700  Biso   1.000  C
  C121     1.0000 0.66150  0.87650  0.32850  Biso   1.000  C
  H105     1.0000 0.64350  0.87590  0.36670  Biso   1.000  H
  H106     1.0000 0.71090  0.87630  0.36010  Biso   1.000  H
  C122     1.0000 0.63960  0.93590  0.28030  Biso   1.000  C
  C123     1.0000 0.92090  0.17900  0.07120  Biso   1.000  C
  H107     1.0000 0.94540  0.21600  0.09550  Biso   1.000  H
  C124     1.0000 0.87260  0.17940  0.99080  Biso   1.000  C
  H108     1.0000 0.86480  0.21770  0.96200  Biso   1.000  H
  C125     1.0000 0.61540  0.78190  0.70790  Biso   1.000  C
  H109     1.0000 0.59730  0.80520  0.65940  Biso   1.000  H
  C126     1.0000 0.91450  0.01380  0.12370  Biso   1.000  C
  H110     1.0000 0.89840  0.97840  0.08530  Biso   1.000  H
  H111     1.0000 0.96360  0.00970  0.15580  Biso   1.000  H
  C127     1.0000 0.60110  0.71290  0.19080  Biso   1.000  C
  H112     1.0000 0.58870  0.67630  0.15840  Biso   1.000  H
  C128     1.0000 0.88650  0.03580  0.29520  Biso   1.000  C
  H113     1.0000 0.90450  0.06000  0.34290  Biso   1.000  H
  C129     1.0000 0.65020  0.75120  0.19210  Biso   1.000  C
  H114     1.0000 0.67100  0.73970  0.16100  Biso   1.000  H
  C130     1.0000 0.83490  0.96510  0.16530  Biso   1.000  C
  H115     1.0000 0.81790  0.93990  0.11850  Biso   1.000  H
  C131     1.0000 0.58920  0.77880  0.27680  Biso   1.000  C
  H116     1.0000 0.56820  0.79020  0.30770  Biso   1.000  H
  C132     1.0000 0.58880  0.97390  0.27730  Biso   1.000  C
  H117     1.0000 0.56710  0.96150  0.30710  Biso   1.000  H
  C133     1.0000 0.65360  0.00620  0.20010  Biso   1.000  C
  H118     1.0000 0.67610  0.02000  0.17180  Biso   1.000  H
  C134     1.0000 0.84940  0.07770  0.99600  Biso   1.000  C
  H119     1.0000 0.82370  0.04130  0.97160  Biso   1.000  H
  C135     1.0000 0.60150  0.04190  0.19700  Biso   1.000  C
  H120     1.0000 0.58890  0.07920  0.16580  Biso   1.000  H
  Ag14     1.0000 0.77420  0.87130  0.30120  Biso   1.000  Ag
  Ag15     1.0000 0.27278  0.87808  0.30658  Biso   1.000  Ag
  N61      1.0000 0.42950  0.87490  0.61180  Biso   1.000  N
  N62      1.0000 0.06750  0.12650  0.38590  Biso   1.000  N
  N63      1.0000 0.33580  0.87940  0.45030  Biso   1.000  N
  N64      1.0000 0.41120  0.78940  0.74280  Biso   1.000  N
  N65      1.0000 0.30520  0.70650  0.70730  Biso   1.000  N
  N66      1.0000 0.19060  0.95820  0.28460  Biso   1.000  N
  N67      1.0000 0.08880  0.04300  0.25440  Biso   1.000  N
  N68      1.0000 0.32730  0.95360  0.25860  Biso   1.000  N
  C136     1.0000 0.11540  0.00750  0.32080  Biso   1.000  C
  N69      1.0000 0.33030  0.80360  0.26510  Biso   1.000  N
  N70      1.0000 0.43080  0.02570  0.26440  Biso   1.000  N
  N71      1.0000 0.42980  0.72580  0.26620  Biso   1.000  N
  C137     1.0000 0.16550  0.99380  0.22020  Biso   1.000  C
  H121     1.0000 0.18280  0.99090  0.18370  Biso   1.000  H
  N72      1.0000 0.16280  0.12980  0.54790  Biso   1.000  N
  C138     1.0000 0.38380  0.75570  0.67490  Biso   1.000  C
  C139     1.0000 0.36100  0.81810  0.22210  Biso   1.000  C
  C140     1.0000 0.37100  0.92970  0.48970  Biso   1.000  C
  H122     1.0000 0.36450  0.96790  0.46120  Biso   1.000  H
  C141     1.0000 0.34990  0.82650  0.49290  Biso   1.000  C
  H123     1.0000 0.32660  0.78930  0.46700  Biso   1.000  H
  C142     1.0000 0.41650  0.92850  0.57020  Biso   1.000  C
  H124     1.0000 0.43890  0.96600  0.59640  Biso   1.000  H
  C143     1.0000 0.33160  0.71450  0.65840  Biso   1.000  C
  H125     1.0000 0.31390  0.69080  0.61020  Biso   1.000  H
  C144     1.0000 0.41260  0.76240  0.61820  Biso   1.000  C
  H126     1.0000 0.46170  0.75760  0.64910  Biso   1.000  H
  H127     1.0000 0.39530  0.72770  0.57890  Biso   1.000  H
  C145     1.0000 0.33210  0.74170  0.77460  Biso   1.000  C
  H128     1.0000 0.31430  0.73860  0.81060  Biso   1.000  H
  C146     1.0000 0.39710  0.82340  0.57340  Biso   1.000  C
  C147     1.0000 0.10120  0.07440  0.42300  Biso   1.000  C
  C148     1.0000 0.33850  0.87650  0.17150  Biso   1.000  C
  H129     1.0000 0.35650  0.87590  0.13330  Biso   1.000  H
  H130     1.0000 0.28910  0.87630  0.13990  Biso   1.000  H
  C149     1.0000 0.36040  0.93590  0.21970  Biso   1.000  C
  C150     1.0000 0.07910  0.17900  0.42880  Biso   1.000  C
  H131     1.0000 0.05460  0.21600  0.40450  Biso   1.000  H
  C151     1.0000 0.12740  0.17940  0.50920  Biso   1.000  C
  H132     1.0000 0.13520  0.21770  0.53800  Biso   1.000  H
  C152     1.0000 0.38460  0.78190  0.79210  Biso   1.000  C
  H133     1.0000 0.40270  0.80520  0.84060  Biso   1.000  H
  C153     1.0000 0.08550  0.01380  0.37630  Biso   1.000  C
  H134     1.0000 0.10160  0.97840  0.41470  Biso   1.000  H
  H135     1.0000 0.03640  0.00970  0.34420  Biso   1.000  H
  C154     1.0000 0.39890  0.71290  0.30920  Biso   1.000  C
  H136     1.0000 0.41130  0.67630  0.34160  Biso   1.000  H
  C155     1.0000 0.11350  0.03580  0.20480  Biso   1.000  C
  H137     1.0000 0.09550  0.06000  0.15710  Biso   1.000  H
  C156     1.0000 0.34980  0.75120  0.30790  Biso   1.000  C
  H138     1.0000 0.32900  0.73970  0.33900  Biso   1.000  H
  C157     1.0000 0.16510  0.96510  0.33470  Biso   1.000  C
  H139     1.0000 0.18210  0.93990  0.38150  Biso   1.000  H
  C158     1.0000 0.41080  0.77880  0.22320  Biso   1.000  C
  H140     1.0000 0.43180  0.79020  0.19230  Biso   1.000  H
  C159     1.0000 0.41120  0.97390  0.22270  Biso   1.000  C
  H141     1.0000 0.43290  0.96150  0.19290  Biso   1.000  H
  C160     1.0000 0.34640  0.00620  0.29990  Biso   1.000  C
  H142     1.0000 0.32390  0.02000  0.32820  Biso   1.000  H
  C161     1.0000 0.15060  0.07770  0.50400  Biso   1.000  C
  H143     1.0000 0.17630  0.04130  0.52840  Biso   1.000  H
  C162     1.0000 0.39850  0.04190  0.30300  Biso   1.000  C
  H144     1.0000 0.41110  0.07920  0.33420  Biso   1.000  H
  Ag16     1.0000 0.22580  0.87130  0.19880  Biso   1.000  Ag
  Ag17     1.0000 0.77278  0.62192  0.80658  Biso   1.000  Ag
  N73      1.0000 0.92950  0.62510  0.11180  Biso   1.000  N
  N74      1.0000 0.56750  0.37350  0.88590  Biso   1.000  N
  N75      1.0000 0.83580  0.62060  0.95030  Biso   1.000  N
  N76      1.0000 0.91120  0.71060  0.24280  Biso   1.000  N
  N77      1.0000 0.80520  0.79350  0.20730  Biso   1.000  N
  N78      1.0000 0.69060  0.54180  0.78460  Biso   1.000  N
  N79      1.0000 0.58880  0.45700  0.75440  Biso   1.000  N
  N80      1.0000 0.82730  0.54640  0.75860  Biso   1.000  N
  C163     1.0000 0.61540  0.49250  0.82080  Biso   1.000  C
  N81      1.0000 0.83030  0.69640  0.76510  Biso   1.000  N
  N82      1.0000 0.93080  0.47430  0.76440  Biso   1.000  N
  N83      1.0000 0.92980  0.77420  0.76620  Biso   1.000  N
  C164     1.0000 0.66550  0.50620  0.72020  Biso   1.000  C
  H145     1.0000 0.68280  0.50910  0.68370  Biso   1.000  H
  N84      1.0000 0.66280  0.37020  0.04790  Biso   1.000  N
  C165     1.0000 0.88380  0.74430  0.17490  Biso   1.000  C
  C166     1.0000 0.86100  0.68190  0.72210  Biso   1.000  C
  C167     1.0000 0.87100  0.57030  0.98970  Biso   1.000  C
  H146     1.0000 0.86450  0.53210  0.96120  Biso   1.000  H
  C168     1.0000 0.84990  0.67350  0.99290  Biso   1.000  C
  H147     1.0000 0.82660  0.71070  0.96700  Biso   1.000  H
  C169     1.0000 0.91650  0.57150  0.07020  Biso   1.000  C
  H148     1.0000 0.93890  0.53400  0.09640  Biso   1.000  H
  C170     1.0000 0.83160  0.78550  0.15840  Biso   1.000  C
  H149     1.0000 0.81390  0.80920  0.11020  Biso   1.000  H
  C171     1.0000 0.91260  0.73760  0.11820  Biso   1.000  C
  H150     1.0000 0.96170  0.74240  0.14910  Biso   1.000  H
  H151     1.0000 0.89530  0.77230  0.07890  Biso   1.000  H
  C172     1.0000 0.83210  0.75830  0.27460  Biso   1.000  C
  H152     1.0000 0.81430  0.76140  0.31060  Biso   1.000  H
  C173     1.0000 0.89710  0.67660  0.07340  Biso   1.000  C
  C174     1.0000 0.60120  0.42560  0.92300  Biso   1.000  C
  C175     1.0000 0.83850  0.62350  0.67150  Biso   1.000  C
  H153     1.0000 0.85650  0.62410  0.63330  Biso   1.000  H
  H154     1.0000 0.78910  0.62370  0.63990  Biso   1.000  H
  C176     1.0000 0.86040  0.56410  0.71970  Biso   1.000  C
  C177     1.0000 0.57910  0.32100  0.92880  Biso   1.000  C
  H155     1.0000 0.55460  0.28400  0.90450  Biso   1.000  H
  C178     1.0000 0.62740  0.32060  0.00920  Biso   1.000  C
  H156     1.0000 0.63520  0.28230  0.03800  Biso   1.000  H
  C179     1.0000 0.88460  0.71810  0.29210  Biso   1.000  C
  H157     1.0000 0.90270  0.69480  0.34060  Biso   1.000  H
  C180     1.0000 0.58550  0.48620  0.87630  Biso   1.000  C
  H158     1.0000 0.60160  0.52160  0.91470  Biso   1.000  H
  H159     1.0000 0.53640  0.49030  0.84420  Biso   1.000  H
  C181     1.0000 0.89890  0.78710  0.80920  Biso   1.000  C
  H160     1.0000 0.91130  0.82370  0.84160  Biso   1.000  H
  C182     1.0000 0.61350  0.46420  0.70480  Biso   1.000  C
  H161     1.0000 0.59550  0.44000  0.65710  Biso   1.000  H
  C183     1.0000 0.84980  0.74880  0.80790  Biso   1.000  C
  H162     1.0000 0.82900  0.76030  0.83900  Biso   1.000  H
  C184     1.0000 0.66510  0.53490  0.83470  Biso   1.000  C
  H163     1.0000 0.68210  0.56010  0.88150  Biso   1.000  H
  C185     1.0000 0.91080  0.72120  0.72320  Biso   1.000  C
  H164     1.0000 0.93180  0.70980  0.69230  Biso   1.000  H
  C186     1.0000 0.91120  0.52610  0.72270  Biso   1.000  C
  H165     1.0000 0.93290  0.53850  0.69290  Biso   1.000  H
  C187     1.0000 0.84640  0.49380  0.79990  Biso   1.000  C
  H166     1.0000 0.82390  0.48000  0.82820  Biso   1.000  H
  C188     1.0000 0.65060  0.42230  0.00400  Biso   1.000  C
  H167     1.0000 0.67630  0.45870  0.02840  Biso   1.000  H
  C189     1.0000 0.89850  0.45810  0.80300  Biso   1.000  C
  H168     1.0000 0.91110  0.42080  0.83420  Biso   1.000  H
  Ag18     1.0000 0.72580  0.62870  0.69880  Biso   1.000  Ag
  Ag19     1.0000 0.22722  0.62192  0.69342  Biso   1.000  Ag
  N85      1.0000 0.07050  0.62510  0.38820  Biso   1.000  N
  N86      1.0000 0.43250  0.37350  0.61410  Biso   1.000  N
  N87      1.0000 0.16420  0.62060  0.54970  Biso   1.000  N
  N88      1.0000 0.08880  0.71060  0.25720  Biso   1.000  N
  N89      1.0000 0.19480  0.79350  0.29270  Biso   1.000  N
  N90      1.0000 0.30940  0.54180  0.71540  Biso   1.000  N
  N91      1.0000 0.41120  0.45700  0.74560  Biso   1.000  N
  N92      1.0000 0.17270  0.54640  0.74140  Biso   1.000  N
  C190     1.0000 0.38460  0.49250  0.67920  Biso   1.000  C
  N93      1.0000 0.16970  0.69640  0.73490  Biso   1.000  N
  N94      1.0000 0.06920  0.47430  0.73560  Biso   1.000  N
  N95      1.0000 0.07020  0.77420  0.73380  Biso   1.000  N
  C191     1.0000 0.33450  0.50620  0.77980  Biso   1.000  C
  H169     1.0000 0.31720  0.50910  0.81630  Biso   1.000  H
  N96      1.0000 0.33720  0.37020  0.45210  Biso   1.000  N
  C192     1.0000 0.11620  0.74430  0.32510  Biso   1.000  C
  C193     1.0000 0.13900  0.68190  0.77790  Biso   1.000  C
  C194     1.0000 0.12900  0.57030  0.51030  Biso   1.000  C
  H170     1.0000 0.13550  0.53210  0.53880  Biso   1.000  H
  C195     1.0000 0.15010  0.67350  0.50710  Biso   1.000  C
  H171     1.0000 0.17340  0.71070  0.53300  Biso   1.000  H
  C196     1.0000 0.08350  0.57150  0.42980  Biso   1.000  C
  H172     1.0000 0.06110  0.53400  0.40360  Biso   1.000  H
  C197     1.0000 0.16840  0.78550  0.34160  Biso   1.000  C
  H173     1.0000 0.18610  0.80920  0.38980  Biso   1.000  H
  C198     1.0000 0.08740  0.73760  0.38180  Biso   1.000  C
  H174     1.0000 0.03830  0.74240  0.35090  Biso   1.000  H
  H175     1.0000 0.10470  0.77230  0.42110  Biso   1.000  H
  C199     1.0000 0.16790  0.75830  0.22540  Biso   1.000  C
  H176     1.0000 0.18570  0.76140  0.18940  Biso   1.000  H
  C200     1.0000 0.10290  0.67660  0.42660  Biso   1.000  C
  C201     1.0000 0.39880  0.42560  0.57700  Biso   1.000  C
  C202     1.0000 0.16150  0.62350  0.82850  Biso   1.000  C
  H177     1.0000 0.14350  0.62410  0.86670  Biso   1.000  H
  H178     1.0000 0.21090  0.62370  0.86010  Biso   1.000  H
  C203     1.0000 0.13960  0.56410  0.78030  Biso   1.000  C
  C204     1.0000 0.42090  0.32100  0.57120  Biso   1.000  C
  H179     1.0000 0.44540  0.28400  0.59550  Biso   1.000  H
  C205     1.0000 0.37260  0.32060  0.49080  Biso   1.000  C
  H180     1.0000 0.36480  0.28230  0.46200  Biso   1.000  H
  C206     1.0000 0.11540  0.71810  0.20790  Biso   1.000  C
  H181     1.0000 0.09730  0.69480  0.15940  Biso   1.000  H
  C207     1.0000 0.41450  0.48620  0.62370  Biso   1.000  C
  H182     1.0000 0.39840  0.52160  0.58530  Biso   1.000  H
  H183     1.0000 0.46360  0.49030  0.65580  Biso   1.000  H
  C208     1.0000 0.10110  0.78710  0.69080  Biso   1.000  C
  H184     1.0000 0.08870  0.82370  0.65840  Biso   1.000  H
  C209     1.0000 0.38650  0.46420  0.79520  Biso   1.000  C
  H185     1.0000 0.40450  0.44000  0.84290  Biso   1.000  H
  C210     1.0000 0.15020  0.74880  0.69210  Biso   1.000  C
  H186     1.0000 0.17100  0.76030  0.66100  Biso   1.000  H
  C211     1.0000 0.33490  0.53490  0.66530  Biso   1.000  C
  H187     1.0000 0.31790  0.56010  0.61850  Biso   1.000  H
  C212     1.0000 0.08920  0.72120  0.77680  Biso   1.000  C
  H188     1.0000 0.06820  0.70980  0.80770  Biso   1.000  H
  C213     1.0000 0.08880  0.52610  0.77730  Biso   1.000  C
  H189     1.0000 0.06710  0.53850  0.80710  Biso   1.000  H
  C214     1.0000 0.15360  0.49380  0.70010  Biso   1.000  C
  H190     1.0000 0.17610  0.48000  0.67180  Biso   1.000  H
  C215     1.0000 0.34940  0.42230  0.49600  Biso   1.000  C
  H191     1.0000 0.32370  0.45870  0.47160  Biso   1.000  H
  C216     1.0000 0.10150  0.45810  0.69700  Biso   1.000  C
  H192     1.0000 0.08890  0.42080  0.66580  Biso   1.000  H
  Ag20     1.0000 0.27420  0.62870  0.80120  Biso   1.000  Ag
  Ag21     1.0000 0.50000  0.87960  0.75000  Biso   1.000  Ag
  Ag22     1.0000 0.00000  0.62040  0.25000  Biso   1.000  Ag
  Ag23     1.0000 0.00000  0.13436  0.25000  Biso   1.000  Ag
  Ag24     1.0000 0.50000  0.36564  0.75000  Biso   1.000  Ag
