data_image0
_cell_length_a       42.7645
_cell_length_b       42.7645
_cell_length_c       16.7556
_cell_angle_alpha    90
_cell_angle_beta     90
_cell_angle_gamma    120

_symmetry_space_group_name_H-M    "P 1"
_symmetry_int_tables_number       1

loop_
  _symmetry_equiv_pos_as_xyz
  'x, y, z'

loop_
  _atom_site_label
  _atom_site_occupancy
  _atom_site_fract_x
  _atom_site_fract_y
  _atom_site_fract_z
  _atom_site_thermal_displace_type
  _atom_site_B_iso_or_equiv
  _atom_site_type_symbol
  O1       1.0000 0.48198  0.57901  0.58060  Biso   1.000  O
  O2       1.0000 0.53115  0.58538  0.64460  Biso   1.000  O
  C1       1.0000 0.50640  0.59400  0.63040  Biso   1.000  C
  C2       1.0000 0.50700  0.62270  0.68480  Biso   1.000  C
  C3       1.0000 0.47620  0.62500  0.69080  Biso   1.000  C
  H1       1.0000 0.45580  0.61000  0.65970  Biso   1.000  H
  C4       1.0000 0.47530  0.64980  0.74340  Biso   1.000  C
  H2       1.0000 0.45480  0.65250  0.74620  Biso   1.000  H
  C5       1.0000 0.50520  0.67060  0.79160  Biso   1.000  C
  C6       1.0000 0.53540  0.66590  0.78760  Biso   1.000  C
  H3       1.0000 0.55530  0.67930  0.82140  Biso   1.000  H
  C7       1.0000 0.53610  0.64200  0.73530  Biso   1.000  C
  H4       1.0000 0.55620  0.63860  0.73330  Biso   1.000  H
  C8       1.0000 0.50380  0.69570  0.85600  Biso   1.000  C
  C9       1.0000 0.50420  0.72700  0.83030  Biso   1.000  C
  C10      1.0000 0.50640  0.73810  0.74840  Biso   1.000  C
  H5       1.0000 0.50760  0.72570  0.70330  Biso   1.000  H
  C11      1.0000 0.50190  0.65340  0.95940  Biso   1.000  C
  C12      1.0000 0.50220  0.68490  0.93410  Biso   1.000  C
  H6       1.0000 0.52330  0.65320  0.93920  Biso   1.000  H
  H7       1.0000 0.48030  0.63200  0.93920  Biso   1.000  H
  O3       1.0000 0.42099  0.90297  0.58060  Biso   1.000  O
  O4       1.0000 0.41462  0.94577  0.64460  Biso   1.000  O
  C13      1.0000 0.40600  0.91240  0.63040  Biso   1.000  C
  C14      1.0000 0.37730  0.88430  0.68480  Biso   1.000  C
  C15      1.0000 0.37500  0.85120  0.69080  Biso   1.000  C
  H8       1.0000 0.39000  0.84580  0.65970  Biso   1.000  H
  C16      1.0000 0.35020  0.82550  0.74340  Biso   1.000  C
  H9       1.0000 0.34750  0.80230  0.74620  Biso   1.000  H
  C17      1.0000 0.32940  0.83460  0.79160  Biso   1.000  C
  C18      1.0000 0.33410  0.86950  0.78760  Biso   1.000  C
  H10      1.0000 0.32070  0.87600  0.82140  Biso   1.000  H
  C19      1.0000 0.35800  0.89410  0.73530  Biso   1.000  C
  H11      1.0000 0.36140  0.91760  0.73330  Biso   1.000  H
  C20      1.0000 0.30430  0.80810  0.85600  Biso   1.000  C
  C21      1.0000 0.27300  0.77720  0.83030  Biso   1.000  C
  C22      1.0000 0.26190  0.76830  0.74840  Biso   1.000  C
  H12      1.0000 0.27430  0.78190  0.70330  Biso   1.000  H
  C23      1.0000 0.34660  0.84850  0.95940  Biso   1.000  C
  C24      1.0000 0.31510  0.81730  0.93410  Biso   1.000  C
  H13      1.0000 0.34680  0.87010  0.93920  Biso   1.000  H
  H14      1.0000 0.36800  0.84830  0.93920  Biso   1.000  H
  O5       1.0000 0.09703  0.51802  0.58060  Biso   1.000  O
  O6       1.0000 0.05423  0.46885  0.64460  Biso   1.000  O
  C25      1.0000 0.08760  0.49360  0.63040  Biso   1.000  C
  C26      1.0000 0.11570  0.49300  0.68480  Biso   1.000  C
  C27      1.0000 0.14880  0.52380  0.69080  Biso   1.000  C
  H15      1.0000 0.15420  0.54420  0.65970  Biso   1.000  H
  C28      1.0000 0.17450  0.52470  0.74340  Biso   1.000  C
  H16      1.0000 0.19770  0.54520  0.74620  Biso   1.000  H
  C29      1.0000 0.16540  0.49480  0.79160  Biso   1.000  C
  C30      1.0000 0.13050  0.46460  0.78760  Biso   1.000  C
  H17      1.0000 0.12400  0.44470  0.82140  Biso   1.000  H
  C31      1.0000 0.10590  0.46390  0.73530  Biso   1.000  C
  H18      1.0000 0.08240  0.44380  0.73330  Biso   1.000  H
  C32      1.0000 0.19190  0.49620  0.85600  Biso   1.000  C
  C33      1.0000 0.22280  0.49580  0.83030  Biso   1.000  C
  C34      1.0000 0.23170  0.49360  0.74840  Biso   1.000  C
  H19      1.0000 0.21810  0.49240  0.70330  Biso   1.000  H
  C35      1.0000 0.15150  0.49810  0.95940  Biso   1.000  C
  C36      1.0000 0.18270  0.49780  0.93410  Biso   1.000  C
  H20      1.0000 0.12990  0.47670  0.93920  Biso   1.000  H
  H21      1.0000 0.15170  0.51970  0.93920  Biso   1.000  H
  O7       1.0000 0.51802  0.42099  0.58060  Biso   1.000  O
  O8       1.0000 0.46885  0.41462  0.64460  Biso   1.000  O
  C37      1.0000 0.49360  0.40600  0.63040  Biso   1.000  C
  C38      1.0000 0.49300  0.37730  0.68480  Biso   1.000  C
  C39      1.0000 0.52380  0.37500  0.69080  Biso   1.000  C
  H22      1.0000 0.54420  0.39000  0.65970  Biso   1.000  H
  C40      1.0000 0.52470  0.35020  0.74340  Biso   1.000  C
  H23      1.0000 0.54520  0.34750  0.74620  Biso   1.000  H
  C41      1.0000 0.49480  0.32940  0.79160  Biso   1.000  C
  C42      1.0000 0.46460  0.33410  0.78760  Biso   1.000  C
  H24      1.0000 0.44470  0.32070  0.82140  Biso   1.000  H
  C43      1.0000 0.46390  0.35800  0.73530  Biso   1.000  C
  H25      1.0000 0.44380  0.36140  0.73330  Biso   1.000  H
  C44      1.0000 0.49620  0.30430  0.85600  Biso   1.000  C
  C45      1.0000 0.49580  0.27300  0.83030  Biso   1.000  C
  C46      1.0000 0.49360  0.26190  0.74840  Biso   1.000  C
  H26      1.0000 0.49240  0.27430  0.70330  Biso   1.000  H
  C47      1.0000 0.49810  0.34660  0.95940  Biso   1.000  C
  C48      1.0000 0.49780  0.31510  0.93410  Biso   1.000  C
  H27      1.0000 0.47670  0.34680  0.93920  Biso   1.000  H
  H28      1.0000 0.51970  0.36800  0.93920  Biso   1.000  H
  O9       1.0000 0.57901  0.09703  0.58060  Biso   1.000  O
  O10      1.0000 0.58538  0.05423  0.64460  Biso   1.000  O
  C49      1.0000 0.59400  0.08760  0.63040  Biso   1.000  C
  C50      1.0000 0.62270  0.11570  0.68480  Biso   1.000  C
  C51      1.0000 0.62500  0.14880  0.69080  Biso   1.000  C
  H29      1.0000 0.61000  0.15420  0.65970  Biso   1.000  H
  C52      1.0000 0.64980  0.17450  0.74340  Biso   1.000  C
  H30      1.0000 0.65250  0.19770  0.74620  Biso   1.000  H
  C53      1.0000 0.67060  0.16540  0.79160  Biso   1.000  C
  C54      1.0000 0.66590  0.13050  0.78760  Biso   1.000  C
  H31      1.0000 0.67930  0.12400  0.82140  Biso   1.000  H
  C55      1.0000 0.64200  0.10590  0.73530  Biso   1.000  C
  H32      1.0000 0.63860  0.08240  0.73330  Biso   1.000  H
  C56      1.0000 0.69570  0.19190  0.85600  Biso   1.000  C
  C57      1.0000 0.72700  0.22280  0.83030  Biso   1.000  C
  C58      1.0000 0.73810  0.23170  0.74840  Biso   1.000  C
  H33      1.0000 0.72570  0.21810  0.70330  Biso   1.000  H
  C59      1.0000 0.65340  0.15150  0.95940  Biso   1.000  C
  C60      1.0000 0.68490  0.18270  0.93410  Biso   1.000  C
  H34      1.0000 0.65320  0.12990  0.93920  Biso   1.000  H
  H35      1.0000 0.63200  0.15170  0.93920  Biso   1.000  H
  O11      1.0000 0.90297  0.48198  0.58060  Biso   1.000  O
  O12      1.0000 0.94577  0.53115  0.64460  Biso   1.000  O
  C61      1.0000 0.91240  0.50640  0.63040  Biso   1.000  C
  C62      1.0000 0.88430  0.50700  0.68480  Biso   1.000  C
  C63      1.0000 0.85120  0.47620  0.69080  Biso   1.000  C
  H36      1.0000 0.84580  0.45580  0.65970  Biso   1.000  H
  C64      1.0000 0.82550  0.47530  0.74340  Biso   1.000  C
  H37      1.0000 0.80230  0.45480  0.74620  Biso   1.000  H
  C65      1.0000 0.83460  0.50520  0.79160  Biso   1.000  C
  C66      1.0000 0.86950  0.53540  0.78760  Biso   1.000  C
  H38      1.0000 0.87600  0.55530  0.82140  Biso   1.000  H
  C67      1.0000 0.89410  0.53610  0.73530  Biso   1.000  C
  H39      1.0000 0.91760  0.55620  0.73330  Biso   1.000  H
  C68      1.0000 0.80810  0.50380  0.85600  Biso   1.000  C
  C69      1.0000 0.77720  0.50420  0.83030  Biso   1.000  C
  C70      1.0000 0.76830  0.50640  0.74840  Biso   1.000  C
  H40      1.0000 0.78190  0.50760  0.70330  Biso   1.000  H
  C71      1.0000 0.84850  0.50190  0.95940  Biso   1.000  C
  C72      1.0000 0.81730  0.50220  0.93410  Biso   1.000  C
  H41      1.0000 0.87010  0.52330  0.93920  Biso   1.000  H
  H42      1.0000 0.84830  0.48030  0.93920  Biso   1.000  H
  O13      1.0000 0.57901  0.48198  0.41940  Biso   1.000  O
  O14      1.0000 0.58538  0.53115  0.35540  Biso   1.000  O
  C73      1.0000 0.59400  0.50640  0.36960  Biso   1.000  C
  C74      1.0000 0.62270  0.50700  0.31520  Biso   1.000  C
  C75      1.0000 0.62500  0.47620  0.30920  Biso   1.000  C
  H43      1.0000 0.61000  0.45580  0.34030  Biso   1.000  H
  C76      1.0000 0.64980  0.47530  0.25660  Biso   1.000  C
  H44      1.0000 0.65250  0.45480  0.25380  Biso   1.000  H
  C77      1.0000 0.67060  0.50520  0.20840  Biso   1.000  C
  C78      1.0000 0.66590  0.53540  0.21240  Biso   1.000  C
  H45      1.0000 0.67930  0.55530  0.17860  Biso   1.000  H
  C79      1.0000 0.64200  0.53610  0.26470  Biso   1.000  C
  H46      1.0000 0.63860  0.55620  0.26670  Biso   1.000  H
  C80      1.0000 0.69570  0.50380  0.14400  Biso   1.000  C
  C81      1.0000 0.72700  0.50420  0.16970  Biso   1.000  C
  C82      1.0000 0.73810  0.50640  0.25160  Biso   1.000  C
  H47      1.0000 0.72570  0.50760  0.29670  Biso   1.000  H
  C83      1.0000 0.65340  0.50190  0.04060  Biso   1.000  C
  C84      1.0000 0.68490  0.50220  0.06590  Biso   1.000  C
  H48      1.0000 0.65320  0.52330  0.06080  Biso   1.000  H
  H49      1.0000 0.63200  0.48030  0.06080  Biso   1.000  H
  O15      1.0000 0.90297  0.42099  0.41940  Biso   1.000  O
  O16      1.0000 0.94577  0.41462  0.35540  Biso   1.000  O
  C85      1.0000 0.91240  0.40600  0.36960  Biso   1.000  C
  C86      1.0000 0.88430  0.37730  0.31520  Biso   1.000  C
  C87      1.0000 0.85120  0.37500  0.30920  Biso   1.000  C
  H50      1.0000 0.84580  0.39000  0.34030  Biso   1.000  H
  C88      1.0000 0.82550  0.35020  0.25660  Biso   1.000  C
  H51      1.0000 0.80230  0.34750  0.25380  Biso   1.000  H
  C89      1.0000 0.83460  0.32940  0.20840  Biso   1.000  C
  C90      1.0000 0.86950  0.33410  0.21240  Biso   1.000  C
  H52      1.0000 0.87600  0.32070  0.17860  Biso   1.000  H
  C91      1.0000 0.89410  0.35800  0.26470  Biso   1.000  C
  H53      1.0000 0.91760  0.36140  0.26670  Biso   1.000  H
  C92      1.0000 0.80810  0.30430  0.14400  Biso   1.000  C
  C93      1.0000 0.77720  0.27300  0.16970  Biso   1.000  C
  C94      1.0000 0.76830  0.26190  0.25160  Biso   1.000  C
  H54      1.0000 0.78190  0.27430  0.29670  Biso   1.000  H
  C95      1.0000 0.84850  0.34660  0.04060  Biso   1.000  C
  C96      1.0000 0.81730  0.31510  0.06590  Biso   1.000  C
  H55      1.0000 0.87010  0.34680  0.06080  Biso   1.000  H
  H56      1.0000 0.84830  0.36800  0.06080  Biso   1.000  H
  O17      1.0000 0.51802  0.09703  0.41940  Biso   1.000  O
  O18      1.0000 0.46885  0.05423  0.35540  Biso   1.000  O
  C97      1.0000 0.49360  0.08760  0.36960  Biso   1.000  C
  C98      1.0000 0.49300  0.11570  0.31520  Biso   1.000  C
  C99      1.0000 0.52380  0.14880  0.30920  Biso   1.000  C
  H57      1.0000 0.54420  0.15420  0.34030  Biso   1.000  H
  C100     1.0000 0.52470  0.17450  0.25660  Biso   1.000  C
  H58      1.0000 0.54520  0.19770  0.25380  Biso   1.000  H
  C101     1.0000 0.49480  0.16540  0.20840  Biso   1.000  C
  C102     1.0000 0.46460  0.13050  0.21240  Biso   1.000  C
  H59      1.0000 0.44470  0.12400  0.17860  Biso   1.000  H
  C103     1.0000 0.46390  0.10590  0.26470  Biso   1.000  C
  H60      1.0000 0.44380  0.08240  0.26670  Biso   1.000  H
  C104     1.0000 0.49620  0.19190  0.14400  Biso   1.000  C
  C105     1.0000 0.49580  0.22280  0.16970  Biso   1.000  C
  C106     1.0000 0.49360  0.23170  0.25160  Biso   1.000  C
  H61      1.0000 0.49240  0.21810  0.29670  Biso   1.000  H
  C107     1.0000 0.49810  0.15150  0.04060  Biso   1.000  C
  C108     1.0000 0.49780  0.18270  0.06590  Biso   1.000  C
  H62      1.0000 0.47670  0.12990  0.06080  Biso   1.000  H
  H63      1.0000 0.51970  0.15170  0.06080  Biso   1.000  H
  O19      1.0000 0.42099  0.51802  0.41940  Biso   1.000  O
  O20      1.0000 0.41462  0.46885  0.35540  Biso   1.000  O
  C109     1.0000 0.40600  0.49360  0.36960  Biso   1.000  C
  C110     1.0000 0.37730  0.49300  0.31520  Biso   1.000  C
  C111     1.0000 0.37500  0.52380  0.30920  Biso   1.000  C
  H64      1.0000 0.39000  0.54420  0.34030  Biso   1.000  H
  C112     1.0000 0.35020  0.52470  0.25660  Biso   1.000  C
  H65      1.0000 0.34750  0.54520  0.25380  Biso   1.000  H
  C113     1.0000 0.32940  0.49480  0.20840  Biso   1.000  C
  C114     1.0000 0.33410  0.46460  0.21240  Biso   1.000  C
  H66      1.0000 0.32070  0.44470  0.17860  Biso   1.000  H
  C115     1.0000 0.35800  0.46390  0.26470  Biso   1.000  C
  H67      1.0000 0.36140  0.44380  0.26670  Biso   1.000  H
  C116     1.0000 0.30430  0.49620  0.14400  Biso   1.000  C
  C117     1.0000 0.27300  0.49580  0.16970  Biso   1.000  C
  C118     1.0000 0.26190  0.49360  0.25160  Biso   1.000  C
  H68      1.0000 0.27430  0.49240  0.29670  Biso   1.000  H
  C119     1.0000 0.34660  0.49810  0.04060  Biso   1.000  C
  C120     1.0000 0.31510  0.49780  0.06590  Biso   1.000  C
  H69      1.0000 0.34680  0.47670  0.06080  Biso   1.000  H
  H70      1.0000 0.36800  0.51970  0.06080  Biso   1.000  H
  O21      1.0000 0.09703  0.57901  0.41940  Biso   1.000  O
  O22      1.0000 0.05423  0.58538  0.35540  Biso   1.000  O
  C121     1.0000 0.08760  0.59400  0.36960  Biso   1.000  C
  C122     1.0000 0.11570  0.62270  0.31520  Biso   1.000  C
  C123     1.0000 0.14880  0.62500  0.30920  Biso   1.000  C
  H71      1.0000 0.15420  0.61000  0.34030  Biso   1.000  H
  C124     1.0000 0.17450  0.64980  0.25660  Biso   1.000  C
  H72      1.0000 0.19770  0.65250  0.25380  Biso   1.000  H
  C125     1.0000 0.16540  0.67060  0.20840  Biso   1.000  C
  C126     1.0000 0.13050  0.66590  0.21240  Biso   1.000  C
  H73      1.0000 0.12400  0.67930  0.17860  Biso   1.000  H
  C127     1.0000 0.10590  0.64200  0.26470  Biso   1.000  C
  H74      1.0000 0.08240  0.63860  0.26670  Biso   1.000  H
  C128     1.0000 0.19190  0.69570  0.14400  Biso   1.000  C
  C129     1.0000 0.22280  0.72700  0.16970  Biso   1.000  C
  C130     1.0000 0.23170  0.73810  0.25160  Biso   1.000  C
  H75      1.0000 0.21810  0.72570  0.29670  Biso   1.000  H
  C131     1.0000 0.15150  0.65340  0.04060  Biso   1.000  C
  C132     1.0000 0.18270  0.68490  0.06590  Biso   1.000  C
  H76      1.0000 0.12990  0.65320  0.06080  Biso   1.000  H
  H77      1.0000 0.15170  0.63200  0.06080  Biso   1.000  H
  O23      1.0000 0.48198  0.90297  0.41940  Biso   1.000  O
  O24      1.0000 0.53115  0.94577  0.35540  Biso   1.000  O
  C133     1.0000 0.50640  0.91240  0.36960  Biso   1.000  C
  C134     1.0000 0.50700  0.88430  0.31520  Biso   1.000  C
  C135     1.0000 0.47620  0.85120  0.30920  Biso   1.000  C
  H78      1.0000 0.45580  0.84580  0.34030  Biso   1.000  H
  C136     1.0000 0.47530  0.82550  0.25660  Biso   1.000  C
  H79      1.0000 0.45480  0.80230  0.25380  Biso   1.000  H
  C137     1.0000 0.50520  0.83460  0.20840  Biso   1.000  C
  C138     1.0000 0.53540  0.86950  0.21240  Biso   1.000  C
  H80      1.0000 0.55530  0.87600  0.17860  Biso   1.000  H
  C139     1.0000 0.53610  0.89410  0.26470  Biso   1.000  C
  H81      1.0000 0.55620  0.91760  0.26670  Biso   1.000  H
  C140     1.0000 0.50380  0.80810  0.14400  Biso   1.000  C
  C141     1.0000 0.50420  0.77720  0.16970  Biso   1.000  C
  C142     1.0000 0.50640  0.76830  0.25160  Biso   1.000  C
  H82      1.0000 0.50760  0.78190  0.29670  Biso   1.000  H
  C143     1.0000 0.50190  0.84850  0.04060  Biso   1.000  C
  C144     1.0000 0.50220  0.81730  0.06590  Biso   1.000  C
  H83      1.0000 0.52330  0.87010  0.06080  Biso   1.000  H
  H84      1.0000 0.48030  0.84830  0.06080  Biso   1.000  H
  O25      1.0000 0.51802  0.42099  0.41940  Biso   1.000  O
  O26      1.0000 0.46885  0.41462  0.35540  Biso   1.000  O
  C145     1.0000 0.49360  0.40600  0.36960  Biso   1.000  C
  C146     1.0000 0.49300  0.37730  0.31520  Biso   1.000  C
  C147     1.0000 0.52380  0.37500  0.30920  Biso   1.000  C
  H85      1.0000 0.54420  0.39000  0.34030  Biso   1.000  H
  C148     1.0000 0.52470  0.35020  0.25660  Biso   1.000  C
  H86      1.0000 0.54520  0.34750  0.25380  Biso   1.000  H
  C149     1.0000 0.49480  0.32940  0.20840  Biso   1.000  C
  C150     1.0000 0.46460  0.33410  0.21240  Biso   1.000  C
  H87      1.0000 0.44470  0.32070  0.17860  Biso   1.000  H
  C151     1.0000 0.46390  0.35800  0.26470  Biso   1.000  C
  H88      1.0000 0.44380  0.36140  0.26670  Biso   1.000  H
  C152     1.0000 0.49620  0.30430  0.14400  Biso   1.000  C
  C153     1.0000 0.49580  0.27300  0.16970  Biso   1.000  C
  C154     1.0000 0.49360  0.26190  0.25160  Biso   1.000  C
  H89      1.0000 0.49240  0.27430  0.29670  Biso   1.000  H
  C155     1.0000 0.49810  0.34660  0.04060  Biso   1.000  C
  C156     1.0000 0.49780  0.31510  0.06590  Biso   1.000  C
  H90      1.0000 0.47670  0.34680  0.06080  Biso   1.000  H
  H91      1.0000 0.51970  0.36800  0.06080  Biso   1.000  H
  O27      1.0000 0.57901  0.09703  0.41940  Biso   1.000  O
  O28      1.0000 0.58538  0.05423  0.35540  Biso   1.000  O
  C157     1.0000 0.59400  0.08760  0.36960  Biso   1.000  C
  C158     1.0000 0.62270  0.11570  0.31520  Biso   1.000  C
  C159     1.0000 0.62500  0.14880  0.30920  Biso   1.000  C
  H92      1.0000 0.61000  0.15420  0.34030  Biso   1.000  H
  C160     1.0000 0.64980  0.17450  0.25660  Biso   1.000  C
  H93      1.0000 0.65250  0.19770  0.25380  Biso   1.000  H
  C161     1.0000 0.67060  0.16540  0.20840  Biso   1.000  C
  C162     1.0000 0.66590  0.13050  0.21240  Biso   1.000  C
  H94      1.0000 0.67930  0.12400  0.17860  Biso   1.000  H
  C163     1.0000 0.64200  0.10590  0.26470  Biso   1.000  C
  H95      1.0000 0.63860  0.08240  0.26670  Biso   1.000  H
  C164     1.0000 0.69570  0.19190  0.14400  Biso   1.000  C
  C165     1.0000 0.72700  0.22280  0.16970  Biso   1.000  C
  C166     1.0000 0.73810  0.23170  0.25160  Biso   1.000  C
  H96      1.0000 0.72570  0.21810  0.29670  Biso   1.000  H
  C167     1.0000 0.65340  0.15150  0.04060  Biso   1.000  C
  C168     1.0000 0.68490  0.18270  0.06590  Biso   1.000  C
  H97      1.0000 0.65320  0.12990  0.06080  Biso   1.000  H
  H98      1.0000 0.63200  0.15170  0.06080  Biso   1.000  H
  O29      1.0000 0.90297  0.48198  0.41940  Biso   1.000  O
  O30      1.0000 0.94577  0.53115  0.35540  Biso   1.000  O
  C169     1.0000 0.91240  0.50640  0.36960  Biso   1.000  C
  C170     1.0000 0.88430  0.50700  0.31520  Biso   1.000  C
  C171     1.0000 0.85120  0.47620  0.30920  Biso   1.000  C
  H99      1.0000 0.84580  0.45580  0.34030  Biso   1.000  H
  C172     1.0000 0.82550  0.47530  0.25660  Biso   1.000  C
  H100     1.0000 0.80230  0.45480  0.25380  Biso   1.000  H
  C173     1.0000 0.83460  0.50520  0.20840  Biso   1.000  C
  C174     1.0000 0.86950  0.53540  0.21240  Biso   1.000  C
  H101     1.0000 0.87600  0.55530  0.17860  Biso   1.000  H
  C175     1.0000 0.89410  0.53610  0.26470  Biso   1.000  C
  H102     1.0000 0.91760  0.55620  0.26670  Biso   1.000  H
  C176     1.0000 0.80810  0.50380  0.14400  Biso   1.000  C
  C177     1.0000 0.77720  0.50420  0.16970  Biso   1.000  C
  C178     1.0000 0.76830  0.50640  0.25160  Biso   1.000  C
  H103     1.0000 0.78190  0.50760  0.29670  Biso   1.000  H
  C179     1.0000 0.84850  0.50190  0.04060  Biso   1.000  C
  C180     1.0000 0.81730  0.50220  0.06590  Biso   1.000  C
  H104     1.0000 0.87010  0.52330  0.06080  Biso   1.000  H
  H105     1.0000 0.84830  0.48030  0.06080  Biso   1.000  H
  O31      1.0000 0.48198  0.57901  0.41940  Biso   1.000  O
  O32      1.0000 0.53115  0.58538  0.35540  Biso   1.000  O
  C181     1.0000 0.50640  0.59400  0.36960  Biso   1.000  C
  C182     1.0000 0.50700  0.62270  0.31520  Biso   1.000  C
  C183     1.0000 0.47620  0.62500  0.30920  Biso   1.000  C
  H106     1.0000 0.45580  0.61000  0.34030  Biso   1.000  H
  C184     1.0000 0.47530  0.64980  0.25660  Biso   1.000  C
  H107     1.0000 0.45480  0.65250  0.25380  Biso   1.000  H
  C185     1.0000 0.50520  0.67060  0.20840  Biso   1.000  C
  C186     1.0000 0.53540  0.66590  0.21240  Biso   1.000  C
  H108     1.0000 0.55530  0.67930  0.17860  Biso   1.000  H
  C187     1.0000 0.53610  0.64200  0.26470  Biso   1.000  C
  H109     1.0000 0.55620  0.63860  0.26670  Biso   1.000  H
  C188     1.0000 0.50380  0.69570  0.14400  Biso   1.000  C
  C189     1.0000 0.50420  0.72700  0.16970  Biso   1.000  C
  C190     1.0000 0.50640  0.73810  0.25160  Biso   1.000  C
  H110     1.0000 0.50760  0.72570  0.29670  Biso   1.000  H
  C191     1.0000 0.50190  0.65340  0.04060  Biso   1.000  C
  C192     1.0000 0.50220  0.68490  0.06590  Biso   1.000  C
  H111     1.0000 0.52330  0.65320  0.06080  Biso   1.000  H
  H112     1.0000 0.48030  0.63200  0.06080  Biso   1.000  H
  O33      1.0000 0.42099  0.90297  0.41940  Biso   1.000  O
  O34      1.0000 0.41462  0.94577  0.35540  Biso   1.000  O
  C193     1.0000 0.40600  0.91240  0.36960  Biso   1.000  C
  C194     1.0000 0.37730  0.88430  0.31520  Biso   1.000  C
  C195     1.0000 0.37500  0.85120  0.30920  Biso   1.000  C
  H113     1.0000 0.39000  0.84580  0.34030  Biso   1.000  H
  C196     1.0000 0.35020  0.82550  0.25660  Biso   1.000  C
  H114     1.0000 0.34750  0.80230  0.25380  Biso   1.000  H
  C197     1.0000 0.32940  0.83460  0.20840  Biso   1.000  C
  C198     1.0000 0.33410  0.86950  0.21240  Biso   1.000  C
  H115     1.0000 0.32070  0.87600  0.17860  Biso   1.000  H
  C199     1.0000 0.35800  0.89410  0.26470  Biso   1.000  C
  H116     1.0000 0.36140  0.91760  0.26670  Biso   1.000  H
  C200     1.0000 0.30430  0.80810  0.14400  Biso   1.000  C
  C201     1.0000 0.27300  0.77720  0.16970  Biso   1.000  C
  C202     1.0000 0.26190  0.76830  0.25160  Biso   1.000  C
  H117     1.0000 0.27430  0.78190  0.29670  Biso   1.000  H
  C203     1.0000 0.34660  0.84850  0.04060  Biso   1.000  C
  C204     1.0000 0.31510  0.81730  0.06590  Biso   1.000  C
  H118     1.0000 0.34680  0.87010  0.06080  Biso   1.000  H
  H119     1.0000 0.36800  0.84830  0.06080  Biso   1.000  H
  O35      1.0000 0.09703  0.51802  0.41940  Biso   1.000  O
  O36      1.0000 0.05423  0.46885  0.35540  Biso   1.000  O
  C205     1.0000 0.08760  0.49360  0.36960  Biso   1.000  C
  C206     1.0000 0.11570  0.49300  0.31520  Biso   1.000  C
  C207     1.0000 0.14880  0.52380  0.30920  Biso   1.000  C
  H120     1.0000 0.15420  0.54420  0.34030  Biso   1.000  H
  C208     1.0000 0.17450  0.52470  0.25660  Biso   1.000  C
  H121     1.0000 0.19770  0.54520  0.25380  Biso   1.000  H
  C209     1.0000 0.16540  0.49480  0.20840  Biso   1.000  C
  C210     1.0000 0.13050  0.46460  0.21240  Biso   1.000  C
  H122     1.0000 0.12400  0.44470  0.17860  Biso   1.000  H
  C211     1.0000 0.10590  0.46390  0.26470  Biso   1.000  C
  H123     1.0000 0.08240  0.44380  0.26670  Biso   1.000  H
  C212     1.0000 0.19190  0.49620  0.14400  Biso   1.000  C
  C213     1.0000 0.22280  0.49580  0.16970  Biso   1.000  C
  C214     1.0000 0.23170  0.49360  0.25160  Biso   1.000  C
  H124     1.0000 0.21810  0.49240  0.29670  Biso   1.000  H
  C215     1.0000 0.15150  0.49810  0.04060  Biso   1.000  C
  C216     1.0000 0.18270  0.49780  0.06590  Biso   1.000  C
  H125     1.0000 0.12990  0.47670  0.06080  Biso   1.000  H
  H126     1.0000 0.15170  0.51970  0.06080  Biso   1.000  H
  O37      1.0000 0.42099  0.51802  0.58060  Biso   1.000  O
  O38      1.0000 0.41462  0.46885  0.64460  Biso   1.000  O
  C217     1.0000 0.40600  0.49360  0.63040  Biso   1.000  C
  C218     1.0000 0.37730  0.49300  0.68480  Biso   1.000  C
  C219     1.0000 0.37500  0.52380  0.69080  Biso   1.000  C
  H127     1.0000 0.39000  0.54420  0.65970  Biso   1.000  H
  C220     1.0000 0.35020  0.52470  0.74340  Biso   1.000  C
  H128     1.0000 0.34750  0.54520  0.74620  Biso   1.000  H
  C221     1.0000 0.32940  0.49480  0.79160  Biso   1.000  C
  C222     1.0000 0.33410  0.46460  0.78760  Biso   1.000  C
  H129     1.0000 0.32070  0.44470  0.82140  Biso   1.000  H
  C223     1.0000 0.35800  0.46390  0.73530  Biso   1.000  C
  H130     1.0000 0.36140  0.44380  0.73330  Biso   1.000  H
  C224     1.0000 0.30430  0.49620  0.85600  Biso   1.000  C
  C225     1.0000 0.27300  0.49580  0.83030  Biso   1.000  C
  C226     1.0000 0.26190  0.49360  0.74840  Biso   1.000  C
  H131     1.0000 0.27430  0.49240  0.70330  Biso   1.000  H
  C227     1.0000 0.34660  0.49810  0.95940  Biso   1.000  C
  C228     1.0000 0.31510  0.49780  0.93410  Biso   1.000  C
  H132     1.0000 0.34680  0.47670  0.93920  Biso   1.000  H
  H133     1.0000 0.36800  0.51970  0.93920  Biso   1.000  H
  O39      1.0000 0.09703  0.57901  0.58060  Biso   1.000  O
  O40      1.0000 0.05423  0.58538  0.64460  Biso   1.000  O
  C229     1.0000 0.08760  0.59400  0.63040  Biso   1.000  C
  C230     1.0000 0.11570  0.62270  0.68480  Biso   1.000  C
  C231     1.0000 0.14880  0.62500  0.69080  Biso   1.000  C
  H134     1.0000 0.15420  0.61000  0.65970  Biso   1.000  H
  C232     1.0000 0.17450  0.64980  0.74340  Biso   1.000  C
  H135     1.0000 0.19770  0.65250  0.74620  Biso   1.000  H
  C233     1.0000 0.16540  0.67060  0.79160  Biso   1.000  C
  C234     1.0000 0.13050  0.66590  0.78760  Biso   1.000  C
  H136     1.0000 0.12400  0.67930  0.82140  Biso   1.000  H
  C235     1.0000 0.10590  0.64200  0.73530  Biso   1.000  C
  H137     1.0000 0.08240  0.63860  0.73330  Biso   1.000  H
  C236     1.0000 0.19190  0.69570  0.85600  Biso   1.000  C
  C237     1.0000 0.22280  0.72700  0.83030  Biso   1.000  C
  C238     1.0000 0.23170  0.73810  0.74840  Biso   1.000  C
  H138     1.0000 0.21810  0.72570  0.70330  Biso   1.000  H
  C239     1.0000 0.15150  0.65340  0.95940  Biso   1.000  C
  C240     1.0000 0.18270  0.68490  0.93410  Biso   1.000  C
  H139     1.0000 0.12990  0.65320  0.93920  Biso   1.000  H
  H140     1.0000 0.15170  0.63200  0.93920  Biso   1.000  H
  O41      1.0000 0.48198  0.90297  0.58060  Biso   1.000  O
  O42      1.0000 0.53115  0.94577  0.64460  Biso   1.000  O
  C241     1.0000 0.50640  0.91240  0.63040  Biso   1.000  C
  C242     1.0000 0.50700  0.88430  0.68480  Biso   1.000  C
  C243     1.0000 0.47620  0.85120  0.69080  Biso   1.000  C
  H141     1.0000 0.45580  0.84580  0.65970  Biso   1.000  H
  C244     1.0000 0.47530  0.82550  0.74340  Biso   1.000  C
  H142     1.0000 0.45480  0.80230  0.74620  Biso   1.000  H
  C245     1.0000 0.50520  0.83460  0.79160  Biso   1.000  C
  C246     1.0000 0.53540  0.86950  0.78760  Biso   1.000  C
  H143     1.0000 0.55530  0.87600  0.82140  Biso   1.000  H
  C247     1.0000 0.53610  0.89410  0.73530  Biso   1.000  C
  H144     1.0000 0.55620  0.91760  0.73330  Biso   1.000  H
  C248     1.0000 0.50380  0.80810  0.85600  Biso   1.000  C
  C249     1.0000 0.50420  0.77720  0.83030  Biso   1.000  C
  C250     1.0000 0.50640  0.76830  0.74840  Biso   1.000  C
  H145     1.0000 0.50760  0.78190  0.70330  Biso   1.000  H
  C251     1.0000 0.50190  0.84850  0.95940  Biso   1.000  C
  C252     1.0000 0.50220  0.81730  0.93410  Biso   1.000  C
  H146     1.0000 0.52330  0.87010  0.93920  Biso   1.000  H
  H147     1.0000 0.48030  0.84830  0.93920  Biso   1.000  H
  O43      1.0000 0.57901  0.48198  0.58060  Biso   1.000  O
  O44      1.0000 0.58538  0.53115  0.64460  Biso   1.000  O
  C253     1.0000 0.59400  0.50640  0.63040  Biso   1.000  C
  C254     1.0000 0.62270  0.50700  0.68480  Biso   1.000  C
  C255     1.0000 0.62500  0.47620  0.69080  Biso   1.000  C
  H148     1.0000 0.61000  0.45580  0.65970  Biso   1.000  H
  C256     1.0000 0.64980  0.47530  0.74340  Biso   1.000  C
  H149     1.0000 0.65250  0.45480  0.74620  Biso   1.000  H
  C257     1.0000 0.67060  0.50520  0.79160  Biso   1.000  C
  C258     1.0000 0.66590  0.53540  0.78760  Biso   1.000  C
  H150     1.0000 0.67930  0.55530  0.82140  Biso   1.000  H
  C259     1.0000 0.64200  0.53610  0.73530  Biso   1.000  C
  H151     1.0000 0.63860  0.55620  0.73330  Biso   1.000  H
  C260     1.0000 0.69570  0.50380  0.85600  Biso   1.000  C
  C261     1.0000 0.72700  0.50420  0.83030  Biso   1.000  C
  C262     1.0000 0.73810  0.50640  0.74840  Biso   1.000  C
  H152     1.0000 0.72570  0.50760  0.70330  Biso   1.000  H
  C263     1.0000 0.65340  0.50190  0.95940  Biso   1.000  C
  C264     1.0000 0.68490  0.50220  0.93410  Biso   1.000  C
  H153     1.0000 0.65320  0.52330  0.93920  Biso   1.000  H
  H154     1.0000 0.63200  0.48030  0.93920  Biso   1.000  H
  O45      1.0000 0.90297  0.42099  0.58060  Biso   1.000  O
  O46      1.0000 0.94577  0.41462  0.64460  Biso   1.000  O
  C265     1.0000 0.91240  0.40600  0.63040  Biso   1.000  C
  C266     1.0000 0.88430  0.37730  0.68480  Biso   1.000  C
  C267     1.0000 0.85120  0.37500  0.69080  Biso   1.000  C
  H155     1.0000 0.84580  0.39000  0.65970  Biso   1.000  H
  C268     1.0000 0.82550  0.35020  0.74340  Biso   1.000  C
  H156     1.0000 0.80230  0.34750  0.74620  Biso   1.000  H
  C269     1.0000 0.83460  0.32940  0.79160  Biso   1.000  C
  C270     1.0000 0.86950  0.33410  0.78760  Biso   1.000  C
  H157     1.0000 0.87600  0.32070  0.82140  Biso   1.000  H
  C271     1.0000 0.89410  0.35800  0.73530  Biso   1.000  C
  H158     1.0000 0.91760  0.36140  0.73330  Biso   1.000  H
  C272     1.0000 0.80810  0.30430  0.85600  Biso   1.000  C
  C273     1.0000 0.77720  0.27300  0.83030  Biso   1.000  C
  C274     1.0000 0.76830  0.26190  0.74840  Biso   1.000  C
  H159     1.0000 0.78190  0.27430  0.70330  Biso   1.000  H
  C275     1.0000 0.84850  0.34660  0.95940  Biso   1.000  C
  C276     1.0000 0.81730  0.31510  0.93410  Biso   1.000  C
  H160     1.0000 0.87010  0.34680  0.93920  Biso   1.000  H
  H161     1.0000 0.84830  0.36800  0.93920  Biso   1.000  H
  O47      1.0000 0.51802  0.09703  0.58060  Biso   1.000  O
  O48      1.0000 0.46885  0.05423  0.64460  Biso   1.000  O
  C277     1.0000 0.49360  0.08760  0.63040  Biso   1.000  C
  C278     1.0000 0.49300  0.11570  0.68480  Biso   1.000  C
  C279     1.0000 0.52380  0.14880  0.69080  Biso   1.000  C
  H162     1.0000 0.54420  0.15420  0.65970  Biso   1.000  H
  C280     1.0000 0.52470  0.17450  0.74340  Biso   1.000  C
  H163     1.0000 0.54520  0.19770  0.74620  Biso   1.000  H
  C281     1.0000 0.49480  0.16540  0.79160  Biso   1.000  C
  C282     1.0000 0.46460  0.13050  0.78760  Biso   1.000  C
  H164     1.0000 0.44470  0.12400  0.82140  Biso   1.000  H
  C283     1.0000 0.46390  0.10590  0.73530  Biso   1.000  C
  H165     1.0000 0.44380  0.08240  0.73330  Biso   1.000  H
  C284     1.0000 0.49620  0.19190  0.85600  Biso   1.000  C
  C285     1.0000 0.49580  0.22280  0.83030  Biso   1.000  C
  C286     1.0000 0.49360  0.23170  0.74840  Biso   1.000  C
  H166     1.0000 0.49240  0.21810  0.70330  Biso   1.000  H
  C287     1.0000 0.49810  0.15150  0.95940  Biso   1.000  C
  C288     1.0000 0.49780  0.18270  0.93410  Biso   1.000  C
  H167     1.0000 0.47670  0.12990  0.93920  Biso   1.000  H
  H168     1.0000 0.51970  0.15170  0.93920  Biso   1.000  H
  Hf1      1.0000 0.46655  0.53345  0.50000  Biso   1.000  Hf
  Hf2      1.0000 0.46655  0.93310  0.50000  Biso   1.000  Hf
  Hf3      1.0000 0.06690  0.53345  0.50000  Biso   1.000  Hf
  Hf4      1.0000 0.53345  0.46655  0.50000  Biso   1.000  Hf
  Hf5      1.0000 0.53345  0.06690  0.50000  Biso   1.000  Hf
  Hf6      1.0000 0.93310  0.46655  0.50000  Biso   1.000  Hf
  Hf7      1.0000 0.45920  0.45920  0.60321  Biso   1.000  Hf
  Hf8      1.0000 0.54080  0.00000  0.60321  Biso   1.000  Hf
  Hf9      1.0000 0.00000  0.54080  0.60321  Biso   1.000  Hf
  Hf10     1.0000 0.54080  0.54080  0.60321  Biso   1.000  Hf
  Hf11     1.0000 0.45920  0.00000  0.60321  Biso   1.000  Hf
  Hf12     1.0000 0.00000  0.45920  0.60321  Biso   1.000  Hf
  Hf13     1.0000 0.45920  0.45920  0.39679  Biso   1.000  Hf
  Hf14     1.0000 0.00000  0.54080  0.39679  Biso   1.000  Hf
  Hf15     1.0000 0.54080  0.00000  0.39679  Biso   1.000  Hf
  Hf16     1.0000 0.54080  0.54080  0.39679  Biso   1.000  Hf
  Hf17     1.0000 0.00000  0.45920  0.39679  Biso   1.000  Hf
  Hf18     1.0000 0.45920  0.00000  0.39679  Biso   1.000  Hf
  Fe1      1.0000 0.49574  0.74787  0.00000  Biso   1.000  Fe
  Cl1      1.0000 0.42990  0.71495  0.00000  Biso   1.000  Cl
  Fe2      1.0000 0.25213  0.74787  0.00000  Biso   1.000  Fe
  Cl2      1.0000 0.28505  0.71495  0.00000  Biso   1.000  Cl
  Fe3      1.0000 0.25213  0.50426  0.00000  Biso   1.000  Fe
  Cl3      1.0000 0.28505  0.57010  0.00000  Biso   1.000  Cl
  Fe4      1.0000 0.50426  0.25213  0.00000  Biso   1.000  Fe
  Cl4      1.0000 0.57010  0.28505  0.00000  Biso   1.000  Cl
  Fe5      1.0000 0.74787  0.25213  0.00000  Biso   1.000  Fe
  Cl5      1.0000 0.71495  0.28505  0.00000  Biso   1.000  Cl
  Fe6      1.0000 0.74787  0.49574  0.00000  Biso   1.000  Fe
  Cl6      1.0000 0.71495  0.42990  0.00000  Biso   1.000  Cl
  O49      1.0000 0.48399  0.51601  0.60560  Biso   1.000  O
  O50      1.0000 0.48399  0.96798  0.60560  Biso   1.000  O
  O51      1.0000 0.03202  0.51601  0.60560  Biso   1.000  O
  O52      1.0000 0.51601  0.48399  0.60560  Biso   1.000  O
  O53      1.0000 0.51601  0.03202  0.60560  Biso   1.000  O
  O54      1.0000 0.96798  0.48399  0.60560  Biso   1.000  O
  O55      1.0000 0.51601  0.48399  0.39440  Biso   1.000  O
  O56      1.0000 0.96798  0.48399  0.39440  Biso   1.000  O
  O57      1.0000 0.51601  0.03202  0.39440  Biso   1.000  O
  O58      1.0000 0.48399  0.51601  0.39440  Biso   1.000  O
  O59      1.0000 0.03202  0.51601  0.39440  Biso   1.000  O
  O60      1.0000 0.48399  0.96798  0.39440  Biso   1.000  O
  O61      1.0000 0.44390  0.47688  0.50000  Biso   1.000  O
  O62      1.0000 0.52312  0.96702  0.50000  Biso   1.000  O
  O63      1.0000 0.03298  0.55610  0.50000  Biso   1.000  O
  O64      1.0000 0.55610  0.52312  0.50000  Biso   1.000  O
  O65      1.0000 0.47688  0.03298  0.50000  Biso   1.000  O
  O66      1.0000 0.96702  0.44390  0.50000  Biso   1.000  O
  O67      1.0000 0.47688  0.44390  0.50000  Biso   1.000  O
  O68      1.0000 0.96702  0.52312  0.50000  Biso   1.000  O
  O69      1.0000 0.55610  0.03298  0.50000  Biso   1.000  O
  O70      1.0000 0.52312  0.55610  0.50000  Biso   1.000  O
  O71      1.0000 0.03298  0.47688  0.50000  Biso   1.000  O
  O72      1.0000 0.44390  0.96702  0.50000  Biso   1.000  O
  N1       1.0000 0.50130  0.75065  0.87920  Biso   1.000  N
  N2       1.0000 0.24935  0.75065  0.87920  Biso   1.000  N
  N3       1.0000 0.24935  0.49870  0.87920  Biso   1.000  N
  N4       1.0000 0.49870  0.24935  0.87920  Biso   1.000  N
  N5       1.0000 0.75065  0.24935  0.87920  Biso   1.000  N
  N6       1.0000 0.75065  0.50130  0.87920  Biso   1.000  N
  N7       1.0000 0.75065  0.50130  0.12080  Biso   1.000  N
  N8       1.0000 0.75065  0.24935  0.12080  Biso   1.000  N
  N9       1.0000 0.49870  0.24935  0.12080  Biso   1.000  N
  N10      1.0000 0.24935  0.49870  0.12080  Biso   1.000  N
  N11      1.0000 0.24935  0.75065  0.12080  Biso   1.000  N
  N12      1.0000 0.50130  0.75065  0.12080  Biso   1.000  N
  N13      1.0000 0.50270  0.70510  0.00000  Biso   1.000  N
  N14      1.0000 0.29490  0.79760  0.00000  Biso   1.000  N
  N15      1.0000 0.20240  0.49730  0.00000  Biso   1.000  N
  N16      1.0000 0.49730  0.29490  0.00000  Biso   1.000  N
  N17      1.0000 0.70510  0.20240  0.00000  Biso   1.000  N
  N18      1.0000 0.79760  0.50270  0.00000  Biso   1.000  N
  N19      1.0000 0.70510  0.50270  0.00000  Biso   1.000  N
  N20      1.0000 0.79760  0.29490  0.00000  Biso   1.000  N
  N21      1.0000 0.49730  0.20240  0.00000  Biso   1.000  N
  N22      1.0000 0.29490  0.49730  0.00000  Biso   1.000  N
  N23      1.0000 0.20240  0.70510  0.00000  Biso   1.000  N
  N24      1.0000 0.50270  0.79760  0.00000  Biso   1.000  N
