data_BUYNAL_charged
_audit_creation_date              2014-07-02
_audit_creation_method            'Materials Studio'
_symmetry_space_group_name_H-M    'P1'
_symmetry_Int_Tables_number       1
_symmetry_cell_setting            triclinic
loop_
_symmetry_equiv_pos_as_xyz
  x,y,z
_cell_length_a                    14.0756
_cell_length_b                    14.0756
_cell_length_c                    14.0756
_cell_angle_alpha                 108.3470
_cell_angle_beta                  108.3470
_cell_angle_gamma                 108.3470
loop_
_atom_site_label
_atom_site_type_symbol
_atom_site_fract_x
_atom_site_fract_y
_atom_site_fract_z
_atom_site_U_iso_or_equiv
_atom_site_adp_type
_atom_site_occupancy
Zn1    Zn    0.00000   0.00000   0.00000   0.01267  Uiso   1.00
H1     H     0.26800   0.10640   0.20070   0.01267  Uiso   1.00
H2     H     0.32670   0.05420   0.34990   0.01267  Uiso   1.00
H3     H     0.99510   0.88640   0.17280   0.01267  Uiso   1.00
H4     H     0.20130   0.94110   0.43360   0.01267  Uiso   1.00
H5     H     0.07250   0.86440   0.34960   0.01267  Uiso   1.00
H6     H     0.16660   0.75290   0.36190   0.01267  Uiso   1.00
H7     H     0.24370   0.81450   0.31800   0.01267  Uiso   1.00
H8     H     0.21620   0.62810   0.26820   0.01267  Uiso   1.00
H9     H     0.21090   0.46250   0.15950   0.01267  Uiso   1.00
H10    H     0.92130   0.64870   0.02470   0.01267  Uiso   1.00
H11    H     0.20070   0.26800   0.10640   0.01267  Uiso   1.00
H12    H     0.34990   0.32670   0.05420   0.01267  Uiso   1.00
H13    H     0.17280   0.99510   0.88640   0.01267  Uiso   1.00
H14    H     0.43360   0.20130   0.94110   0.01267  Uiso   1.00
H15    H     0.34960   0.07250   0.86440   0.01267  Uiso   1.00
H16    H     0.36190   0.16660   0.75290   0.01267  Uiso   1.00
H17    H     0.31800   0.24370   0.81450   0.01267  Uiso   1.00
H18    H     0.26820   0.21620   0.62810   0.01267  Uiso   1.00
H19    H     0.15950   0.21090   0.46250   0.01267  Uiso   1.00
H20    H     0.02470   0.92130   0.64870   0.01267  Uiso   1.00
H21    H     0.10640   0.20070   0.26800   0.01267  Uiso   1.00
H22    H     0.05420   0.34990   0.32670   0.01267  Uiso   1.00
H23    H     0.88640   0.17280   0.99510   0.01267  Uiso   1.00
H24    H     0.94110   0.43360   0.20130   0.01267  Uiso   1.00
H25    H     0.86440   0.34960   0.07250   0.01267  Uiso   1.00
H26    H     0.75290   0.36190   0.16660   0.01267  Uiso   1.00
H27    H     0.81450   0.31800   0.24370   0.01267  Uiso   1.00
H28    H     0.62810   0.26820   0.21620   0.01267  Uiso   1.00
H29    H     0.46250   0.15950   0.21090   0.01267  Uiso   1.00
H30    H     0.64870   0.02470   0.92130   0.01267  Uiso   1.00
H31    H     0.73200   0.89360   0.79930   0.01267  Uiso   1.00
H32    H     0.67330   0.94580   0.65010   0.01267  Uiso   1.00
H33    H     0.00490   0.11360   0.82720   0.01267  Uiso   1.00
H34    H     0.79870   0.05890   0.56640   0.01267  Uiso   1.00
H35    H     0.92750   0.13560   0.65040   0.01267  Uiso   1.00
H36    H     0.83340   0.24710   0.63810   0.01267  Uiso   1.00
H37    H     0.75630   0.18550   0.68200   0.01267  Uiso   1.00
H38    H     0.78380   0.37190   0.73180   0.01267  Uiso   1.00
H39    H     0.78910   0.53750   0.84050   0.01267  Uiso   1.00
H40    H     0.07870   0.35130   0.97530   0.01267  Uiso   1.00
H41    H     0.79930   0.73200   0.89360   0.01267  Uiso   1.00
H42    H     0.65010   0.67330   0.94580   0.01267  Uiso   1.00
H43    H     0.82720   0.00490   0.11360   0.01267  Uiso   1.00
H44    H     0.56640   0.79870   0.05890   0.01267  Uiso   1.00
H45    H     0.65040   0.92750   0.13560   0.01267  Uiso   1.00
H46    H     0.63810   0.83340   0.24710   0.01267  Uiso   1.00
H47    H     0.68200   0.75630   0.18550   0.01267  Uiso   1.00
H48    H     0.73180   0.78380   0.37190   0.01267  Uiso   1.00
H49    H     0.84050   0.78910   0.53750   0.01267  Uiso   1.00
H50    H     0.97530   0.07870   0.35130   0.01267  Uiso   1.00
H51    H     0.89360   0.79930   0.73200   0.01267  Uiso   1.00
H52    H     0.94580   0.65010   0.67330   0.01267  Uiso   1.00
H53    H     0.11360   0.82720   0.00490   0.01267  Uiso   1.00
H54    H     0.05890   0.56640   0.79870   0.01267  Uiso   1.00
H55    H     0.13560   0.65040   0.92750   0.01267  Uiso   1.00
H56    H     0.24710   0.63810   0.83340   0.01267  Uiso   1.00
H57    H     0.18550   0.68200   0.75630   0.01267  Uiso   1.00
H58    H     0.37190   0.73180   0.78380   0.01267  Uiso   1.00
H59    H     0.53750   0.84050   0.78910   0.01267  Uiso   1.00
H60    H     0.35130   0.97530   0.07870   0.01267  Uiso   1.00
C1     C     0.22002   0.05550   0.21408   0.01267  Uiso   1.00
C2     C     0.25315   0.02745   0.29660   0.01267  Uiso   1.00
C3     C     0.07009   0.93538   0.19823   0.01267  Uiso   1.00
C4     C     0.14745   0.89015   0.35510   0.01267  Uiso   1.00
C5     C     0.16980   0.79032   0.31498   0.01267  Uiso   1.00
C6     C     0.08669   0.61853   0.14598   0.01267  Uiso   1.00
C7     C     0.16246   0.58453   0.19301   0.01267  Uiso   1.00
C8     C     0.15837   0.48433   0.12750   0.01267  Uiso   1.00
C9     C     0.00154   0.55145   0.03211   0.01267  Uiso   1.00
C10    C     0.92081   0.58247   0.98252   0.01267  Uiso   1.00
C11    C     0.21408   0.22002   0.05550   0.01267  Uiso   1.00
C12    C     0.29660   0.25315   0.02745   0.01267  Uiso   1.00
C13    C     0.19823   0.07009   0.93538   0.01267  Uiso   1.00
C14    C     0.35510   0.14745   0.89015   0.01267  Uiso   1.00
C15    C     0.31498   0.16980   0.79032   0.01267  Uiso   1.00
C16    C     0.14598   0.08669   0.61853   0.01267  Uiso   1.00
C17    C     0.19301   0.16246   0.58453   0.01267  Uiso   1.00
C18    C     0.12750   0.15837   0.48433   0.01267  Uiso   1.00
C19    C     0.03211   0.00154   0.55145   0.01267  Uiso   1.00
C20    C     0.98252   0.92081   0.58247   0.01267  Uiso   1.00
C21    C     0.05550   0.21408   0.22002   0.01267  Uiso   1.00
C22    C     0.02745   0.29660   0.25315   0.01267  Uiso   1.00
C23    C     0.93538   0.19823   0.07009   0.01267  Uiso   1.00
C24    C     0.89015   0.35510   0.14745   0.01267  Uiso   1.00
C25    C     0.79032   0.31498   0.16980   0.01267  Uiso   1.00
C26    C     0.61853   0.14598   0.08669   0.01267  Uiso   1.00
C27    C     0.58453   0.19301   0.16246   0.01267  Uiso   1.00
C28    C     0.48433   0.12750   0.15837   0.01267  Uiso   1.00
C29    C     0.55145   0.03211   0.00154   0.01267  Uiso   1.00
C30    C     0.58247   0.98252   0.92081   0.01267  Uiso   1.00
C31    C     0.77998   0.94450   0.78592   0.01267  Uiso   1.00
C32    C     0.74685   0.97255   0.70340   0.01267  Uiso   1.00
C33    C     0.92991   0.06462   0.80177   0.01267  Uiso   1.00
C34    C     0.85255   0.10985   0.64490   0.01267  Uiso   1.00
C35    C     0.83020   0.20968   0.68502   0.01267  Uiso   1.00
C36    C     0.91331   0.38147   0.85402   0.01267  Uiso   1.00
C37    C     0.83754   0.41547   0.80699   0.01267  Uiso   1.00
C38    C     0.84163   0.51567   0.87250   0.01267  Uiso   1.00
C39    C     0.99846   0.44855   0.96789   0.01267  Uiso   1.00
C40    C     0.07919   0.41753   0.01748   0.01267  Uiso   1.00
C41    C     0.78592   0.77998   0.94450   0.01267  Uiso   1.00
C42    C     0.70340   0.74685   0.97255   0.01267  Uiso   1.00
C43    C     0.80177   0.92991   0.06462   0.01267  Uiso   1.00
C44    C     0.64490   0.85255   0.10985   0.01267  Uiso   1.00
C45    C     0.68502   0.83020   0.20968   0.01267  Uiso   1.00
C46    C     0.85402   0.91331   0.38147   0.01267  Uiso   1.00
C47    C     0.80699   0.83754   0.41547   0.01267  Uiso   1.00
C48    C     0.87250   0.84163   0.51567   0.01267  Uiso   1.00
C49    C     0.96789   0.99846   0.44855   0.01267  Uiso   1.00
C50    C     0.01748   0.07919   0.41753   0.01267  Uiso   1.00
C51    C     0.94450   0.78592   0.77998   0.01267  Uiso   1.00
C52    C     0.97255   0.70340   0.74685   0.01267  Uiso   1.00
C53    C     0.06462   0.80177   0.92991   0.01267  Uiso   1.00
C54    C     0.10985   0.64490   0.85255   0.01267  Uiso   1.00
C55    C     0.20968   0.68502   0.83020   0.01267  Uiso   1.00
C56    C     0.38147   0.85402   0.91331   0.01267  Uiso   1.00
C57    C     0.41547   0.80699   0.83754   0.01267  Uiso   1.00
C58    C     0.51567   0.87250   0.84163   0.01267  Uiso   1.00
C59    C     0.44855   0.96789   0.99846   0.01267  Uiso   1.00
C60    C     0.41753   0.01748   0.07919   0.01267  Uiso   1.00
N1     N     0.10410   0.99773   0.15161   0.01267  Uiso   1.00
N2     N     0.15683   0.95121   0.28676   0.01267  Uiso   1.00
N3     N     0.15161   0.10410   0.99773   0.01267  Uiso   1.00
N4     N     0.28676   0.15683   0.95121   0.01267  Uiso   1.00
N5     N     0.99773   0.15161   0.10410   0.01267  Uiso   1.00
N6     N     0.95121   0.28676   0.15683   0.01267  Uiso   1.00
N7     N     0.89590   0.00227   0.84839   0.01267  Uiso   1.00
N8     N     0.84317   0.04879   0.71324   0.01267  Uiso   1.00
N9     N     0.84839   0.89590   0.00227   0.01267  Uiso   1.00
N10    N     0.71324   0.84317   0.04879   0.01267  Uiso   1.00
N11    N     0.00227   0.84839   0.89590   0.01267  Uiso   1.00
N12    N     0.04879   0.71324   0.84317   0.01267  Uiso   1.00
O1     O     0.08445   0.71632   0.20205   0.01267  Uiso   1.00
O2     O     0.20205   0.08445   0.71632   0.01267  Uiso   1.00
O3     O     0.71632   0.20205   0.08445   0.01267  Uiso   1.00
O4     O     0.91555   0.28368   0.79795   0.01267  Uiso   1.00
O5     O     0.79795   0.91555   0.28368   0.01267  Uiso   1.00
O6     O     0.28368   0.79795   0.91555   0.01267  Uiso   1.00
N13    N     0.38230   0.38230   0.38230   0.01267  Uiso   1.00
O7     O     0.44340   0.35310   0.34470   0.01267  Uiso   1.00
O8     O     0.34470   0.44340   0.35310   0.01267  Uiso   1.00
O9     O     0.35310   0.34470   0.44340   0.01267  Uiso   1.00
N14    N     0.61770   0.61770   0.61770   0.01267  Uiso   1.00
O10    O     0.55660   0.64690   0.65530   0.01267  Uiso   1.00
O11    O     0.65530   0.55660   0.64690   0.01267  Uiso   1.00
O12    O     0.64690   0.65530   0.55660   0.01267  Uiso   1.00
