data_image0
_cell_length_a       19.4254
_cell_length_b       21.878
_cell_length_c       15.578
_cell_angle_alpha    90
_cell_angle_beta     90
_cell_angle_gamma    90

_symmetry_space_group_name_H-M    "P 1"
_symmetry_int_tables_number       1

loop_
  _symmetry_equiv_pos_as_xyz
  'x, y, z'

loop_
  _atom_site_label
  _atom_site_occupancy
  _atom_site_fract_x
  _atom_site_fract_y
  _atom_site_fract_z
  _atom_site_thermal_displace_type
  _atom_site_B_iso_or_equiv
  _atom_site_type_symbol
  N1       1.0000 0.44043  0.59959  0.59947  Biso   1.000  N
  C1       1.0000 0.44370  0.72660  0.59600  Biso   1.000  C
  C2       1.0000 0.44650  0.79420  0.59910  Biso   1.000  C
  C3       1.0000 0.39490  0.62990  0.55480  Biso   1.000  C
  H1       1.0000 0.36100  0.60840  0.52540  Biso   1.000  H
  N2       1.0000 0.39990  0.82994  0.56250  Biso   1.000  N
  H2       1.0000 0.36170  0.81870  0.53950  Biso   1.000  H
  N3       1.0000 0.49630  0.82601  0.63200  Biso   1.000  N
  C4       1.0000 0.48730  0.63130  0.64190  Biso   1.000  C
  H3       1.0000 0.52110  0.61000  0.67200  Biso   1.000  H
  C5       1.0000 0.39550  0.69490  0.54960  Biso   1.000  C
  H4       1.0000 0.36380  0.71540  0.51540  Biso   1.000  H
  C6       1.0000 0.48870  0.69230  0.64380  Biso   1.000  C
  H5       1.0000 0.52090  0.71200  0.67830  Biso   1.000  H
  N4       1.0000 0.48510  0.88530  0.62700  Biso   1.000  N
  C7       1.0000 0.42450  0.88830  0.56870  Biso   1.000  C
  C8       1.0000 0.39580  0.94680  0.55970  Biso   1.000  C
  C9       1.0000 0.32890  0.94780  0.52330  Biso   1.000  C
  H6       1.0000 0.30440  0.91140  0.51890  Biso   1.000  H
  N5       1.0000 0.55957  0.59959  0.40053  Biso   1.000  N
  C10      1.0000 0.55630  0.72660  0.40400  Biso   1.000  C
  C11      1.0000 0.55350  0.79420  0.40090  Biso   1.000  C
  C12      1.0000 0.60510  0.62990  0.44520  Biso   1.000  C
  H7       1.0000 0.63900  0.60840  0.47460  Biso   1.000  H
  N6       1.0000 0.60010  0.82994  0.43750  Biso   1.000  N
  H8       1.0000 0.63830  0.81870  0.46050  Biso   1.000  H
  N7       1.0000 0.50370  0.82601  0.36800  Biso   1.000  N
  C13      1.0000 0.51270  0.63130  0.35810  Biso   1.000  C
  H9       1.0000 0.47890  0.61000  0.32800  Biso   1.000  H
  C14      1.0000 0.60450  0.69490  0.45040  Biso   1.000  C
  H10      1.0000 0.63620  0.71540  0.48460  Biso   1.000  H
  C15      1.0000 0.51130  0.69230  0.35620  Biso   1.000  C
  H11      1.0000 0.47910  0.71200  0.32170  Biso   1.000  H
  N8       1.0000 0.51490  0.88530  0.37300  Biso   1.000  N
  C16      1.0000 0.57550  0.88830  0.43130  Biso   1.000  C
  C17      1.0000 0.60420  0.94680  0.44030  Biso   1.000  C
  C18      1.0000 0.67110  0.94780  0.47670  Biso   1.000  C
  H12      1.0000 0.69560  0.91140  0.48110  Biso   1.000  H
  N9       1.0000 0.05957  0.40041  0.09947  Biso   1.000  N
  C19      1.0000 0.05630  0.27340  0.09600  Biso   1.000  C
  C20      1.0000 0.05350  0.20580  0.09910  Biso   1.000  C
  C21      1.0000 0.10510  0.37010  0.05480  Biso   1.000  C
  H13      1.0000 0.13900  0.39160  0.02540  Biso   1.000  H
  N10      1.0000 0.10010  0.17006  0.06250  Biso   1.000  N
  H14      1.0000 0.13830  0.18130  0.03950  Biso   1.000  H
  N11      1.0000 0.00370  0.17399  0.13200  Biso   1.000  N
  C22      1.0000 0.01270  0.36870  0.14190  Biso   1.000  C
  H15      1.0000 0.97890  0.39000  0.17200  Biso   1.000  H
  C23      1.0000 0.10450  0.30510  0.04960  Biso   1.000  C
  H16      1.0000 0.13620  0.28460  0.01540  Biso   1.000  H
  C24      1.0000 0.01130  0.30770  0.14380  Biso   1.000  C
  H17      1.0000 0.97910  0.28800  0.17830  Biso   1.000  H
  N12      1.0000 0.01490  0.11470  0.12700  Biso   1.000  N
  C25      1.0000 0.07550  0.11170  0.06870  Biso   1.000  C
  C26      1.0000 0.10420  0.05320  0.05970  Biso   1.000  C
  C27      1.0000 0.17110  0.05220  0.02330  Biso   1.000  C
  H18      1.0000 0.19560  0.08860  0.01890  Biso   1.000  H
  N13      1.0000 0.94043  0.40041  0.90053  Biso   1.000  N
  C28      1.0000 0.94370  0.27340  0.90400  Biso   1.000  C
  C29      1.0000 0.94650  0.20580  0.90090  Biso   1.000  C
  C30      1.0000 0.89490  0.37010  0.94520  Biso   1.000  C
  H19      1.0000 0.86100  0.39160  0.97460  Biso   1.000  H
  N14      1.0000 0.89990  0.17006  0.93750  Biso   1.000  N
  H20      1.0000 0.86170  0.18130  0.96050  Biso   1.000  H
  N15      1.0000 0.99630  0.17399  0.86800  Biso   1.000  N
  C31      1.0000 0.98730  0.36870  0.85810  Biso   1.000  C
  H21      1.0000 0.02110  0.39000  0.82800  Biso   1.000  H
  C32      1.0000 0.89550  0.30510  0.95040  Biso   1.000  C
  H22      1.0000 0.86380  0.28460  0.98460  Biso   1.000  H
  C33      1.0000 0.98870  0.30770  0.85620  Biso   1.000  C
  H23      1.0000 0.02090  0.28800  0.82170  Biso   1.000  H
  N16      1.0000 0.98510  0.11470  0.87300  Biso   1.000  N
  C34      1.0000 0.92450  0.11170  0.93130  Biso   1.000  C
  C35      1.0000 0.89580  0.05320  0.94030  Biso   1.000  C
  C36      1.0000 0.82890  0.05220  0.97670  Biso   1.000  C
  H24      1.0000 0.80440  0.08860  0.98110  Biso   1.000  H
  N17      1.0000 0.55957  0.40041  0.40053  Biso   1.000  N
  C37      1.0000 0.55630  0.27340  0.40400  Biso   1.000  C
  C38      1.0000 0.55350  0.20580  0.40090  Biso   1.000  C
  C39      1.0000 0.60510  0.37010  0.44520  Biso   1.000  C
  H25      1.0000 0.63900  0.39160  0.47460  Biso   1.000  H
  N18      1.0000 0.60010  0.17006  0.43750  Biso   1.000  N
  H26      1.0000 0.63830  0.18130  0.46050  Biso   1.000  H
  N19      1.0000 0.50370  0.17399  0.36800  Biso   1.000  N
  C40      1.0000 0.51270  0.36870  0.35810  Biso   1.000  C
  H27      1.0000 0.47890  0.39000  0.32800  Biso   1.000  H
  C41      1.0000 0.60450  0.30510  0.45040  Biso   1.000  C
  H28      1.0000 0.63620  0.28460  0.48460  Biso   1.000  H
  C42      1.0000 0.51130  0.30770  0.35620  Biso   1.000  C
  H29      1.0000 0.47910  0.28800  0.32170  Biso   1.000  H
  N20      1.0000 0.51490  0.11470  0.37300  Biso   1.000  N
  C43      1.0000 0.57550  0.11170  0.43130  Biso   1.000  C
  C44      1.0000 0.60420  0.05320  0.44030  Biso   1.000  C
  C45      1.0000 0.67110  0.05220  0.47670  Biso   1.000  C
  H30      1.0000 0.69560  0.08860  0.48110  Biso   1.000  H
  N21      1.0000 0.44043  0.40041  0.59947  Biso   1.000  N
  C46      1.0000 0.44370  0.27340  0.59600  Biso   1.000  C
  C47      1.0000 0.44650  0.20580  0.59910  Biso   1.000  C
  C48      1.0000 0.39490  0.37010  0.55480  Biso   1.000  C
  H31      1.0000 0.36100  0.39160  0.52540  Biso   1.000  H
  N22      1.0000 0.39990  0.17006  0.56250  Biso   1.000  N
  H32      1.0000 0.36170  0.18130  0.53950  Biso   1.000  H
  N23      1.0000 0.49630  0.17399  0.63200  Biso   1.000  N
  C49      1.0000 0.48730  0.36870  0.64190  Biso   1.000  C
  H33      1.0000 0.52110  0.39000  0.67200  Biso   1.000  H
  C50      1.0000 0.39550  0.30510  0.54960  Biso   1.000  C
  H34      1.0000 0.36380  0.28460  0.51540  Biso   1.000  H
  C51      1.0000 0.48870  0.30770  0.64380  Biso   1.000  C
  H35      1.0000 0.52090  0.28800  0.67830  Biso   1.000  H
  N24      1.0000 0.48510  0.11470  0.62700  Biso   1.000  N
  C52      1.0000 0.42450  0.11170  0.56870  Biso   1.000  C
  C53      1.0000 0.39580  0.05320  0.55970  Biso   1.000  C
  C54      1.0000 0.32890  0.05220  0.52330  Biso   1.000  C
  H36      1.0000 0.30440  0.08860  0.51890  Biso   1.000  H
  N25      1.0000 0.94043  0.59959  0.90053  Biso   1.000  N
  C55      1.0000 0.94370  0.72660  0.90400  Biso   1.000  C
  C56      1.0000 0.94650  0.79420  0.90090  Biso   1.000  C
  C57      1.0000 0.89490  0.62990  0.94520  Biso   1.000  C
  H37      1.0000 0.86100  0.60840  0.97460  Biso   1.000  H
  N26      1.0000 0.89990  0.82994  0.93750  Biso   1.000  N
  H38      1.0000 0.86170  0.81870  0.96050  Biso   1.000  H
  N27      1.0000 0.99630  0.82601  0.86800  Biso   1.000  N
  C58      1.0000 0.98730  0.63130  0.85810  Biso   1.000  C
  H39      1.0000 0.02110  0.61000  0.82800  Biso   1.000  H
  C59      1.0000 0.89550  0.69490  0.95040  Biso   1.000  C
  H40      1.0000 0.86380  0.71540  0.98460  Biso   1.000  H
  C60      1.0000 0.98870  0.69230  0.85620  Biso   1.000  C
  H41      1.0000 0.02090  0.71200  0.82170  Biso   1.000  H
  N28      1.0000 0.98510  0.88530  0.87300  Biso   1.000  N
  C61      1.0000 0.92450  0.88830  0.93130  Biso   1.000  C
  C62      1.0000 0.89580  0.94680  0.94030  Biso   1.000  C
  C63      1.0000 0.82890  0.94780  0.97670  Biso   1.000  C
  H42      1.0000 0.80440  0.91140  0.98110  Biso   1.000  H
  N29      1.0000 0.05957  0.59959  0.09947  Biso   1.000  N
  C64      1.0000 0.05630  0.72660  0.09600  Biso   1.000  C
  C65      1.0000 0.05350  0.79420  0.09910  Biso   1.000  C
  C66      1.0000 0.10510  0.62990  0.05480  Biso   1.000  C
  H43      1.0000 0.13900  0.60840  0.02540  Biso   1.000  H
  N30      1.0000 0.10010  0.82994  0.06250  Biso   1.000  N
  H44      1.0000 0.13830  0.81870  0.03950  Biso   1.000  H
  N31      1.0000 0.00370  0.82601  0.13200  Biso   1.000  N
  C67      1.0000 0.01270  0.63130  0.14190  Biso   1.000  C
  H45      1.0000 0.97890  0.61000  0.17200  Biso   1.000  H
  C68      1.0000 0.10450  0.69490  0.04960  Biso   1.000  C
  H46      1.0000 0.13620  0.71540  0.01540  Biso   1.000  H
  C69      1.0000 0.01130  0.69230  0.14380  Biso   1.000  C
  H47      1.0000 0.97910  0.71200  0.17830  Biso   1.000  H
  N32      1.0000 0.01490  0.88530  0.12700  Biso   1.000  N
  C70      1.0000 0.07550  0.88830  0.06870  Biso   1.000  C
  C71      1.0000 0.10420  0.94680  0.05970  Biso   1.000  C
  C72      1.0000 0.17110  0.94780  0.02330  Biso   1.000  C
  H48      1.0000 0.19560  0.91140  0.01890  Biso   1.000  H
  Co1      1.0000 0.43996  0.50000  0.59942  Biso   1.000  Co
  O1       1.0000 0.03646  0.50000  0.84720  Biso   1.000  O
  C73      1.0000 0.08780  0.50000  0.89820  Biso   1.000  C
  O2       1.0000 0.08440  0.50000  0.97910  Biso   1.000  O
  O3       1.0000 0.39690  0.50000  0.74100  Biso   1.000  O
  C74      1.0000 0.27930  0.50000  0.85590  Biso   1.000  C
  H49      1.0000 0.32090  0.50000  0.88550  Biso   1.000  H
  C75      1.0000 0.28000  0.50000  0.76590  Biso   1.000  C
  C76      1.0000 0.21890  0.50000  0.72820  Biso   1.000  C
  H50      1.0000 0.21810  0.50000  0.66850  Biso   1.000  H
  C77      1.0000 0.21650  0.50000  0.90350  Biso   1.000  C
  H51      1.0000 0.21670  0.50000  0.96320  Biso   1.000  H
  C78      1.0000 0.15490  0.50000  0.85750  Biso   1.000  C
  C79      1.0000 0.15880  0.50000  0.76860  Biso   1.000  C
  H52      1.0000 0.11840  0.50000  0.73660  Biso   1.000  H
  O4       1.0000 0.33110  0.50000  0.62360  Biso   1.000  O
  C80      1.0000 0.34620  0.50000  0.71340  Biso   1.000  C
  Co2      1.0000 0.56004  0.50000  0.40058  Biso   1.000  Co
  O5       1.0000 0.96354  0.50000  0.15280  Biso   1.000  O
  C81      1.0000 0.91220  0.50000  0.10180  Biso   1.000  C
  O6       1.0000 0.91560  0.50000  0.02090  Biso   1.000  O
  O7       1.0000 0.60310  0.50000  0.25900  Biso   1.000  O
  C82      1.0000 0.72070  0.50000  0.14410  Biso   1.000  C
  H53      1.0000 0.67910  0.50000  0.11450  Biso   1.000  H
  C83      1.0000 0.72000  0.50000  0.23410  Biso   1.000  C
  C84      1.0000 0.78110  0.50000  0.27180  Biso   1.000  C
  H54      1.0000 0.78190  0.50000  0.33150  Biso   1.000  H
  C85      1.0000 0.78350  0.50000  0.09650  Biso   1.000  C
  H55      1.0000 0.78330  0.50000  0.03680  Biso   1.000  H
  C86      1.0000 0.84510  0.50000  0.14250  Biso   1.000  C
  C87      1.0000 0.84120  0.50000  0.23140  Biso   1.000  C
  H56      1.0000 0.88160  0.50000  0.26340  Biso   1.000  H
  O8       1.0000 0.66890  0.50000  0.37640  Biso   1.000  O
  C88      1.0000 0.65380  0.50000  0.28660  Biso   1.000  C
  Co3      1.0000 0.06004  0.50000  0.09942  Biso   1.000  Co
  O9       1.0000 0.46354  0.50000  0.34720  Biso   1.000  O
  C89      1.0000 0.41220  0.50000  0.39820  Biso   1.000  C
  O10      1.0000 0.41560  0.50000  0.47910  Biso   1.000  O
  O11      1.0000 0.10310  0.50000  0.24100  Biso   1.000  O
  C90      1.0000 0.22070  0.50000  0.35590  Biso   1.000  C
  H57      1.0000 0.17910  0.50000  0.38550  Biso   1.000  H
  C91      1.0000 0.22000  0.50000  0.26590  Biso   1.000  C
  C92      1.0000 0.28110  0.50000  0.22820  Biso   1.000  C
  H58      1.0000 0.28190  0.50000  0.16850  Biso   1.000  H
  C93      1.0000 0.28350  0.50000  0.40350  Biso   1.000  C
  H59      1.0000 0.28330  0.50000  0.46320  Biso   1.000  H
  C94      1.0000 0.34510  0.50000  0.35750  Biso   1.000  C
  C95      1.0000 0.34120  0.50000  0.26860  Biso   1.000  C
  H60      1.0000 0.38160  0.50000  0.23660  Biso   1.000  H
  O12      1.0000 0.16890  0.50000  0.12360  Biso   1.000  O
  C96      1.0000 0.15380  0.50000  0.21340  Biso   1.000  C
  Co4      1.0000 0.93996  0.50000  0.90058  Biso   1.000  Co
  O13      1.0000 0.53646  0.50000  0.65280  Biso   1.000  O
  C97      1.0000 0.58780  0.50000  0.60180  Biso   1.000  C
  O14      1.0000 0.58440  0.50000  0.52090  Biso   1.000  O
  O15      1.0000 0.89690  0.50000  0.75900  Biso   1.000  O
  C98      1.0000 0.77930  0.50000  0.64410  Biso   1.000  C
  H61      1.0000 0.82090  0.50000  0.61450  Biso   1.000  H
  C99      1.0000 0.78000  0.50000  0.73410  Biso   1.000  C
  C100     1.0000 0.71890  0.50000  0.77180  Biso   1.000  C
  H62      1.0000 0.71810  0.50000  0.83150  Biso   1.000  H
  C101     1.0000 0.71650  0.50000  0.59650  Biso   1.000  C
  H63      1.0000 0.71670  0.50000  0.53680  Biso   1.000  H
  C102     1.0000 0.65490  0.50000  0.64250  Biso   1.000  C
  C103     1.0000 0.65880  0.50000  0.73140  Biso   1.000  C
  H64      1.0000 0.61840  0.50000  0.76340  Biso   1.000  H
  O16      1.0000 0.83110  0.50000  0.87640  Biso   1.000  O
  C104     1.0000 0.84620  0.50000  0.78660  Biso   1.000  C
  C105     1.0000 0.42240  0.00000  0.57560  Biso   1.000  C
  H65      1.0000 0.46560  0.00000  0.60140  Biso   1.000  H
  N33      1.0000 0.29990  0.00000  0.49480  Biso   1.000  N
  C106     1.0000 0.57760  0.00000  0.42440  Biso   1.000  C
  H66      1.0000 0.53440  0.00000  0.39860  Biso   1.000  H
  N34      1.0000 0.70010  0.00000  0.50520  Biso   1.000  N
  C107     1.0000 0.07760  0.00000  0.07560  Biso   1.000  C
  H67      1.0000 0.03440  0.00000  0.10140  Biso   1.000  H
  N35      1.0000 0.20010  0.00000  0.99480  Biso   1.000  N
  C108     1.0000 0.92240  0.00000  0.92440  Biso   1.000  C
  H68      1.0000 0.96560  0.00000  0.89860  Biso   1.000  H
  N36      1.0000 0.79990  0.00000  0.00520  Biso   1.000  N
