data_image0
_cell_length_a       21.2111
_cell_length_b       21.2111
_cell_length_c       21.2111
_cell_angle_alpha    90
_cell_angle_beta     90
_cell_angle_gamma    90

_symmetry_space_group_name_H-M    "P 1"
_symmetry_int_tables_number       1

loop_
  _symmetry_equiv_pos_as_xyz
  'x, y, z'

loop_
  _atom_site_label
  _atom_site_occupancy
  _atom_site_fract_x
  _atom_site_fract_y
  _atom_site_fract_z
  _atom_site_thermal_displace_type
  _atom_site_B_iso_or_equiv
  _atom_site_type_symbol
  N1       1.0000 0.56670  0.69530  0.06450  Biso   1.000  N
  C1       1.0000 0.58350  0.75620  0.08200  Biso   1.000  C
  H1       1.0000 0.56580  0.79130  0.06050  Biso   1.000  H
  C2       1.0000 0.62600  0.76570  0.13100  Biso   1.000  C
  H2       1.0000 0.63740  0.80730  0.14300  Biso   1.000  H
  C3       1.0000 0.65180  0.71430  0.16240  Biso   1.000  C
  C4       1.0000 0.63510  0.65340  0.14490  Biso   1.000  C
  H3       1.0000 0.65270  0.61830  0.16640  Biso   1.000  H
  C5       1.0000 0.59250  0.64390  0.09590  Biso   1.000  C
  H4       1.0000 0.58110  0.60230  0.08400  Biso   1.000  H
  C6       1.0000 0.69330  0.72500  0.21640  Biso   1.000  C
  C7       1.0000 0.74410  0.68160  0.22930  Biso   1.000  C
  H5       1.0000 0.74880  0.64460  0.20450  Biso   1.000  H
  N2       1.0000 0.43330  0.30470  0.06450  Biso   1.000  N
  C8       1.0000 0.41650  0.24380  0.08200  Biso   1.000  C
  H6       1.0000 0.43420  0.20870  0.06050  Biso   1.000  H
  C9       1.0000 0.37400  0.23430  0.13100  Biso   1.000  C
  H7       1.0000 0.36260  0.19270  0.14300  Biso   1.000  H
  C10      1.0000 0.34820  0.28570  0.16240  Biso   1.000  C
  C11      1.0000 0.36490  0.34660  0.14490  Biso   1.000  C
  H8       1.0000 0.34730  0.38170  0.16640  Biso   1.000  H
  C12      1.0000 0.40750  0.35610  0.09590  Biso   1.000  C
  H9       1.0000 0.41890  0.39770  0.08400  Biso   1.000  H
  C13      1.0000 0.30670  0.27500  0.21640  Biso   1.000  C
  C14      1.0000 0.25590  0.31840  0.22930  Biso   1.000  C
  H10      1.0000 0.25120  0.35540  0.20450  Biso   1.000  H
  N3       1.0000 0.43330  0.69530  0.93550  Biso   1.000  N
  C15      1.0000 0.41650  0.75620  0.91800  Biso   1.000  C
  H11      1.0000 0.43420  0.79130  0.93950  Biso   1.000  H
  C16      1.0000 0.37400  0.76570  0.86900  Biso   1.000  C
  H12      1.0000 0.36260  0.80730  0.85700  Biso   1.000  H
  C17      1.0000 0.34820  0.71430  0.83760  Biso   1.000  C
  C18      1.0000 0.36490  0.65340  0.85510  Biso   1.000  C
  H13      1.0000 0.34730  0.61830  0.83360  Biso   1.000  H
  C19      1.0000 0.40750  0.64390  0.90410  Biso   1.000  C
  H14      1.0000 0.41890  0.60230  0.91600  Biso   1.000  H
  C20      1.0000 0.30670  0.72500  0.78360  Biso   1.000  C
  C21      1.0000 0.25590  0.68160  0.77070  Biso   1.000  C
  H15      1.0000 0.25120  0.64460  0.79550  Biso   1.000  H
  N4       1.0000 0.56670  0.30470  0.93550  Biso   1.000  N
  C22      1.0000 0.58350  0.24380  0.91800  Biso   1.000  C
  H16      1.0000 0.56580  0.20870  0.93950  Biso   1.000  H
  C23      1.0000 0.62600  0.23430  0.86900  Biso   1.000  C
  H17      1.0000 0.63740  0.19270  0.85700  Biso   1.000  H
  C24      1.0000 0.65180  0.28570  0.83760  Biso   1.000  C
  C25      1.0000 0.63510  0.34660  0.85510  Biso   1.000  C
  H18      1.0000 0.65270  0.38170  0.83360  Biso   1.000  H
  C26      1.0000 0.59250  0.35610  0.90410  Biso   1.000  C
  H19      1.0000 0.58110  0.39770  0.91600  Biso   1.000  H
  C27      1.0000 0.69330  0.27500  0.78360  Biso   1.000  C
  C28      1.0000 0.74410  0.31840  0.77070  Biso   1.000  C
  H20      1.0000 0.74880  0.35540  0.79550  Biso   1.000  H
  N5       1.0000 0.06450  0.56670  0.69530  Biso   1.000  N
  C29      1.0000 0.08200  0.58350  0.75620  Biso   1.000  C
  H21      1.0000 0.06050  0.56580  0.79130  Biso   1.000  H
  C30      1.0000 0.13100  0.62600  0.76570  Biso   1.000  C
  H22      1.0000 0.14300  0.63740  0.80730  Biso   1.000  H
  C31      1.0000 0.16240  0.65180  0.71430  Biso   1.000  C
  C32      1.0000 0.14490  0.63510  0.65340  Biso   1.000  C
  H23      1.0000 0.16640  0.65270  0.61830  Biso   1.000  H
  C33      1.0000 0.09590  0.59250  0.64390  Biso   1.000  C
  H24      1.0000 0.08400  0.58110  0.60230  Biso   1.000  H
  C34      1.0000 0.21640  0.69330  0.72500  Biso   1.000  C
  C35      1.0000 0.22930  0.74410  0.68160  Biso   1.000  C
  H25      1.0000 0.20450  0.74880  0.64460  Biso   1.000  H
  N6       1.0000 0.06450  0.43330  0.30470  Biso   1.000  N
  C36      1.0000 0.08200  0.41650  0.24380  Biso   1.000  C
  H26      1.0000 0.06050  0.43420  0.20870  Biso   1.000  H
  C37      1.0000 0.13100  0.37400  0.23430  Biso   1.000  C
  H27      1.0000 0.14300  0.36260  0.19270  Biso   1.000  H
  C38      1.0000 0.16240  0.34820  0.28570  Biso   1.000  C
  C39      1.0000 0.14490  0.36490  0.34660  Biso   1.000  C
  H28      1.0000 0.16640  0.34730  0.38170  Biso   1.000  H
  C40      1.0000 0.09590  0.40750  0.35610  Biso   1.000  C
  H29      1.0000 0.08400  0.41890  0.39770  Biso   1.000  H
  C41      1.0000 0.21640  0.30670  0.27500  Biso   1.000  C
  C42      1.0000 0.22930  0.25590  0.31840  Biso   1.000  C
  H30      1.0000 0.20450  0.25120  0.35540  Biso   1.000  H
  N7       1.0000 0.93550  0.43330  0.69530  Biso   1.000  N
  C43      1.0000 0.91800  0.41650  0.75620  Biso   1.000  C
  H31      1.0000 0.93950  0.43420  0.79130  Biso   1.000  H
  C44      1.0000 0.86900  0.37400  0.76570  Biso   1.000  C
  H32      1.0000 0.85700  0.36260  0.80730  Biso   1.000  H
  C45      1.0000 0.83760  0.34820  0.71430  Biso   1.000  C
  C46      1.0000 0.85510  0.36490  0.65340  Biso   1.000  C
  H33      1.0000 0.83360  0.34730  0.61830  Biso   1.000  H
  C47      1.0000 0.90410  0.40750  0.64390  Biso   1.000  C
  H34      1.0000 0.91600  0.41890  0.60230  Biso   1.000  H
  C48      1.0000 0.78360  0.30670  0.72500  Biso   1.000  C
  C49      1.0000 0.77070  0.25590  0.68160  Biso   1.000  C
  H35      1.0000 0.79550  0.25120  0.64460  Biso   1.000  H
  N8       1.0000 0.93550  0.56670  0.30470  Biso   1.000  N
  C50      1.0000 0.91800  0.58350  0.24380  Biso   1.000  C
  H36      1.0000 0.93950  0.56580  0.20870  Biso   1.000  H
  C51      1.0000 0.86900  0.62600  0.23430  Biso   1.000  C
  H37      1.0000 0.85700  0.63740  0.19270  Biso   1.000  H
  C52      1.0000 0.83760  0.65180  0.28570  Biso   1.000  C
  C53      1.0000 0.85510  0.63510  0.34660  Biso   1.000  C
  H38      1.0000 0.83360  0.65270  0.38170  Biso   1.000  H
  C54      1.0000 0.90410  0.59250  0.35610  Biso   1.000  C
  H39      1.0000 0.91600  0.58110  0.39770  Biso   1.000  H
  C55      1.0000 0.78360  0.69330  0.27500  Biso   1.000  C
  C56      1.0000 0.77070  0.74410  0.31840  Biso   1.000  C
  H40      1.0000 0.79550  0.74880  0.35540  Biso   1.000  H
  N9       1.0000 0.69530  0.06450  0.56670  Biso   1.000  N
  C57      1.0000 0.75620  0.08200  0.58350  Biso   1.000  C
  H41      1.0000 0.79130  0.06050  0.56580  Biso   1.000  H
  C58      1.0000 0.76570  0.13100  0.62600  Biso   1.000  C
  H42      1.0000 0.80730  0.14300  0.63740  Biso   1.000  H
  C59      1.0000 0.71430  0.16240  0.65180  Biso   1.000  C
  C60      1.0000 0.65340  0.14490  0.63510  Biso   1.000  C
  H43      1.0000 0.61830  0.16640  0.65270  Biso   1.000  H
  C61      1.0000 0.64390  0.09590  0.59250  Biso   1.000  C
  H44      1.0000 0.60230  0.08400  0.58110  Biso   1.000  H
  C62      1.0000 0.72500  0.21640  0.69330  Biso   1.000  C
  C63      1.0000 0.68160  0.22930  0.74410  Biso   1.000  C
  H45      1.0000 0.64460  0.20450  0.74880  Biso   1.000  H
  N10      1.0000 0.30470  0.06450  0.43330  Biso   1.000  N
  C64      1.0000 0.24380  0.08200  0.41650  Biso   1.000  C
  H46      1.0000 0.20870  0.06050  0.43420  Biso   1.000  H
  C65      1.0000 0.23430  0.13100  0.37400  Biso   1.000  C
  H47      1.0000 0.19270  0.14300  0.36260  Biso   1.000  H
  C66      1.0000 0.28570  0.16240  0.34820  Biso   1.000  C
  C67      1.0000 0.34660  0.14490  0.36490  Biso   1.000  C
  H48      1.0000 0.38170  0.16640  0.34730  Biso   1.000  H
  C68      1.0000 0.35610  0.09590  0.40750  Biso   1.000  C
  H49      1.0000 0.39770  0.08400  0.41890  Biso   1.000  H
  C69      1.0000 0.27500  0.21640  0.30670  Biso   1.000  C
  C70      1.0000 0.31840  0.22930  0.25590  Biso   1.000  C
  H50      1.0000 0.35540  0.20450  0.25120  Biso   1.000  H
  N11      1.0000 0.69530  0.93550  0.43330  Biso   1.000  N
  C71      1.0000 0.75620  0.91800  0.41650  Biso   1.000  C
  H51      1.0000 0.79130  0.93950  0.43420  Biso   1.000  H
  C72      1.0000 0.76570  0.86900  0.37400  Biso   1.000  C
  H52      1.0000 0.80730  0.85700  0.36260  Biso   1.000  H
  C73      1.0000 0.71430  0.83760  0.34820  Biso   1.000  C
  C74      1.0000 0.65340  0.85510  0.36490  Biso   1.000  C
  H53      1.0000 0.61830  0.83360  0.34730  Biso   1.000  H
  C75      1.0000 0.64390  0.90410  0.40750  Biso   1.000  C
  H54      1.0000 0.60230  0.91600  0.41890  Biso   1.000  H
  C76      1.0000 0.72500  0.78360  0.30670  Biso   1.000  C
  C77      1.0000 0.68160  0.77070  0.25590  Biso   1.000  C
  H55      1.0000 0.64460  0.79550  0.25120  Biso   1.000  H
  N12      1.0000 0.30470  0.93550  0.56670  Biso   1.000  N
  C78      1.0000 0.24380  0.91800  0.58350  Biso   1.000  C
  H56      1.0000 0.20870  0.93950  0.56580  Biso   1.000  H
  C79      1.0000 0.23430  0.86900  0.62600  Biso   1.000  C
  H57      1.0000 0.19270  0.85700  0.63740  Biso   1.000  H
  C80      1.0000 0.28570  0.83760  0.65180  Biso   1.000  C
  C81      1.0000 0.34660  0.85510  0.63510  Biso   1.000  C
  H58      1.0000 0.38170  0.83360  0.65270  Biso   1.000  H
  C82      1.0000 0.35610  0.90410  0.59250  Biso   1.000  C
  H59      1.0000 0.39770  0.91600  0.58110  Biso   1.000  H
  C83      1.0000 0.27500  0.78360  0.69330  Biso   1.000  C
  C84      1.0000 0.31840  0.77070  0.74410  Biso   1.000  C
  H60      1.0000 0.35540  0.79550  0.74880  Biso   1.000  H
  N13      1.0000 0.43330  0.30470  0.93550  Biso   1.000  N
  C85      1.0000 0.41650  0.24380  0.91800  Biso   1.000  C
  H61      1.0000 0.43420  0.20870  0.93950  Biso   1.000  H
  C86      1.0000 0.37400  0.23430  0.86900  Biso   1.000  C
  H62      1.0000 0.36260  0.19270  0.85700  Biso   1.000  H
  C87      1.0000 0.34820  0.28570  0.83760  Biso   1.000  C
  C88      1.0000 0.36490  0.34660  0.85510  Biso   1.000  C
  H63      1.0000 0.34730  0.38170  0.83360  Biso   1.000  H
  C89      1.0000 0.40750  0.35610  0.90410  Biso   1.000  C
  H64      1.0000 0.41890  0.39770  0.91600  Biso   1.000  H
  C90      1.0000 0.30670  0.27500  0.78360  Biso   1.000  C
  C91      1.0000 0.25590  0.31840  0.77070  Biso   1.000  C
  H65      1.0000 0.25120  0.35540  0.79550  Biso   1.000  H
  N14      1.0000 0.56670  0.69530  0.93550  Biso   1.000  N
  C92      1.0000 0.58350  0.75620  0.91800  Biso   1.000  C
  H66      1.0000 0.56580  0.79130  0.93950  Biso   1.000  H
  C93      1.0000 0.62600  0.76570  0.86900  Biso   1.000  C
  H67      1.0000 0.63740  0.80730  0.85700  Biso   1.000  H
  C94      1.0000 0.65180  0.71430  0.83760  Biso   1.000  C
  C95      1.0000 0.63510  0.65340  0.85510  Biso   1.000  C
  H68      1.0000 0.65270  0.61830  0.83360  Biso   1.000  H
  C96      1.0000 0.59250  0.64390  0.90410  Biso   1.000  C
  H69      1.0000 0.58110  0.60230  0.91600  Biso   1.000  H
  C97      1.0000 0.69330  0.72500  0.78360  Biso   1.000  C
  C98      1.0000 0.74410  0.68160  0.77070  Biso   1.000  C
  H70      1.0000 0.74880  0.64460  0.79550  Biso   1.000  H
  N15      1.0000 0.56670  0.30470  0.06450  Biso   1.000  N
  C99      1.0000 0.58350  0.24380  0.08200  Biso   1.000  C
  H71      1.0000 0.56580  0.20870  0.06050  Biso   1.000  H
  C100     1.0000 0.62600  0.23430  0.13100  Biso   1.000  C
  H72      1.0000 0.63740  0.19270  0.14300  Biso   1.000  H
  C101     1.0000 0.65180  0.28570  0.16240  Biso   1.000  C
  C102     1.0000 0.63510  0.34660  0.14490  Biso   1.000  C
  H73      1.0000 0.65270  0.38170  0.16640  Biso   1.000  H
  C103     1.0000 0.59250  0.35610  0.09590  Biso   1.000  C
  H74      1.0000 0.58110  0.39770  0.08400  Biso   1.000  H
  C104     1.0000 0.69330  0.27500  0.21640  Biso   1.000  C
  C105     1.0000 0.74410  0.31840  0.22930  Biso   1.000  C
  H75      1.0000 0.74880  0.35540  0.20450  Biso   1.000  H
  N16      1.0000 0.43330  0.69530  0.06450  Biso   1.000  N
  C106     1.0000 0.41650  0.75620  0.08200  Biso   1.000  C
  H76      1.0000 0.43420  0.79130  0.06050  Biso   1.000  H
  C107     1.0000 0.37400  0.76570  0.13100  Biso   1.000  C
  H77      1.0000 0.36260  0.80730  0.14300  Biso   1.000  H
  C108     1.0000 0.34820  0.71430  0.16240  Biso   1.000  C
  C109     1.0000 0.36490  0.65340  0.14490  Biso   1.000  C
  H78      1.0000 0.34730  0.61830  0.16640  Biso   1.000  H
  C110     1.0000 0.40750  0.64390  0.09590  Biso   1.000  C
  H79      1.0000 0.41890  0.60230  0.08400  Biso   1.000  H
  C111     1.0000 0.30670  0.72500  0.21640  Biso   1.000  C
  C112     1.0000 0.25590  0.68160  0.22930  Biso   1.000  C
  H80      1.0000 0.25120  0.64460  0.20450  Biso   1.000  H
  N17      1.0000 0.93550  0.43330  0.30470  Biso   1.000  N
  C113     1.0000 0.91800  0.41650  0.24380  Biso   1.000  C
  H81      1.0000 0.93950  0.43420  0.20870  Biso   1.000  H
  C114     1.0000 0.86900  0.37400  0.23430  Biso   1.000  C
  H82      1.0000 0.85700  0.36260  0.19270  Biso   1.000  H
  C115     1.0000 0.83760  0.34820  0.28570  Biso   1.000  C
  C116     1.0000 0.85510  0.36490  0.34660  Biso   1.000  C
  H83      1.0000 0.83360  0.34730  0.38170  Biso   1.000  H
  C117     1.0000 0.90410  0.40750  0.35610  Biso   1.000  C
  H84      1.0000 0.91600  0.41890  0.39770  Biso   1.000  H
  C118     1.0000 0.78360  0.30670  0.27500  Biso   1.000  C
  C119     1.0000 0.77070  0.25590  0.31840  Biso   1.000  C
  H85      1.0000 0.79550  0.25120  0.35540  Biso   1.000  H
  N18      1.0000 0.93550  0.56670  0.69530  Biso   1.000  N
  C120     1.0000 0.91800  0.58350  0.75620  Biso   1.000  C
  H86      1.0000 0.93950  0.56580  0.79130  Biso   1.000  H
  C121     1.0000 0.86900  0.62600  0.76570  Biso   1.000  C
  H87      1.0000 0.85700  0.63740  0.80730  Biso   1.000  H
  C122     1.0000 0.83760  0.65180  0.71430  Biso   1.000  C
  C123     1.0000 0.85510  0.63510  0.65340  Biso   1.000  C
  H88      1.0000 0.83360  0.65270  0.61830  Biso   1.000  H
  C124     1.0000 0.90410  0.59250  0.64390  Biso   1.000  C
  H89      1.0000 0.91600  0.58110  0.60230  Biso   1.000  H
  C125     1.0000 0.78360  0.69330  0.72500  Biso   1.000  C
  C126     1.0000 0.77070  0.74410  0.68160  Biso   1.000  C
  H90      1.0000 0.79550  0.74880  0.64460  Biso   1.000  H
  N19      1.0000 0.06450  0.56670  0.30470  Biso   1.000  N
  C127     1.0000 0.08200  0.58350  0.24380  Biso   1.000  C
  H91      1.0000 0.06050  0.56580  0.20870  Biso   1.000  H
  C128     1.0000 0.13100  0.62600  0.23430  Biso   1.000  C
  H92      1.0000 0.14300  0.63740  0.19270  Biso   1.000  H
  C129     1.0000 0.16240  0.65180  0.28570  Biso   1.000  C
  C130     1.0000 0.14490  0.63510  0.34660  Biso   1.000  C
  H93      1.0000 0.16640  0.65270  0.38170  Biso   1.000  H
  C131     1.0000 0.09590  0.59250  0.35610  Biso   1.000  C
  H94      1.0000 0.08400  0.58110  0.39770  Biso   1.000  H
  C132     1.0000 0.21640  0.69330  0.27500  Biso   1.000  C
  C133     1.0000 0.22930  0.74410  0.31840  Biso   1.000  C
  H95      1.0000 0.20450  0.74880  0.35540  Biso   1.000  H
  N20      1.0000 0.06450  0.43330  0.69530  Biso   1.000  N
  C134     1.0000 0.08200  0.41650  0.75620  Biso   1.000  C
  H96      1.0000 0.06050  0.43420  0.79130  Biso   1.000  H
  C135     1.0000 0.13100  0.37400  0.76570  Biso   1.000  C
  H97      1.0000 0.14300  0.36260  0.80730  Biso   1.000  H
  C136     1.0000 0.16240  0.34820  0.71430  Biso   1.000  C
  C137     1.0000 0.14490  0.36490  0.65340  Biso   1.000  C
  H98      1.0000 0.16640  0.34730  0.61830  Biso   1.000  H
  C138     1.0000 0.09590  0.40750  0.64390  Biso   1.000  C
  H99      1.0000 0.08400  0.41890  0.60230  Biso   1.000  H
  C139     1.0000 0.21640  0.30670  0.72500  Biso   1.000  C
  C140     1.0000 0.22930  0.25590  0.68160  Biso   1.000  C
  H100     1.0000 0.20450  0.25120  0.64460  Biso   1.000  H
  N21      1.0000 0.30470  0.93550  0.43330  Biso   1.000  N
  C141     1.0000 0.24380  0.91800  0.41650  Biso   1.000  C
  H101     1.0000 0.20870  0.93950  0.43420  Biso   1.000  H
  C142     1.0000 0.23430  0.86900  0.37400  Biso   1.000  C
  H102     1.0000 0.19270  0.85700  0.36260  Biso   1.000  H
  C143     1.0000 0.28570  0.83760  0.34820  Biso   1.000  C
  C144     1.0000 0.34660  0.85510  0.36490  Biso   1.000  C
  H103     1.0000 0.38170  0.83360  0.34730  Biso   1.000  H
  C145     1.0000 0.35610  0.90410  0.40750  Biso   1.000  C
  H104     1.0000 0.39770  0.91600  0.41890  Biso   1.000  H
  C146     1.0000 0.27500  0.78360  0.30670  Biso   1.000  C
  C147     1.0000 0.31840  0.77070  0.25590  Biso   1.000  C
  H105     1.0000 0.35540  0.79550  0.25120  Biso   1.000  H
  N22      1.0000 0.69530  0.93550  0.56670  Biso   1.000  N
  C148     1.0000 0.75620  0.91800  0.58350  Biso   1.000  C
  H106     1.0000 0.79130  0.93950  0.56580  Biso   1.000  H
  C149     1.0000 0.76570  0.86900  0.62600  Biso   1.000  C
  H107     1.0000 0.80730  0.85700  0.63740  Biso   1.000  H
  C150     1.0000 0.71430  0.83760  0.65180  Biso   1.000  C
  C151     1.0000 0.65340  0.85510  0.63510  Biso   1.000  C
  H108     1.0000 0.61830  0.83360  0.65270  Biso   1.000  H
  C152     1.0000 0.64390  0.90410  0.59250  Biso   1.000  C
  H109     1.0000 0.60230  0.91600  0.58110  Biso   1.000  H
  C153     1.0000 0.72500  0.78360  0.69330  Biso   1.000  C
  C154     1.0000 0.68160  0.77070  0.74410  Biso   1.000  C
  H110     1.0000 0.64460  0.79550  0.74880  Biso   1.000  H
  N23      1.0000 0.30470  0.06450  0.56670  Biso   1.000  N
  C155     1.0000 0.24380  0.08200  0.58350  Biso   1.000  C
  H111     1.0000 0.20870  0.06050  0.56580  Biso   1.000  H
  C156     1.0000 0.23430  0.13100  0.62600  Biso   1.000  C
  H112     1.0000 0.19270  0.14300  0.63740  Biso   1.000  H
  C157     1.0000 0.28570  0.16240  0.65180  Biso   1.000  C
  C158     1.0000 0.34660  0.14490  0.63510  Biso   1.000  C
  H113     1.0000 0.38170  0.16640  0.65270  Biso   1.000  H
  C159     1.0000 0.35610  0.09590  0.59250  Biso   1.000  C
  H114     1.0000 0.39770  0.08400  0.58110  Biso   1.000  H
  C160     1.0000 0.27500  0.21640  0.69330  Biso   1.000  C
  C161     1.0000 0.31840  0.22930  0.74410  Biso   1.000  C
  H115     1.0000 0.35540  0.20450  0.74880  Biso   1.000  H
  N24      1.0000 0.69530  0.06450  0.43330  Biso   1.000  N
  C162     1.0000 0.75620  0.08200  0.41650  Biso   1.000  C
  H116     1.0000 0.79130  0.06050  0.43420  Biso   1.000  H
  C163     1.0000 0.76570  0.13100  0.37400  Biso   1.000  C
  H117     1.0000 0.80730  0.14300  0.36260  Biso   1.000  H
  C164     1.0000 0.71430  0.16240  0.34820  Biso   1.000  C
  C165     1.0000 0.65340  0.14490  0.36490  Biso   1.000  C
  H118     1.0000 0.61830  0.16640  0.34730  Biso   1.000  H
  C166     1.0000 0.64390  0.09590  0.40750  Biso   1.000  C
  H119     1.0000 0.60230  0.08400  0.41890  Biso   1.000  H
  C167     1.0000 0.72500  0.21640  0.30670  Biso   1.000  C
  C168     1.0000 0.68160  0.22930  0.25590  Biso   1.000  C
  H120     1.0000 0.64460  0.20450  0.25120  Biso   1.000  H
  Cu1      1.0000 0.50000  0.68779  0.00000  Biso   1.000  Cu
  Cu2      1.0000 0.50000  0.31221  0.00000  Biso   1.000  Cu
  Cu3      1.0000 0.00000  0.50000  0.68779  Biso   1.000  Cu
  Cu4      1.0000 0.00000  0.50000  0.31221  Biso   1.000  Cu
  Cu5      1.0000 0.68779  0.00000  0.50000  Biso   1.000  Cu
  Cu6      1.0000 0.31221  0.00000  0.50000  Biso   1.000  Cu
