data_image0
_cell_length_a       14.7368
_cell_length_b       14.7368
_cell_length_c       14.7368
_cell_angle_alpha    60
_cell_angle_beta     60
_cell_angle_gamma    90

_symmetry_space_group_name_H-M    "P 1"
_symmetry_int_tables_number       1

loop_
  _symmetry_equiv_pos_as_xyz
  'x, y, z'

loop_
  _atom_site_label
  _atom_site_occupancy
  _atom_site_fract_x
  _atom_site_fract_y
  _atom_site_fract_z
  _atom_site_thermal_displace_type
  _atom_site_B_iso_or_equiv
  _atom_site_type_symbol
  Zr1      1.0000 0.11954  0.88046  0.00000  Biso   1.000  Zr
  Zr2      1.0000 0.11954  0.11954  0.00000  Biso   1.000  Zr
  Zr3      1.0000 0.88046  0.11954  0.00000  Biso   1.000  Zr
  Zr4      1.0000 0.88046  0.88046  0.00000  Biso   1.000  Zr
  Zr5      1.0000 0.88046  0.88046  0.23908  Biso   1.000  Zr
  Zr6      1.0000 0.11954  0.11954  0.76092  Biso   1.000  Zr
  H1       1.0000 0.40797  0.84828  0.73082  Biso   1.000  H
  H2       1.0000 0.15172  0.13879  0.26918  Biso   1.000  H
  H3       1.0000 0.86121  0.42090  0.73082  Biso   1.000  H
  H4       1.0000 0.57910  0.59203  0.26918  Biso   1.000  H
  H5       1.0000 0.57910  0.13879  0.26918  Biso   1.000  H
  H6       1.0000 0.40797  0.42090  0.73082  Biso   1.000  H
  H7       1.0000 0.15172  0.59203  0.26918  Biso   1.000  H
  H8       1.0000 0.86121  0.84828  0.73082  Biso   1.000  H
  H9       1.0000 0.57910  0.59203  0.55970  Biso   1.000  H
  H10      1.0000 0.40797  0.84828  0.01293  Biso   1.000  H
  H11      1.0000 0.15172  0.13879  0.44030  Biso   1.000  H
  H12      1.0000 0.86121  0.42090  0.98707  Biso   1.000  H
  H13      1.0000 0.40797  0.42090  0.44030  Biso   1.000  H
  H14      1.0000 0.15172  0.59203  0.98707  Biso   1.000  H
  H15      1.0000 0.86121  0.84828  0.55970  Biso   1.000  H
  H16      1.0000 0.57910  0.13879  0.01293  Biso   1.000  H
  H17      1.0000 0.40797  0.13879  0.44030  Biso   1.000  H
  H18      1.0000 0.15172  0.42090  0.98707  Biso   1.000  H
  H19      1.0000 0.86121  0.59203  0.55970  Biso   1.000  H
  H20      1.0000 0.57910  0.84828  0.01293  Biso   1.000  H
  H21      1.0000 0.57910  0.84828  0.55970  Biso   1.000  H
  H22      1.0000 0.40797  0.13879  0.01293  Biso   1.000  H
  H23      1.0000 0.15172  0.42090  0.44030  Biso   1.000  H
  H24      1.0000 0.86121  0.59203  0.98707  Biso   1.000  H
  H25      1.0000 0.28361  0.09454  0.81093  Biso   1.000  H
  H26      1.0000 0.90546  0.09454  0.18907  Biso   1.000  H
  H27      1.0000 0.90546  0.09454  0.81093  Biso   1.000  H
  H28      1.0000 0.90546  0.71639  0.18907  Biso   1.000  H
  C1       1.0000 0.44635  0.91117  0.62931  Biso   1.000  C
  C2       1.0000 0.08883  0.07566  0.37069  Biso   1.000  C
  C3       1.0000 0.92434  0.45952  0.62931  Biso   1.000  C
  C4       1.0000 0.54048  0.55365  0.37069  Biso   1.000  C
  C5       1.0000 0.54048  0.07566  0.37069  Biso   1.000  C
  C6       1.0000 0.44635  0.45952  0.62931  Biso   1.000  C
  C7       1.0000 0.08883  0.55365  0.37069  Biso   1.000  C
  C8       1.0000 0.92434  0.91117  0.62931  Biso   1.000  C
  C9       1.0000 0.54048  0.55365  0.53518  Biso   1.000  C
  C10      1.0000 0.44635  0.91117  0.01317  Biso   1.000  C
  C11      1.0000 0.08883  0.07566  0.46482  Biso   1.000  C
  C12      1.0000 0.92434  0.45952  0.98683  Biso   1.000  C
  C13      1.0000 0.44635  0.45952  0.46482  Biso   1.000  C
  C14      1.0000 0.08883  0.55365  0.98683  Biso   1.000  C
  C15      1.0000 0.92434  0.91117  0.53518  Biso   1.000  C
  C16      1.0000 0.54048  0.07566  0.01317  Biso   1.000  C
  C17      1.0000 0.44635  0.07566  0.46482  Biso   1.000  C
  C18      1.0000 0.08883  0.45952  0.98683  Biso   1.000  C
  C19      1.0000 0.92434  0.55365  0.53518  Biso   1.000  C
  C20      1.0000 0.54048  0.91117  0.01317  Biso   1.000  C
  C21      1.0000 0.54048  0.91117  0.53518  Biso   1.000  C
  C22      1.0000 0.44635  0.07566  0.01317  Biso   1.000  C
  C23      1.0000 0.08883  0.45952  0.46482  Biso   1.000  C
  C24      1.0000 0.92434  0.55365  0.98683  Biso   1.000  C
  C25      1.0000 0.00417  0.69989  0.30427  Biso   1.000  C
  C26      1.0000 0.30011  0.30844  0.69573  Biso   1.000  C
  C27      1.0000 0.69156  0.99583  0.30427  Biso   1.000  C
  C28      1.0000 0.00417  0.99583  0.69573  Biso   1.000  C
  C29      1.0000 0.00417  0.30844  0.69573  Biso   1.000  C
  C30      1.0000 0.00417  0.99583  0.30427  Biso   1.000  C
  C31      1.0000 0.30011  0.99583  0.69573  Biso   1.000  C
  C32      1.0000 0.69156  0.69989  0.30427  Biso   1.000  C
  C33      1.0000 0.00417  0.69989  0.99167  Biso   1.000  C
  C34      1.0000 0.69156  0.99583  0.00833  Biso   1.000  C
  C35      1.0000 0.30011  0.99583  0.00833  Biso   1.000  C
  C36      1.0000 0.00417  0.30844  0.99167  Biso   1.000  C
  C37      1.0000 0.39918  0.99378  0.59460  Biso   1.000  C
  C38      1.0000 0.00622  0.99378  0.40540  Biso   1.000  C
  C39      1.0000 0.00622  0.41162  0.59460  Biso   1.000  C
  C40      1.0000 0.58838  0.60082  0.40540  Biso   1.000  C
  C41      1.0000 0.58838  0.99378  0.40540  Biso   1.000  C
  C42      1.0000 0.39918  0.41162  0.59460  Biso   1.000  C
  C43      1.0000 0.00622  0.60082  0.40540  Biso   1.000  C
  C44      1.0000 0.00622  0.99378  0.59460  Biso   1.000  C
  C45      1.0000 0.39918  0.99378  0.01244  Biso   1.000  C
  C46      1.0000 0.00622  0.41162  0.98756  Biso   1.000  C
  C47      1.0000 0.00622  0.60082  0.98756  Biso   1.000  C
  C48      1.0000 0.58838  0.99378  0.01244  Biso   1.000  C
  O1       1.0000 0.26179  0.92030  0.81234  Biso   1.000  O
  O2       1.0000 0.07970  0.07413  0.18766  Biso   1.000  O
  O3       1.0000 0.92587  0.26736  0.81234  Biso   1.000  O
  O4       1.0000 0.73264  0.73821  0.18766  Biso   1.000  O
  O5       1.0000 0.73264  0.07413  0.18766  Biso   1.000  O
  O6       1.0000 0.26179  0.26736  0.81234  Biso   1.000  O
  O7       1.0000 0.07970  0.73821  0.18766  Biso   1.000  O
  O8       1.0000 0.92587  0.92030  0.81234  Biso   1.000  O
  O9       1.0000 0.73264  0.73821  0.34149  Biso   1.000  O
  O10      1.0000 0.26179  0.92030  0.00557  Biso   1.000  O
  O11      1.0000 0.07970  0.07413  0.65851  Biso   1.000  O
  O12      1.0000 0.92587  0.26736  0.99443  Biso   1.000  O
  O13      1.0000 0.26179  0.26736  0.65851  Biso   1.000  O
  O14      1.0000 0.07970  0.73821  0.99443  Biso   1.000  O
  O15      1.0000 0.92587  0.92030  0.34149  Biso   1.000  O
  O16      1.0000 0.73264  0.07413  0.00557  Biso   1.000  O
  O17      1.0000 0.26179  0.07413  0.65851  Biso   1.000  O
  O18      1.0000 0.07970  0.26736  0.99443  Biso   1.000  O
  O19      1.0000 0.92587  0.73821  0.34149  Biso   1.000  O
  O20      1.0000 0.73264  0.92030  0.00557  Biso   1.000  O
  O21      1.0000 0.73264  0.92030  0.34149  Biso   1.000  O
  O22      1.0000 0.26179  0.07413  0.00557  Biso   1.000  O
  O23      1.0000 0.07970  0.26736  0.65851  Biso   1.000  O
  O24      1.0000 0.92587  0.73821  0.99443  Biso   1.000  O
  O25      1.0000 0.93239  0.79716  0.13523  Biso   1.000  O
  O26      1.0000 0.20284  0.06761  0.86477  Biso   1.000  O
  O27      1.0000 0.93239  0.06761  0.13523  Biso   1.000  O
  O28      1.0000 0.93239  0.06761  0.86477  Biso   1.000  O
  O29      1.0000 0.04973  0.14920  0.90053  Biso   1.000  O
  O30      1.0000 0.85080  0.95027  0.09947  Biso   1.000  O
  O31      1.0000 0.04973  0.95027  0.90053  Biso   1.000  O
  O32      1.0000 0.04973  0.95027  0.09947  Biso   1.000  O
