data_image0
_cell_length_a       8.8438
_cell_length_b       12.7821
_cell_length_c       12.2085
_cell_angle_alpha    90
_cell_angle_beta     100.063
_cell_angle_gamma    90

_symmetry_space_group_name_H-M    "P 1"
_symmetry_int_tables_number       1

loop_
  _symmetry_equiv_pos_as_xyz
  'x, y, z'

loop_
  _atom_site_label
  _atom_site_occupancy
  _atom_site_fract_x
  _atom_site_fract_y
  _atom_site_fract_z
  _atom_site_thermal_displace_type
  _atom_site_B_iso_or_equiv
  _atom_site_type_symbol
  Cd1      1.0000 0.22015  0.91397  0.38475  Biso   1.000  Cd
  Cd2      1.0000 0.20626  0.79095  0.03396  Biso   1.000  Cd
  Cd3      1.0000 0.26321  0.56056  0.34974  Biso   1.000  Cd
  O1       1.0000 0.00390  0.60500  0.36150  Biso   1.000  O
  O2       1.0000 0.17350  0.73010  0.38370  Biso   1.000  O
  O3       1.0000 0.45370  0.84540  0.41750  Biso   1.000  O
  O4       1.0000 0.53810  0.00380  0.40120  Biso   1.000  O
  O5       1.0000 0.48420  0.59000  0.28550  Biso   1.000  O
  O6       1.0000 0.28670  0.65510  0.16980  Biso   1.000  O
  O7       1.0000 0.98150  0.72680  0.06560  Biso   1.000  O
  H1       1.0000 0.03200  0.67180  0.05700  Biso   1.000  H
  O8       1.0000 0.88450  0.87010  0.97860  Biso   1.000  O
  O9       1.0000 0.21900  0.41950  0.22170  Biso   1.000  O
  O10      1.0000 0.21330  0.38310  0.39880  Biso   1.000  O
  O11      1.0000 0.23430  0.98880  0.04230  Biso   1.000  O
  O12      1.0000 0.20350  0.90110  0.18990  Biso   1.000  O
  N1       1.0000 0.96170  0.87660  0.40100  Biso   1.000  N
  N2       1.0000 0.83910  0.92840  0.41000  Biso   1.000  N
  H2       1.0000 0.83780  0.99530  0.41720  Biso   1.000  H
  N3       1.0000 0.47570  0.77470  0.06730  Biso   1.000  N
  N4       1.0000 0.59440  0.81250  0.02500  Biso   1.000  N
  H3       1.0000 0.58780  0.86230  0.97710  Biso   1.000  H
  N5       1.0000 0.19170  0.17370  0.35310  Biso   1.000  N
  N6       1.0000 0.19040  0.07680  0.30950  Biso   1.000  N
  C1       1.0000 0.03760  0.69750  0.37590  Biso   1.000  C
  C2       1.0000 0.91860  0.77530  0.39140  Biso   1.000  C
  C3       1.0000 0.76430  0.76640  0.39550  Biso   1.000  C
  H4       1.0000 0.70620  0.70540  0.39140  Biso   1.000  H
  C4       1.0000 0.71430  0.86870  0.40710  Biso   1.000  C
  C5       1.0000 0.55660  0.91120  0.40900  Biso   1.000  C
  C6       1.0000 0.42680  0.64350  0.20030  Biso   1.000  C
  C7       1.0000 0.53240  0.69840  0.13670  Biso   1.000  C
  C8       1.0000 0.68880  0.68740  0.13730  Biso   1.000  C
  H5       1.0000 0.75590  0.63920  0.17700  Biso   1.000  H
  C9       1.0000 0.72200  0.76340  0.06600  Biso   1.000  C
  C10      1.0000 0.87230  0.79050  0.03470  Biso   1.000  C
  C11      1.0000 0.20900  0.35520  0.29860  Biso   1.000  C
  C12      1.0000 0.20220  0.24340  0.27200  Biso   1.000  C
  C13      1.0000 0.21150  0.19140  0.17380  Biso   1.000  C
  H6       1.0000 0.22050  0.22000  0.10520  Biso   1.000  H
  C14      1.0000 0.20390  0.08460  0.20260  Biso   1.000  C
  C15      1.0000 0.21510  0.98950  0.14040  Biso   1.000  C
  Cd4      1.0000 0.22015  0.08603  0.88475  Biso   1.000  Cd
  Cd5      1.0000 0.20626  0.20905  0.53396  Biso   1.000  Cd
  Cd6      1.0000 0.26321  0.43944  0.84974  Biso   1.000  Cd
  O13      1.0000 0.00390  0.39500  0.86150  Biso   1.000  O
  O14      1.0000 0.17350  0.26990  0.88370  Biso   1.000  O
  O15      1.0000 0.45370  0.15460  0.91750  Biso   1.000  O
  O16      1.0000 0.53810  0.99620  0.90120  Biso   1.000  O
  O17      1.0000 0.48420  0.41000  0.78550  Biso   1.000  O
  O18      1.0000 0.28670  0.34490  0.66980  Biso   1.000  O
  O19      1.0000 0.98150  0.27320  0.56560  Biso   1.000  O
  H7       1.0000 0.03200  0.32820  0.55700  Biso   1.000  H
  O20      1.0000 0.88450  0.12990  0.47860  Biso   1.000  O
  O21      1.0000 0.21900  0.58050  0.72170  Biso   1.000  O
  O22      1.0000 0.21330  0.61690  0.89880  Biso   1.000  O
  O23      1.0000 0.23430  0.01120  0.54230  Biso   1.000  O
  O24      1.0000 0.20350  0.09890  0.68990  Biso   1.000  O
  N7       1.0000 0.96170  0.12340  0.90100  Biso   1.000  N
  N8       1.0000 0.83910  0.07160  0.91000  Biso   1.000  N
  H8       1.0000 0.83780  0.00470  0.91720  Biso   1.000  H
  N9       1.0000 0.47570  0.22530  0.56730  Biso   1.000  N
  N10      1.0000 0.59440  0.18750  0.52500  Biso   1.000  N
  H9       1.0000 0.58780  0.13770  0.47710  Biso   1.000  H
  N11      1.0000 0.19170  0.82630  0.85310  Biso   1.000  N
  N12      1.0000 0.19040  0.92320  0.80950  Biso   1.000  N
  C16      1.0000 0.03760  0.30250  0.87590  Biso   1.000  C
  C17      1.0000 0.91860  0.22470  0.89140  Biso   1.000  C
  C18      1.0000 0.76430  0.23360  0.89550  Biso   1.000  C
  H10      1.0000 0.70620  0.29460  0.89140  Biso   1.000  H
  C19      1.0000 0.71430  0.13130  0.90710  Biso   1.000  C
  C20      1.0000 0.55660  0.08880  0.90900  Biso   1.000  C
  C21      1.0000 0.42680  0.35650  0.70030  Biso   1.000  C
  C22      1.0000 0.53240  0.30160  0.63670  Biso   1.000  C
  C23      1.0000 0.68880  0.31260  0.63730  Biso   1.000  C
  H11      1.0000 0.75590  0.36080  0.67700  Biso   1.000  H
  C24      1.0000 0.72200  0.23660  0.56600  Biso   1.000  C
  C25      1.0000 0.87230  0.20950  0.53470  Biso   1.000  C
  C26      1.0000 0.20900  0.64480  0.79860  Biso   1.000  C
  C27      1.0000 0.20220  0.75660  0.77200  Biso   1.000  C
  C28      1.0000 0.21150  0.80860  0.67380  Biso   1.000  C
  H12      1.0000 0.22050  0.78000  0.60520  Biso   1.000  H
  C29      1.0000 0.20390  0.91540  0.70260  Biso   1.000  C
  C30      1.0000 0.21510  0.01050  0.64040  Biso   1.000  C
