data_image0
_cell_length_a       14.6261
_cell_length_b       23.2526
_cell_length_c       15.7357
_cell_angle_alpha    90
_cell_angle_beta     107.099
_cell_angle_gamma    90

_symmetry_space_group_name_H-M    "P 1"
_symmetry_int_tables_number       1

loop_
  _symmetry_equiv_pos_as_xyz
  'x, y, z'

loop_
  _atom_site_label
  _atom_site_occupancy
  _atom_site_fract_x
  _atom_site_fract_y
  _atom_site_fract_z
  _atom_site_thermal_displace_type
  _atom_site_B_iso_or_equiv
  _atom_site_type_symbol
  Cd1      1.0000 0.25727  0.30073  0.69677  Biso   1.000  Cd
  Cd2      1.0000 0.23509  0.43774  0.58374  Biso   1.000  Cd
  C1       1.0000 0.84090  0.29310  0.66070  Biso   1.000  C
  C2       1.0000 0.92950  0.29960  0.72130  Biso   1.000  C
  H1       1.0000 0.94070  0.28580  0.77890  Biso   1.000  H
  C3       1.0000 0.00250  0.32680  0.69670  Biso   1.000  C
  H2       1.0000 0.06250  0.33100  0.73800  Biso   1.000  H
  C4       1.0000 0.98670  0.34770  0.61170  Biso   1.000  C
  C5       1.0000 0.89630  0.34100  0.55130  Biso   1.000  C
  H3       1.0000 0.88460  0.35520  0.49390  Biso   1.000  H
  C6       1.0000 0.82380  0.31370  0.57530  Biso   1.000  C
  H4       1.0000 0.76390  0.30920  0.53410  Biso   1.000  H
  C7       1.0000 0.06230  0.37810  0.58510  Biso   1.000  C
  C8       1.0000 0.78200  0.21140  0.73020  Biso   1.000  C
  C9       1.0000 0.85100  0.17360  0.71790  Biso   1.000  C
  H5       1.0000 0.88820  0.18380  0.68150  Biso   1.000  H
  C10      1.0000 0.86380  0.12040  0.76060  Biso   1.000  C
  H6       1.0000 0.91220  0.09610  0.75500  Biso   1.000  H
  C11      1.0000 0.80660  0.10360  0.81020  Biso   1.000  C
  C12      1.0000 0.73830  0.14110  0.82270  Biso   1.000  C
  H7       1.0000 0.69930  0.12980  0.85690  Biso   1.000  H
  C13      1.0000 0.72750  0.19480  0.78520  Biso   1.000  C
  H8       1.0000 0.68350  0.22030  0.79660  Biso   1.000  H
  C14      1.0000 0.18490  0.54420  0.64950  Biso   1.000  C
  C15      1.0000 0.67520  0.29130  0.66500  Biso   1.000  C
  C16      1.0000 0.66740  0.34940  0.67720  Biso   1.000  C
  H9       1.0000 0.72240  0.37160  0.69800  Biso   1.000  H
  C17      1.0000 0.57930  0.37510  0.65890  Biso   1.000  C
  H10      1.0000 0.57540  0.41450  0.66720  Biso   1.000  H
  C18      1.0000 0.49540  0.34280  0.62780  Biso   1.000  C
  C19      1.0000 0.50370  0.28530  0.61440  Biso   1.000  C
  H11      1.0000 0.44870  0.26310  0.59380  Biso   1.000  H
  C20      1.0000 0.59230  0.25930  0.63070  Biso   1.000  C
  H12      1.0000 0.59630  0.22040  0.61870  Biso   1.000  H
  C21      1.0000 0.39950  0.37140  0.61140  Biso   1.000  C
  C22      1.0000 0.16790  0.48790  0.40080  Biso   1.000  C
  C23      1.0000 0.16590  0.50440  0.30710  Biso   1.000  C
  C24      1.0000 0.08690  0.53310  0.25260  Biso   1.000  C
  H13      1.0000 0.03620  0.54270  0.27440  Biso   1.000  H
  C25      1.0000 0.08280  0.54750  0.16750  Biso   1.000  C
  H14      1.0000 0.02860  0.56580  0.13170  Biso   1.000  H
  C26      1.0000 0.15820  0.53540  0.13330  Biso   1.000  C
  C27      1.0000 0.23800  0.50810  0.18900  Biso   1.000  C
  H15      1.0000 0.29080  0.50110  0.16910  Biso   1.000  H
  C28      1.0000 0.23980  0.49140  0.27330  Biso   1.000  C
  H16      1.0000 0.29210  0.47090  0.30810  Biso   1.000  H
  C29      1.0000 0.18600  0.50680  0.99220  Biso   1.000  C
  C30      1.0000 0.17220  0.44920  0.00340  Biso   1.000  C
  H17      1.0000 0.14360  0.43730  0.04590  Biso   1.000  H
  C31      1.0000 0.20040  0.40900  0.95220  Biso   1.000  C
  H18      1.0000 0.19240  0.37020  0.96210  Biso   1.000  H
  C32      1.0000 0.23980  0.42480  0.88730  Biso   1.000  C
  C33      1.0000 0.25350  0.48220  0.87510  Biso   1.000  C
  H19      1.0000 0.28080  0.49350  0.83130  Biso   1.000  H
  C34      1.0000 0.22720  0.52420  0.92700  Biso   1.000  C
  H20      1.0000 0.23710  0.56300  0.91820  Biso   1.000  H
  C35      1.0000 0.26530  0.38000  0.82680  Biso   1.000  C
  C36      1.0000 0.90880  0.09400  0.50020  Biso   1.000  C
  C37      1.0000 0.97110  0.08610  0.58450  Biso   1.000  C
  H21      1.0000 0.96800  0.05250  0.61570  Biso   1.000  H
  C38      1.0000 0.03810  0.12770  0.62280  Biso   1.000  C
  H22      1.0000 0.07910  0.12170  0.67970  Biso   1.000  H
  C39      1.0000 0.04520  0.17780  0.57850  Biso   1.000  C
  C40      1.0000 0.97810  0.18700  0.49590  Biso   1.000  C
  H23      1.0000 0.97910  0.22130  0.46580  Biso   1.000  H
  C41      1.0000 0.91080  0.14630  0.45860  Biso   1.000  C
  H24      1.0000 0.86570  0.15380  0.40430  Biso   1.000  H
  C42      1.0000 0.12220  0.22050  0.61600  Biso   1.000  C
  N1       1.0000 0.76570  0.26510  0.68640  Biso   1.000  N
  N2       1.0000 0.15450  0.54950  0.04480  Biso   1.000  N
  O1       1.0000 0.04180  0.40498  0.51300  Biso   1.000  O
  O2       1.0000 0.14740  0.37634  0.63690  Biso   1.000  O
  O3       1.0000 0.25880  0.52550  0.63360  Biso   1.000  O
  O4       1.0000 0.10870  0.51699  0.63640  Biso   1.000  O
  O5       1.0000 0.39500  0.42410  0.61210  Biso   1.000  O
  O6       1.0000 0.32620  0.34010  0.59620  Biso   1.000  O
  O7       1.0000 0.22460  0.44970  0.44030  Biso   1.000  O
  O8       1.0000 0.11140  0.51523  0.43370  Biso   1.000  O
  O9       1.0000 0.31260  0.39620  0.77680  Biso   1.000  O
  O10      1.0000 0.23600  0.32930  0.82960  Biso   1.000  O
  O11      1.0000 0.16170  0.22100  0.69800  Biso   1.000  O
  O12      1.0000 0.14800  0.25450  0.56560  Biso   1.000  O
  Cd3      1.0000 0.74273  0.80073  0.80323  Biso   1.000  Cd
  Cd4      1.0000 0.76491  0.93774  0.91626  Biso   1.000  Cd
  C43      1.0000 0.15910  0.79310  0.83930  Biso   1.000  C
  C44      1.0000 0.07050  0.79960  0.77870  Biso   1.000  C
  H25      1.0000 0.05930  0.78580  0.72110  Biso   1.000  H
  C45      1.0000 0.99750  0.82680  0.80330  Biso   1.000  C
  H26      1.0000 0.93750  0.83100  0.76200  Biso   1.000  H
  C46      1.0000 0.01330  0.84770  0.88830  Biso   1.000  C
  C47      1.0000 0.10370  0.84100  0.94870  Biso   1.000  C
  H27      1.0000 0.11540  0.85520  0.00610  Biso   1.000  H
  C48      1.0000 0.17620  0.81370  0.92470  Biso   1.000  C
  H28      1.0000 0.23610  0.80920  0.96590  Biso   1.000  H
  C49      1.0000 0.93770  0.87810  0.91490  Biso   1.000  C
  C50      1.0000 0.21800  0.71140  0.76980  Biso   1.000  C
  C51      1.0000 0.14900  0.67360  0.78210  Biso   1.000  C
  H29      1.0000 0.11180  0.68380  0.81850  Biso   1.000  H
  C52      1.0000 0.13620  0.62040  0.73940  Biso   1.000  C
  H30      1.0000 0.08780  0.59610  0.74500  Biso   1.000  H
  C53      1.0000 0.19340  0.60360  0.68980  Biso   1.000  C
  C54      1.0000 0.26170  0.64110  0.67730  Biso   1.000  C
  H31      1.0000 0.30070  0.62980  0.64310  Biso   1.000  H
  C55      1.0000 0.27250  0.69480  0.71480  Biso   1.000  C
  H32      1.0000 0.31650  0.72030  0.70340  Biso   1.000  H
  C56      1.0000 0.81510  0.04420  0.85050  Biso   1.000  C
  C57      1.0000 0.32480  0.79130  0.83500  Biso   1.000  C
  C58      1.0000 0.33260  0.84940  0.82280  Biso   1.000  C
  H33      1.0000 0.27760  0.87160  0.80200  Biso   1.000  H
  C59      1.0000 0.42070  0.87510  0.84110  Biso   1.000  C
  H34      1.0000 0.42460  0.91450  0.83280  Biso   1.000  H
  C60      1.0000 0.50460  0.84280  0.87220  Biso   1.000  C
  C61      1.0000 0.49630  0.78530  0.88560  Biso   1.000  C
  H35      1.0000 0.55130  0.76310  0.90620  Biso   1.000  H
  C62      1.0000 0.40770  0.75930  0.86930  Biso   1.000  C
  H36      1.0000 0.40370  0.72040  0.88130  Biso   1.000  H
  C63      1.0000 0.60050  0.87140  0.88860  Biso   1.000  C
  C64      1.0000 0.83210  0.98790  0.09920  Biso   1.000  C
  C65      1.0000 0.83410  0.00440  0.19290  Biso   1.000  C
  C66      1.0000 0.91310  0.03310  0.24740  Biso   1.000  C
  H37      1.0000 0.96380  0.04270  0.22560  Biso   1.000  H
  C67      1.0000 0.91720  0.04750  0.33250  Biso   1.000  C
  H38      1.0000 0.97140  0.06580  0.36830  Biso   1.000  H
  C68      1.0000 0.84180  0.03540  0.36670  Biso   1.000  C
  C69      1.0000 0.76200  0.00810  0.31100  Biso   1.000  C
  H39      1.0000 0.70920  0.00110  0.33090  Biso   1.000  H
  C70      1.0000 0.76020  0.99140  0.22670  Biso   1.000  C
  H40      1.0000 0.70790  0.97090  0.19190  Biso   1.000  H
  C71      1.0000 0.81400  0.00680  0.50780  Biso   1.000  C
  C72      1.0000 0.82780  0.94920  0.49660  Biso   1.000  C
  H41      1.0000 0.85640  0.93730  0.45410  Biso   1.000  H
  C73      1.0000 0.79960  0.90900  0.54780  Biso   1.000  C
  H42      1.0000 0.80760  0.87020  0.53790  Biso   1.000  H
  C74      1.0000 0.76020  0.92480  0.61270  Biso   1.000  C
  C75      1.0000 0.74650  0.98220  0.62490  Biso   1.000  C
  H43      1.0000 0.71920  0.99350  0.66870  Biso   1.000  H
  C76      1.0000 0.77280  0.02420  0.57300  Biso   1.000  C
  H44      1.0000 0.76290  0.06300  0.58180  Biso   1.000  H
  C77      1.0000 0.73470  0.88000  0.67320  Biso   1.000  C
  C78      1.0000 0.09120  0.59400  0.99980  Biso   1.000  C
  C79      1.0000 0.02890  0.58610  0.91550  Biso   1.000  C
  H45      1.0000 0.03200  0.55250  0.88430  Biso   1.000  H
  C80      1.0000 0.96190  0.62770  0.87720  Biso   1.000  C
  H46      1.0000 0.92090  0.62170  0.82030  Biso   1.000  H
  C81      1.0000 0.95480  0.67780  0.92150  Biso   1.000  C
  C82      1.0000 0.02190  0.68700  0.00410  Biso   1.000  C
  H47      1.0000 0.02090  0.72130  0.03420  Biso   1.000  H
  C83      1.0000 0.08920  0.64630  0.04140  Biso   1.000  C
  H48      1.0000 0.13430  0.65380  0.09570  Biso   1.000  H
  C84      1.0000 0.87780  0.72050  0.88400  Biso   1.000  C
  N3       1.0000 0.23430  0.76510  0.81360  Biso   1.000  N
  N4       1.0000 0.84550  0.04950  0.45520  Biso   1.000  N
  O13      1.0000 0.95820  0.90498  0.98700  Biso   1.000  O
  O14      1.0000 0.85260  0.87634  0.86310  Biso   1.000  O
  O15      1.0000 0.74120  0.02550  0.86640  Biso   1.000  O
  O16      1.0000 0.89130  0.01699  0.86360  Biso   1.000  O
  O17      1.0000 0.60500  0.92410  0.88790  Biso   1.000  O
  O18      1.0000 0.67380  0.84010  0.90380  Biso   1.000  O
  O19      1.0000 0.77540  0.94970  0.05970  Biso   1.000  O
  O20      1.0000 0.88860  0.01523  0.06630  Biso   1.000  O
  O21      1.0000 0.68740  0.89620  0.72320  Biso   1.000  O
  O22      1.0000 0.76400  0.82930  0.67040  Biso   1.000  O
  O23      1.0000 0.83830  0.72100  0.80200  Biso   1.000  O
  O24      1.0000 0.85200  0.75450  0.93440  Biso   1.000  O
  Cd5      1.0000 0.74273  0.69927  0.30323  Biso   1.000  Cd
  Cd6      1.0000 0.76491  0.56226  0.41626  Biso   1.000  Cd
  C85      1.0000 0.15910  0.70690  0.33930  Biso   1.000  C
  C86      1.0000 0.07050  0.70040  0.27870  Biso   1.000  C
  H49      1.0000 0.05930  0.71420  0.22110  Biso   1.000  H
  C87      1.0000 0.99750  0.67320  0.30330  Biso   1.000  C
  H50      1.0000 0.93750  0.66900  0.26200  Biso   1.000  H
  C88      1.0000 0.01330  0.65230  0.38830  Biso   1.000  C
  C89      1.0000 0.10370  0.65900  0.44870  Biso   1.000  C
  H51      1.0000 0.11540  0.64480  0.50610  Biso   1.000  H
  C90      1.0000 0.17620  0.68630  0.42470  Biso   1.000  C
  H52      1.0000 0.23610  0.69080  0.46590  Biso   1.000  H
  C91      1.0000 0.93770  0.62190  0.41490  Biso   1.000  C
  C92      1.0000 0.21800  0.78860  0.26980  Biso   1.000  C
  C93      1.0000 0.14900  0.82640  0.28210  Biso   1.000  C
  H53      1.0000 0.11180  0.81620  0.31850  Biso   1.000  H
  C94      1.0000 0.13620  0.87960  0.23940  Biso   1.000  C
  H54      1.0000 0.08780  0.90390  0.24500  Biso   1.000  H
  C95      1.0000 0.19340  0.89640  0.18980  Biso   1.000  C
  C96      1.0000 0.26170  0.85890  0.17730  Biso   1.000  C
  H55      1.0000 0.30070  0.87020  0.14310  Biso   1.000  H
  C97      1.0000 0.27250  0.80520  0.21480  Biso   1.000  C
  H56      1.0000 0.31650  0.77970  0.20340  Biso   1.000  H
  C98      1.0000 0.81510  0.45580  0.35050  Biso   1.000  C
  C99      1.0000 0.32480  0.70870  0.33500  Biso   1.000  C
  C100     1.0000 0.33260  0.65060  0.32280  Biso   1.000  C
  H57      1.0000 0.27760  0.62840  0.30200  Biso   1.000  H
  C101     1.0000 0.42070  0.62490  0.34110  Biso   1.000  C
  H58      1.0000 0.42460  0.58550  0.33280  Biso   1.000  H
  C102     1.0000 0.50460  0.65720  0.37220  Biso   1.000  C
  C103     1.0000 0.49630  0.71470  0.38560  Biso   1.000  C
  H59      1.0000 0.55130  0.73690  0.40620  Biso   1.000  H
  C104     1.0000 0.40770  0.74070  0.36930  Biso   1.000  C
  H60      1.0000 0.40370  0.77960  0.38130  Biso   1.000  H
  C105     1.0000 0.60050  0.62860  0.38860  Biso   1.000  C
  C106     1.0000 0.83210  0.51210  0.59920  Biso   1.000  C
  C107     1.0000 0.83410  0.49560  0.69290  Biso   1.000  C
  C108     1.0000 0.91310  0.46690  0.74740  Biso   1.000  C
  H61      1.0000 0.96380  0.45730  0.72560  Biso   1.000  H
  C109     1.0000 0.91720  0.45250  0.83250  Biso   1.000  C
  H62      1.0000 0.97140  0.43420  0.86830  Biso   1.000  H
  C110     1.0000 0.84180  0.46460  0.86670  Biso   1.000  C
  C111     1.0000 0.76200  0.49190  0.81100  Biso   1.000  C
  H63      1.0000 0.70920  0.49890  0.83090  Biso   1.000  H
  C112     1.0000 0.76020  0.50860  0.72670  Biso   1.000  C
  H64      1.0000 0.70790  0.52910  0.69190  Biso   1.000  H
  C113     1.0000 0.81400  0.49320  0.00780  Biso   1.000  C
  C114     1.0000 0.82780  0.55080  0.99660  Biso   1.000  C
  H65      1.0000 0.85640  0.56270  0.95410  Biso   1.000  H
  C115     1.0000 0.79960  0.59100  0.04780  Biso   1.000  C
  H66      1.0000 0.80760  0.62980  0.03790  Biso   1.000  H
  C116     1.0000 0.76020  0.57520  0.11270  Biso   1.000  C
  C117     1.0000 0.74650  0.51780  0.12490  Biso   1.000  C
  H67      1.0000 0.71920  0.50650  0.16870  Biso   1.000  H
  C118     1.0000 0.77280  0.47580  0.07300  Biso   1.000  C
  H68      1.0000 0.76290  0.43700  0.08180  Biso   1.000  H
  C119     1.0000 0.73470  0.62000  0.17320  Biso   1.000  C
  C120     1.0000 0.09120  0.90600  0.49980  Biso   1.000  C
  C121     1.0000 0.02890  0.91390  0.41550  Biso   1.000  C
  H69      1.0000 0.03200  0.94750  0.38430  Biso   1.000  H
  C122     1.0000 0.96190  0.87230  0.37720  Biso   1.000  C
  H70      1.0000 0.92090  0.87830  0.32030  Biso   1.000  H
  C123     1.0000 0.95480  0.82220  0.42150  Biso   1.000  C
  C124     1.0000 0.02190  0.81300  0.50410  Biso   1.000  C
  H71      1.0000 0.02090  0.77870  0.53420  Biso   1.000  H
  C125     1.0000 0.08920  0.85370  0.54140  Biso   1.000  C
  H72      1.0000 0.13430  0.84620  0.59570  Biso   1.000  H
  C126     1.0000 0.87780  0.77950  0.38400  Biso   1.000  C
  N5       1.0000 0.23430  0.73490  0.31360  Biso   1.000  N
  N6       1.0000 0.84550  0.45050  0.95520  Biso   1.000  N
  O25      1.0000 0.95820  0.59502  0.48700  Biso   1.000  O
  O26      1.0000 0.85260  0.62366  0.36310  Biso   1.000  O
  O27      1.0000 0.74120  0.47450  0.36640  Biso   1.000  O
  O28      1.0000 0.89130  0.48301  0.36360  Biso   1.000  O
  O29      1.0000 0.60500  0.57590  0.38790  Biso   1.000  O
  O30      1.0000 0.67380  0.65990  0.40380  Biso   1.000  O
  O31      1.0000 0.77540  0.55030  0.55970  Biso   1.000  O
  O32      1.0000 0.88860  0.48477  0.56630  Biso   1.000  O
  O33      1.0000 0.68740  0.60380  0.22320  Biso   1.000  O
  O34      1.0000 0.76400  0.67070  0.17040  Biso   1.000  O
  O35      1.0000 0.83830  0.77900  0.30200  Biso   1.000  O
  O36      1.0000 0.85200  0.74550  0.43440  Biso   1.000  O
  Cd7      1.0000 0.25727  0.19927  0.19677  Biso   1.000  Cd
  Cd8      1.0000 0.23509  0.06226  0.08374  Biso   1.000  Cd
  C127     1.0000 0.84090  0.20690  0.16070  Biso   1.000  C
  C128     1.0000 0.92950  0.20040  0.22130  Biso   1.000  C
  H73      1.0000 0.94070  0.21420  0.27890  Biso   1.000  H
  C129     1.0000 0.00250  0.17320  0.19670  Biso   1.000  C
  H74      1.0000 0.06250  0.16900  0.23800  Biso   1.000  H
  C130     1.0000 0.98670  0.15230  0.11170  Biso   1.000  C
  C131     1.0000 0.89630  0.15900  0.05130  Biso   1.000  C
  H75      1.0000 0.88460  0.14480  0.99390  Biso   1.000  H
  C132     1.0000 0.82380  0.18630  0.07530  Biso   1.000  C
  H76      1.0000 0.76390  0.19080  0.03410  Biso   1.000  H
  C133     1.0000 0.06230  0.12190  0.08510  Biso   1.000  C
  C134     1.0000 0.78200  0.28860  0.23020  Biso   1.000  C
  C135     1.0000 0.85100  0.32640  0.21790  Biso   1.000  C
  H77      1.0000 0.88820  0.31620  0.18150  Biso   1.000  H
  C136     1.0000 0.86380  0.37960  0.26060  Biso   1.000  C
  H78      1.0000 0.91220  0.40390  0.25500  Biso   1.000  H
  C137     1.0000 0.80660  0.39640  0.31020  Biso   1.000  C
  C138     1.0000 0.73830  0.35890  0.32270  Biso   1.000  C
  H79      1.0000 0.69930  0.37020  0.35690  Biso   1.000  H
  C139     1.0000 0.72750  0.30520  0.28520  Biso   1.000  C
  H80      1.0000 0.68350  0.27970  0.29660  Biso   1.000  H
  C140     1.0000 0.18490  0.95580  0.14950  Biso   1.000  C
  C141     1.0000 0.67520  0.20870  0.16500  Biso   1.000  C
  C142     1.0000 0.66740  0.15060  0.17720  Biso   1.000  C
  H81      1.0000 0.72240  0.12840  0.19800  Biso   1.000  H
  C143     1.0000 0.57930  0.12490  0.15890  Biso   1.000  C
  H82      1.0000 0.57540  0.08550  0.16720  Biso   1.000  H
  C144     1.0000 0.49540  0.15720  0.12780  Biso   1.000  C
  C145     1.0000 0.50370  0.21470  0.11440  Biso   1.000  C
  H83      1.0000 0.44870  0.23690  0.09380  Biso   1.000  H
  C146     1.0000 0.59230  0.24070  0.13070  Biso   1.000  C
  H84      1.0000 0.59630  0.27960  0.11870  Biso   1.000  H
  C147     1.0000 0.39950  0.12860  0.11140  Biso   1.000  C
  C148     1.0000 0.16790  0.01210  0.90080  Biso   1.000  C
  C149     1.0000 0.16590  0.99560  0.80710  Biso   1.000  C
  C150     1.0000 0.08690  0.96690  0.75260  Biso   1.000  C
  H85      1.0000 0.03620  0.95730  0.77440  Biso   1.000  H
  C151     1.0000 0.08280  0.95250  0.66750  Biso   1.000  C
  H86      1.0000 0.02860  0.93420  0.63170  Biso   1.000  H
  C152     1.0000 0.15820  0.96460  0.63330  Biso   1.000  C
  C153     1.0000 0.23800  0.99190  0.68900  Biso   1.000  C
  H87      1.0000 0.29080  0.99890  0.66910  Biso   1.000  H
  C154     1.0000 0.23980  0.00860  0.77330  Biso   1.000  C
  H88      1.0000 0.29210  0.02910  0.80810  Biso   1.000  H
  C155     1.0000 0.18600  0.99320  0.49220  Biso   1.000  C
  C156     1.0000 0.17220  0.05080  0.50340  Biso   1.000  C
  H89      1.0000 0.14360  0.06270  0.54590  Biso   1.000  H
  C157     1.0000 0.20040  0.09100  0.45220  Biso   1.000  C
  H90      1.0000 0.19240  0.12980  0.46210  Biso   1.000  H
  C158     1.0000 0.23980  0.07520  0.38730  Biso   1.000  C
  C159     1.0000 0.25350  0.01780  0.37510  Biso   1.000  C
  H91      1.0000 0.28080  0.00650  0.33130  Biso   1.000  H
  C160     1.0000 0.22720  0.97580  0.42700  Biso   1.000  C
  H92      1.0000 0.23710  0.93700  0.41820  Biso   1.000  H
  C161     1.0000 0.26530  0.12000  0.32680  Biso   1.000  C
  C162     1.0000 0.90880  0.40600  0.00020  Biso   1.000  C
  C163     1.0000 0.97110  0.41390  0.08450  Biso   1.000  C
  H93      1.0000 0.96800  0.44750  0.11570  Biso   1.000  H
  C164     1.0000 0.03810  0.37230  0.12280  Biso   1.000  C
  H94      1.0000 0.07910  0.37830  0.17970  Biso   1.000  H
  C165     1.0000 0.04520  0.32220  0.07850  Biso   1.000  C
  C166     1.0000 0.97810  0.31300  0.99590  Biso   1.000  C
  H95      1.0000 0.97910  0.27870  0.96580  Biso   1.000  H
  C167     1.0000 0.91080  0.35370  0.95860  Biso   1.000  C
  H96      1.0000 0.86570  0.34620  0.90430  Biso   1.000  H
  C168     1.0000 0.12220  0.27950  0.11600  Biso   1.000  C
  N7       1.0000 0.76570  0.23490  0.18640  Biso   1.000  N
  N8       1.0000 0.15450  0.95050  0.54480  Biso   1.000  N
  O37      1.0000 0.04180  0.09502  0.01300  Biso   1.000  O
  O38      1.0000 0.14740  0.12366  0.13690  Biso   1.000  O
  O39      1.0000 0.25880  0.97450  0.13360  Biso   1.000  O
  O40      1.0000 0.10870  0.98301  0.13640  Biso   1.000  O
  O41      1.0000 0.39500  0.07590  0.11210  Biso   1.000  O
  O42      1.0000 0.32620  0.15990  0.09620  Biso   1.000  O
  O43      1.0000 0.22460  0.05030  0.94030  Biso   1.000  O
  O44      1.0000 0.11140  0.98477  0.93370  Biso   1.000  O
  O45      1.0000 0.31260  0.10380  0.27680  Biso   1.000  O
  O46      1.0000 0.23600  0.17070  0.32960  Biso   1.000  O
  O47      1.0000 0.16170  0.27900  0.19800  Biso   1.000  O
  O48      1.0000 0.14800  0.24550  0.06560  Biso   1.000  O
  Cd9      1.0000 0.00000  0.50000  0.50000  Biso   1.000  Cd
  Cd10     1.0000 0.00000  0.00000  0.00000  Biso   1.000  Cd
