data_image0
_cell_length_a       14.708
_cell_length_b       15.429
_cell_length_c       23.084
_cell_angle_alpha    84.282
_cell_angle_beta     82.619
_cell_angle_gamma    86.756

_symmetry_space_group_name_H-M    "P 1"
_symmetry_int_tables_number       1

loop_
  _symmetry_equiv_pos_as_xyz
  'x, y, z'

loop_
  _atom_site_label
  _atom_site_occupancy
  _atom_site_fract_x
  _atom_site_fract_y
  _atom_site_fract_z
  _atom_site_thermal_displace_type
  _atom_site_B_iso_or_equiv
  _atom_site_type_symbol
  C1       1.0000 0.96440  0.03630  0.21000  Biso   1.000  C
  C2       1.0000 0.04050  0.00050  0.16990  Biso   1.000  C
  C3       1.0000 0.12910  0.02620  0.17110  Biso   1.000  C
  H1       1.0000 0.13980  0.06440  0.19790  Biso   1.000  H
  C4       1.0000 0.02680  0.94350  0.12940  Biso   1.000  C
  H2       1.0000 0.96800  0.92550  0.12770  Biso   1.000  H
  C5       1.0000 0.09900  0.91300  0.09140  Biso   1.000  C
  H3       1.0000 0.08880  0.87420  0.06480  Biso   1.000  H
  C6       1.0000 0.20170  0.99620  0.13310  Biso   1.000  C
  H4       1.0000 0.26070  0.01380  0.13470  Biso   1.000  H
  C7       1.0000 0.18640  0.94000  0.09280  Biso   1.000  C
  C8       1.0000 0.25210  0.87540  0.00600  Biso   1.000  C
  C9       1.0000 0.20670  0.92100  0.96340  Biso   1.000  C
  H5       1.0000 0.18140  0.97660  0.96880  Biso   1.000  H
  C10      1.0000 0.29190  0.79460  0.99830  Biso   1.000  C
  H6       1.0000 0.32390  0.76480  0.02690  Biso   1.000  H
  C11      1.0000 0.19900  0.88370  0.91290  Biso   1.000  C
  H7       1.0000 0.16790  0.91430  0.88410  Biso   1.000  H
  C12      1.0000 0.28350  0.75830  0.94720  Biso   1.000  C
  H8       1.0000 0.31030  0.70320  0.94180  Biso   1.000  H
  C13      1.0000 0.23700  0.80070  0.90410  Biso   1.000  C
  C14      1.0000 0.22580  0.76050  0.84890  Biso   1.000  C
  C15      1.0000 0.78240  0.92160  0.35930  Biso   1.000  C
  C16      1.0000 0.75210  0.93450  0.42210  Biso   1.000  C
  C17      1.0000 0.67610  0.98940  0.43610  Biso   1.000  C
  H9       1.0000 0.64550  0.01820  0.40640  Biso   1.000  H
  C18      1.0000 0.79660  0.89190  0.46590  Biso   1.000  C
  H10      1.0000 0.84640  0.85370  0.45670  Biso   1.000  H
  C19      1.0000 0.64610  0.00130  0.49400  Biso   1.000  C
  H11      1.0000 0.59440  0.03700  0.50350  Biso   1.000  H
  C20      1.0000 0.76770  0.90520  0.52420  Biso   1.000  C
  H12      1.0000 0.79870  0.87740  0.55400  Biso   1.000  H
  C21      1.0000 0.69220  0.96060  0.53710  Biso   1.000  C
  C22      1.0000 0.60290  0.03450  0.61280  Biso   1.000  C
  C23      1.0000 0.62070  0.12090  0.59930  Biso   1.000  C
  H13      1.0000 0.67460  0.13670  0.57600  Biso   1.000  H
  C24      1.0000 0.52540  0.00960  0.64610  Biso   1.000  C
  H14      1.0000 0.51400  0.95080  0.65490  Biso   1.000  H
  C25      1.0000 0.55880  0.18460  0.62030  Biso   1.000  C
  H15      1.0000 0.57130  0.24310  0.61140  Biso   1.000  H
  C26      1.0000 0.47800  0.16110  0.65440  Biso   1.000  C
  C27      1.0000 0.46200  0.07380  0.66710  Biso   1.000  C
  H16      1.0000 0.40810  0.05710  0.69010  Biso   1.000  H
  C28      1.0000 0.41160  0.22810  0.68110  Biso   1.000  C
  C29      1.0000 0.74790  0.83520  0.12490  Biso   1.000  C
  C30      1.0000 0.71940  0.82950  0.06560  Biso   1.000  C
  C31      1.0000 0.78470  0.83410  0.01650  Biso   1.000  C
  H17      1.0000 0.84540  0.84380  0.02040  Biso   1.000  H
  C32      1.0000 0.62870  0.81870  0.05930  Biso   1.000  C
  H18      1.0000 0.58450  0.81670  0.09200  Biso   1.000  H
  C33      1.0000 0.76050  0.82460  0.96220  Biso   1.000  C
  H19      1.0000 0.80470  0.82510  0.92950  Biso   1.000  H
  C34      1.0000 0.60330  0.81080  0.00460  Biso   1.000  C
  H20      1.0000 0.54240  0.80330  0.00000  Biso   1.000  H
  C35      1.0000 0.67040  0.81440  0.95680  Biso   1.000  C
  C36      1.0000 0.57450  0.83440  0.87930  Biso   1.000  C
  C37      1.0000 0.53870  0.91650  0.89120  Biso   1.000  C
  H21      1.0000 0.56350  0.94770  0.91750  Biso   1.000  H
  C38      1.0000 0.53820  0.78750  0.84090  Biso   1.000  C
  H22      1.0000 0.56220  0.73180  0.83400  Biso   1.000  H
  C39      1.0000 0.46580  0.95100  0.86340  Biso   1.000  C
  H23      1.0000 0.44010  0.00540  0.87200  Biso   1.000  H
  C40      1.0000 0.46670  0.82330  0.81270  Biso   1.000  C
  H24      1.0000 0.44220  0.79180  0.78650  Biso   1.000  H
  C41      1.0000 0.42990  0.90690  0.82300  Biso   1.000  C
  C42      1.0000 0.35190  0.94360  0.79200  Biso   1.000  C
  C43      1.0000 0.91080  0.72510  0.21660  Biso   1.000  C
  C44      1.0000 0.98220  0.66350  0.18870  Biso   1.000  C
  C45      1.0000 0.07120  0.68640  0.18140  Biso   1.000  C
  H25      1.0000 0.08590  0.73980  0.19230  Biso   1.000  H
  C46      1.0000 0.96120  0.58600  0.17160  Biso   1.000  C
  H26      1.0000 0.90050  0.56980  0.17630  Biso   1.000  H
  C47      1.0000 0.14020  0.63050  0.15770  Biso   1.000  C
  H27      1.0000 0.20130  0.64530  0.15410  Biso   1.000  H
  C48      1.0000 0.03090  0.53080  0.14690  Biso   1.000  C
  H28      1.0000 0.01700  0.47760  0.13530  Biso   1.000  H
  C49      1.0000 0.11840  0.55510  0.14000  Biso   1.000  C
  C50      1.0000 0.20450  0.48640  0.06120  Biso   1.000  C
  C51      1.0000 0.17380  0.54480  0.01900  Biso   1.000  C
  H29      1.0000 0.13910  0.59440  0.02940  Biso   1.000  H
  C52      1.0000 0.25720  0.41450  0.04640  Biso   1.000  C
  H30      1.0000 0.27870  0.37500  0.07520  Biso   1.000  H
  C53      1.0000 0.19430  0.52990  0.96070  Biso   1.000  C
  H31      1.0000 0.17240  0.56940  0.93200  Biso   1.000  H
  C54      1.0000 0.27790  0.40160  0.98800  Biso   1.000  C
  H32      1.0000 0.31460  0.35300  0.97780  Biso   1.000  H
  C55      1.0000 0.24670  0.45730  0.94440  Biso   1.000  C
  C56      1.0000 0.27080  0.43770  0.88210  Biso   1.000  C
  C57      1.0000 0.70510  0.50760  0.33590  Biso   1.000  C
  C58      1.0000 0.70320  0.55330  0.38930  Biso   1.000  C
  C59      1.0000 0.75690  0.62470  0.38980  Biso   1.000  C
  H33      1.0000 0.79640  0.64250  0.35650  Biso   1.000  H
  C60      1.0000 0.64550  0.52770  0.43900  Biso   1.000  C
  H34      1.0000 0.60950  0.48010  0.43920  Biso   1.000  H
  C61      1.0000 0.75230  0.66920  0.43870  Biso   1.000  C
  H35      1.0000 0.78860  0.71660  0.43870  Biso   1.000  H
  C62      1.0000 0.64050  0.57220  0.48870  Biso   1.000  C
  H36      1.0000 0.60160  0.55440  0.52230  Biso   1.000  H
  C63      1.0000 0.69360  0.64280  0.48770  Biso   1.000  C
  C64      1.0000 0.60730  0.71030  0.56620  Biso   1.000  C
  C65      1.0000 0.59350  0.69370  0.62540  Biso   1.000  C
  H37      1.0000 0.64080  0.66900  0.64560  Biso   1.000  H
  C66      1.0000 0.53950  0.74890  0.53650  Biso   1.000  C
  H38      1.0000 0.54990  0.76060  0.49590  Biso   1.000  H
  C67      1.0000 0.50910  0.71380  0.65550  Biso   1.000  C
  H39      1.0000 0.49960  0.70120  0.69600  Biso   1.000  H
  C68      1.0000 0.45440  0.77110  0.56660  Biso   1.000  C
  H40      1.0000 0.40820  0.79860  0.54660  Biso   1.000  H
  C69      1.0000 0.43990  0.75120  0.62740  Biso   1.000  C
  C70      1.0000 0.34710  0.77120  0.65880  Biso   1.000  C
  C71      1.0000 0.51840  0.48170  0.23810  Biso   1.000  C
  C72      1.0000 0.42410  0.49760  0.26770  Biso   1.000  C
  C73      1.0000 0.41250  0.54220  0.31800  Biso   1.000  C
  H41      1.0000 0.46230  0.56750  0.32950  Biso   1.000  H
  C74      1.0000 0.34980  0.46280  0.25060  Biso   1.000  C
  H42      1.0000 0.35740  0.43200  0.21760  Biso   1.000  H
  C75      1.0000 0.32780  0.54920  0.35040  Biso   1.000  C
  H43      1.0000 0.32070  0.57760  0.38450  Biso   1.000  H
  C76      1.0000 0.26420  0.47250  0.28090  Biso   1.000  C
  H44      1.0000 0.21380  0.45160  0.26710  Biso   1.000  H
  C77      1.0000 0.25250  0.51350  0.33220  Biso   1.000  C
  C78      1.0000 0.09980  0.47370  0.35460  Biso   1.000  C
  C79      1.0000 0.03400  0.51870  0.32600  Biso   1.000  C
  H45      1.0000 0.03450  0.57910  0.31890  Biso   1.000  H
  C80      1.0000 0.09590  0.38650  0.37050  Biso   1.000  C
  H46      1.0000 0.13890  0.35820  0.39290  Biso   1.000  H
  C81      1.0000 0.96660  0.47290  0.30770  Biso   1.000  C
  H47      1.0000 0.92180  0.50240  0.28730  Biso   1.000  H
  C82      1.0000 0.02870  0.34080  0.35350  Biso   1.000  C
  H48      1.0000 0.02510  0.28140  0.36470  Biso   1.000  H
  C83      1.0000 0.96560  0.38350  0.31940  Biso   1.000  C
  C84      1.0000 0.89970  0.33270  0.29450  Biso   1.000  C
  Nd1      1.0000 0.81455  0.13019  0.28154  Biso   1.000  Nd
  Nd2      1.0000 0.78876  0.88006  0.23844  Biso   1.000  Nd
  Nd3      1.0000 0.66772  0.66493  0.22696  Biso   1.000  Nd
  Nd4      1.0000 0.70391  0.40303  0.23495  Biso   1.000  Nd
  O1       1.0000 0.97650  0.09840  0.23803  Biso   1.000  O
  O2       1.0000 0.88570  0.00170  0.21591  Biso   1.000  O
  O3       1.0000 0.26350  0.91200  0.05755  Biso   1.000  O
  O4       1.0000 0.17490  0.79700  0.81441  Biso   1.000  O
  O5       1.0000 0.27020  0.68860  0.84134  Biso   1.000  O
  O6       1.0000 0.75710  0.97940  0.31968  Biso   1.000  O
  O7       1.0000 0.82730  0.85480  0.34410  Biso   1.000  O
  O8       1.0000 0.66680  0.96910  0.59626  Biso   1.000  O
  O9       1.0000 0.43190  0.30570  0.67774  Biso   1.000  O
  O10      1.0000 0.33630  0.20320  0.71070  Biso   1.000  O
  O11      1.0000 0.82060  0.87080  0.12981  Biso   1.000  O
  O12      1.0000 0.69620  0.80490  0.17037  Biso   1.000  O
  O13      1.0000 0.65140  0.79790  0.90180  Biso   1.000  O
  O14      1.0000 0.32210  0.01990  0.80001  Biso   1.000  O
  O15      1.0000 0.32160  0.89770  0.75750  Biso   1.000  O
  O16      1.0000 0.93380  0.79600  0.22995  Biso   1.000  O
  O17      1.0000 0.82690  0.70550  0.22502  Biso   1.000  O
  O18      1.0000 0.18830  0.49580  0.12040  Biso   1.000  O
  O19      1.0000 0.24580  0.49110  0.84200  Biso   1.000  O
  O20      1.0000 0.31480  0.36870  0.87168  Biso   1.000  O
  O21      1.0000 0.73720  0.54670  0.28647  Biso   1.000  O
  O22      1.0000 0.67460  0.43270  0.33939  Biso   1.000  O
  O23      1.0000 0.69340  0.68860  0.53650  Biso   1.000  O
  O24      1.0000 0.32510  0.73450  0.71016  Biso   1.000  O
  O25      1.0000 0.29370  0.82610  0.63542  Biso   1.000  O
  O26      1.0000 0.58080  0.53350  0.24100  Biso   1.000  O
  O27      1.0000 0.53840  0.41130  0.21423  Biso   1.000  O
  O28      1.0000 0.17200  0.52110  0.36830  Biso   1.000  O
  O29      1.0000 0.85050  0.37490  0.25770  Biso   1.000  O
  O30      1.0000 0.89330  0.25250  0.30818  Biso   1.000  O
  C85      1.0000 0.03560  0.96370  0.79000  Biso   1.000  C
  C86      1.0000 0.95950  0.99950  0.83010  Biso   1.000  C
  C87      1.0000 0.87090  0.97380  0.82890  Biso   1.000  C
  H49      1.0000 0.86020  0.93560  0.80210  Biso   1.000  H
  C88      1.0000 0.97320  0.05650  0.87060  Biso   1.000  C
  H50      1.0000 0.03200  0.07450  0.87230  Biso   1.000  H
  C89      1.0000 0.90100  0.08700  0.90860  Biso   1.000  C
  H51      1.0000 0.91120  0.12580  0.93520  Biso   1.000  H
  C90      1.0000 0.79830  0.00380  0.86690  Biso   1.000  C
  H52      1.0000 0.73930  0.98620  0.86530  Biso   1.000  H
  C91      1.0000 0.81360  0.06000  0.90720  Biso   1.000  C
  C92      1.0000 0.74790  0.12460  0.99400  Biso   1.000  C
  C93      1.0000 0.79330  0.07900  0.03660  Biso   1.000  C
  H53      1.0000 0.81860  0.02340  0.03120  Biso   1.000  H
  C94      1.0000 0.70810  0.20540  0.00170  Biso   1.000  C
  H54      1.0000 0.67610  0.23520  0.97310  Biso   1.000  H
  C95      1.0000 0.80100  0.11630  0.08710  Biso   1.000  C
  H55      1.0000 0.83210  0.08570  0.11590  Biso   1.000  H
  C96      1.0000 0.71650  0.24170  0.05280  Biso   1.000  C
  H56      1.0000 0.68970  0.29680  0.05820  Biso   1.000  H
  C97      1.0000 0.76300  0.19930  0.09590  Biso   1.000  C
  C98      1.0000 0.77420  0.23950  0.15110  Biso   1.000  C
  C99      1.0000 0.21760  0.07840  0.64070  Biso   1.000  C
  C100     1.0000 0.24790  0.06550  0.57790  Biso   1.000  C
  C101     1.0000 0.32390  0.01060  0.56390  Biso   1.000  C
  H57      1.0000 0.35450  0.98180  0.59360  Biso   1.000  H
  C102     1.0000 0.20340  0.10810  0.53410  Biso   1.000  C
  H58      1.0000 0.15360  0.14630  0.54330  Biso   1.000  H
  C103     1.0000 0.35390  0.99870  0.50600  Biso   1.000  C
  H59      1.0000 0.40560  0.96300  0.49650  Biso   1.000  H
  C104     1.0000 0.23230  0.09480  0.47580  Biso   1.000  C
  H60      1.0000 0.20130  0.12260  0.44600  Biso   1.000  H
  C105     1.0000 0.30780  0.03940  0.46290  Biso   1.000  C
  C106     1.0000 0.39710  0.96550  0.38720  Biso   1.000  C
  C107     1.0000 0.37930  0.87910  0.40070  Biso   1.000  C
  H61      1.0000 0.32540  0.86330  0.42400  Biso   1.000  H
  C108     1.0000 0.47460  0.99040  0.35390  Biso   1.000  C
  H62      1.0000 0.48600  0.04920  0.34510  Biso   1.000  H
  C109     1.0000 0.44120  0.81540  0.37970  Biso   1.000  C
  H63      1.0000 0.42870  0.75690  0.38860  Biso   1.000  H
  C110     1.0000 0.52200  0.83890  0.34560  Biso   1.000  C
  C111     1.0000 0.53800  0.92620  0.33290  Biso   1.000  C
  H64      1.0000 0.59190  0.94290  0.30990  Biso   1.000  H
  C112     1.0000 0.58840  0.77190  0.31890  Biso   1.000  C
  C113     1.0000 0.25210  0.16480  0.87510  Biso   1.000  C
  C114     1.0000 0.28060  0.17050  0.93440  Biso   1.000  C
  C115     1.0000 0.21530  0.16590  0.98350  Biso   1.000  C
  H65      1.0000 0.15460  0.15620  0.97960  Biso   1.000  H
  C116     1.0000 0.37130  0.18130  0.94070  Biso   1.000  C
  H66      1.0000 0.41550  0.18330  0.90800  Biso   1.000  H
  C117     1.0000 0.23950  0.17540  0.03780  Biso   1.000  C
  H67      1.0000 0.19530  0.17490  0.07050  Biso   1.000  H
  C118     1.0000 0.39670  0.18920  0.99540  Biso   1.000  C
  H68      1.0000 0.45760  0.19670  0.00000  Biso   1.000  H
  C119     1.0000 0.32960  0.18560  0.04320  Biso   1.000  C
  C120     1.0000 0.42550  0.16560  0.12070  Biso   1.000  C
  C121     1.0000 0.46130  0.08350  0.10880  Biso   1.000  C
  H69      1.0000 0.43650  0.05230  0.08250  Biso   1.000  H
  C122     1.0000 0.46180  0.21250  0.15910  Biso   1.000  C
  H70      1.0000 0.43780  0.26820  0.16600  Biso   1.000  H
  C123     1.0000 0.53420  0.04900  0.13660  Biso   1.000  C
  H71      1.0000 0.55990  0.99460  0.12800  Biso   1.000  H
  C124     1.0000 0.53330  0.17670  0.18730  Biso   1.000  C
  H72      1.0000 0.55780  0.20820  0.21350  Biso   1.000  H
  C125     1.0000 0.57010  0.09310  0.17700  Biso   1.000  C
  C126     1.0000 0.64810  0.05640  0.20800  Biso   1.000  C
  C127     1.0000 0.08920  0.27490  0.78340  Biso   1.000  C
  C128     1.0000 0.01780  0.33650  0.81130  Biso   1.000  C
  C129     1.0000 0.92880  0.31360  0.81860  Biso   1.000  C
  H73      1.0000 0.91410  0.26020  0.80770  Biso   1.000  H
  C130     1.0000 0.03880  0.41400  0.82840  Biso   1.000  C
  H74      1.0000 0.09950  0.43020  0.82370  Biso   1.000  H
  C131     1.0000 0.85980  0.36950  0.84230  Biso   1.000  C
  H75      1.0000 0.79870  0.35470  0.84590  Biso   1.000  H
  C132     1.0000 0.96910  0.46920  0.85310  Biso   1.000  C
  H76      1.0000 0.98300  0.52240  0.86470  Biso   1.000  H
  C133     1.0000 0.88160  0.44490  0.86000  Biso   1.000  C
  C134     1.0000 0.79550  0.51360  0.93880  Biso   1.000  C
  C135     1.0000 0.82620  0.45520  0.98100  Biso   1.000  C
  H77      1.0000 0.86090  0.40560  0.97060  Biso   1.000  H
  C136     1.0000 0.74280  0.58550  0.95360  Biso   1.000  C
  H78      1.0000 0.72130  0.62500  0.92480  Biso   1.000  H
  C137     1.0000 0.80570  0.47010  0.03930  Biso   1.000  C
  H79      1.0000 0.82760  0.43060  0.06800  Biso   1.000  H
  C138     1.0000 0.72210  0.59840  0.01200  Biso   1.000  C
  H80      1.0000 0.68540  0.64700  0.02220  Biso   1.000  H
  C139     1.0000 0.75330  0.54270  0.05560  Biso   1.000  C
  C140     1.0000 0.72920  0.56230  0.11790  Biso   1.000  C
  C141     1.0000 0.29490  0.49240  0.66410  Biso   1.000  C
  C142     1.0000 0.29680  0.44670  0.61070  Biso   1.000  C
  C143     1.0000 0.24310  0.37530  0.61020  Biso   1.000  C
  H81      1.0000 0.20360  0.35750  0.64350  Biso   1.000  H
  C144     1.0000 0.35450  0.47230  0.56100  Biso   1.000  C
  H82      1.0000 0.39050  0.51990  0.56080  Biso   1.000  H
  C145     1.0000 0.24770  0.33080  0.56130  Biso   1.000  C
  H83      1.0000 0.21140  0.28340  0.56130  Biso   1.000  H
  C146     1.0000 0.35950  0.42780  0.51130  Biso   1.000  C
  H84      1.0000 0.39840  0.44560  0.47770  Biso   1.000  H
  C147     1.0000 0.30640  0.35720  0.51230  Biso   1.000  C
  C148     1.0000 0.39270  0.28970  0.43380  Biso   1.000  C
  C149     1.0000 0.40650  0.30630  0.37460  Biso   1.000  C
  H85      1.0000 0.35920  0.33100  0.35440  Biso   1.000  H
  C150     1.0000 0.46050  0.25110  0.46350  Biso   1.000  C
  H86      1.0000 0.45010  0.23940  0.50410  Biso   1.000  H
  C151     1.0000 0.49090  0.28620  0.34450  Biso   1.000  C
  H87      1.0000 0.50040  0.29880  0.30400  Biso   1.000  H
  C152     1.0000 0.54560  0.22890  0.43340  Biso   1.000  C
  H88      1.0000 0.59180  0.20140  0.45340  Biso   1.000  H
  C153     1.0000 0.56010  0.24880  0.37260  Biso   1.000  C
  C154     1.0000 0.65290  0.22880  0.34120  Biso   1.000  C
  C155     1.0000 0.48160  0.51830  0.76190  Biso   1.000  C
  C156     1.0000 0.57590  0.50240  0.73230  Biso   1.000  C
  C157     1.0000 0.58750  0.45780  0.68200  Biso   1.000  C
  H89      1.0000 0.53770  0.43250  0.67050  Biso   1.000  H
  C158     1.0000 0.65020  0.53720  0.74940  Biso   1.000  C
  H90      1.0000 0.64260  0.56800  0.78240  Biso   1.000  H
  C159     1.0000 0.67220  0.45080  0.64960  Biso   1.000  C
  H91      1.0000 0.67930  0.42240  0.61550  Biso   1.000  H
  C160     1.0000 0.73580  0.52750  0.71910  Biso   1.000  C
  H92      1.0000 0.78620  0.54840  0.73290  Biso   1.000  H
  C161     1.0000 0.74750  0.48650  0.66780  Biso   1.000  C
  C162     1.0000 0.90020  0.52630  0.64540  Biso   1.000  C
  C163     1.0000 0.96600  0.48130  0.67400  Biso   1.000  C
  H93      1.0000 0.96550  0.42090  0.68110  Biso   1.000  H
  C164     1.0000 0.90410  0.61350  0.62950  Biso   1.000  C
  H94      1.0000 0.86110  0.64180  0.60710  Biso   1.000  H
  C165     1.0000 0.03340  0.52710  0.69230  Biso   1.000  C
  H95      1.0000 0.07820  0.49760  0.71270  Biso   1.000  H
  C166     1.0000 0.97130  0.65920  0.64650  Biso   1.000  C
  H96      1.0000 0.97490  0.71860  0.63530  Biso   1.000  H
  C167     1.0000 0.03440  0.61650  0.68060  Biso   1.000  C
  C168     1.0000 0.10030  0.66730  0.70550  Biso   1.000  C
  Nd5      1.0000 0.18545  0.86981  0.71846  Biso   1.000  Nd
  Nd6      1.0000 0.21124  0.11994  0.76156  Biso   1.000  Nd
  Nd7      1.0000 0.33228  0.33507  0.77304  Biso   1.000  Nd
  Nd8      1.0000 0.29609  0.59697  0.76505  Biso   1.000  Nd
  O31      1.0000 0.02350  0.90160  0.76197  Biso   1.000  O
  O32      1.0000 0.11430  0.99830  0.78409  Biso   1.000  O
  O33      1.0000 0.73650  0.08800  0.94245  Biso   1.000  O
  O34      1.0000 0.82510  0.20300  0.18559  Biso   1.000  O
  O35      1.0000 0.72980  0.31140  0.15866  Biso   1.000  O
  O36      1.0000 0.24290  0.02060  0.68032  Biso   1.000  O
  O37      1.0000 0.17270  0.14520  0.65590  Biso   1.000  O
  O38      1.0000 0.33320  0.03090  0.40374  Biso   1.000  O
  O39      1.0000 0.56810  0.69430  0.32226  Biso   1.000  O
  O40      1.0000 0.66370  0.79680  0.28930  Biso   1.000  O
  O41      1.0000 0.17940  0.12920  0.87019  Biso   1.000  O
  O42      1.0000 0.30380  0.19510  0.82963  Biso   1.000  O
  O43      1.0000 0.34860  0.20210  0.09820  Biso   1.000  O
  O44      1.0000 0.67790  0.98010  0.19999  Biso   1.000  O
  O45      1.0000 0.67840  0.10230  0.24250  Biso   1.000  O
  O46      1.0000 0.06620  0.20400  0.77005  Biso   1.000  O
  O47      1.0000 0.17310  0.29450  0.77498  Biso   1.000  O
  O48      1.0000 0.81170  0.50420  0.87960  Biso   1.000  O
  O49      1.0000 0.75420  0.50890  0.15800  Biso   1.000  O
  O50      1.0000 0.68520  0.63130  0.12832  Biso   1.000  O
  O51      1.0000 0.26280  0.45330  0.71353  Biso   1.000  O
  O52      1.0000 0.32540  0.56730  0.66061  Biso   1.000  O
  O53      1.0000 0.30660  0.31140  0.46350  Biso   1.000  O
  O54      1.0000 0.67490  0.26550  0.28984  Biso   1.000  O
  O55      1.0000 0.70630  0.17390  0.36458  Biso   1.000  O
  O56      1.0000 0.41920  0.46650  0.75900  Biso   1.000  O
  O57      1.0000 0.46160  0.58870  0.78577  Biso   1.000  O
  O58      1.0000 0.82800  0.47890  0.63170  Biso   1.000  O
  O59      1.0000 0.14950  0.62510  0.74230  Biso   1.000  O
  O60      1.0000 0.10670  0.74750  0.69182  Biso   1.000  O
