data_image0
_cell_length_a       20.447
_cell_length_b       20.447
_cell_length_c       20.447
_cell_angle_alpha    90
_cell_angle_beta     90
_cell_angle_gamma    90

_symmetry_space_group_name_H-M    "P 1"
_symmetry_int_tables_number       1

loop_
  _symmetry_equiv_pos_as_xyz
  'x, y, z'

loop_
  _atom_site_label
  _atom_site_occupancy
  _atom_site_fract_x
  _atom_site_fract_y
  _atom_site_fract_z
  _atom_site_thermal_displace_type
  _atom_site_B_iso_or_equiv
  _atom_site_type_symbol
  O1       1.0000 0.69486  0.33408  0.41910  Biso   1.000  O
  O2       1.0000 0.78645  0.27963  0.43750  Biso   1.000  O
  C1       1.0000 0.73530  0.28810  0.40550  Biso   1.000  C
  C2       1.0000 0.71900  0.24450  0.34880  Biso   1.000  C
  C3       1.0000 0.75850  0.19020  0.33500  Biso   1.000  C
  H1       1.0000 0.79380  0.18030  0.36180  Biso   1.000  H
  O3       1.0000 0.19486  0.83408  0.91910  Biso   1.000  O
  O4       1.0000 0.28645  0.77963  0.93750  Biso   1.000  O
  C4       1.0000 0.23530  0.78810  0.90550  Biso   1.000  C
  C5       1.0000 0.21900  0.74450  0.84880  Biso   1.000  C
  C6       1.0000 0.25850  0.69020  0.83500  Biso   1.000  C
  H2       1.0000 0.29380  0.68030  0.86180  Biso   1.000  H
  O5       1.0000 0.80514  0.66592  0.91910  Biso   1.000  O
  O6       1.0000 0.71355  0.72037  0.93750  Biso   1.000  O
  C7       1.0000 0.76470  0.71190  0.90550  Biso   1.000  C
  C8       1.0000 0.78100  0.75550  0.84880  Biso   1.000  C
  C9       1.0000 0.74150  0.80980  0.83500  Biso   1.000  C
  H3       1.0000 0.70620  0.81970  0.86180  Biso   1.000  H
  O7       1.0000 0.30514  0.16592  0.41910  Biso   1.000  O
  O8       1.0000 0.21355  0.22037  0.43750  Biso   1.000  O
  C10      1.0000 0.26470  0.21190  0.40550  Biso   1.000  C
  C11      1.0000 0.28100  0.25550  0.34880  Biso   1.000  C
  C12      1.0000 0.24150  0.30980  0.33500  Biso   1.000  C
  H4       1.0000 0.20620  0.31970  0.36180  Biso   1.000  H
  O9       1.0000 0.30514  0.83408  0.08090  Biso   1.000  O
  O10      1.0000 0.21355  0.77963  0.06250  Biso   1.000  O
  C13      1.0000 0.26470  0.78810  0.09450  Biso   1.000  C
  C14      1.0000 0.28100  0.74450  0.15120  Biso   1.000  C
  C15      1.0000 0.24150  0.69020  0.16500  Biso   1.000  C
  H5       1.0000 0.20620  0.68030  0.13820  Biso   1.000  H
  O11      1.0000 0.80514  0.33408  0.58090  Biso   1.000  O
  O12      1.0000 0.71355  0.27963  0.56250  Biso   1.000  O
  C16      1.0000 0.76470  0.28810  0.59450  Biso   1.000  C
  C17      1.0000 0.78100  0.24450  0.65120  Biso   1.000  C
  C18      1.0000 0.74150  0.19020  0.66500  Biso   1.000  C
  H6       1.0000 0.70620  0.18030  0.63820  Biso   1.000  H
  O13      1.0000 0.19486  0.16592  0.58090  Biso   1.000  O
  O14      1.0000 0.28645  0.22037  0.56250  Biso   1.000  O
  C19      1.0000 0.23530  0.21190  0.59450  Biso   1.000  C
  C20      1.0000 0.21900  0.25550  0.65120  Biso   1.000  C
  C21      1.0000 0.25850  0.30980  0.66500  Biso   1.000  C
  H7       1.0000 0.29380  0.31970  0.63820  Biso   1.000  H
  O15      1.0000 0.69486  0.66592  0.08090  Biso   1.000  O
  O16      1.0000 0.78645  0.72037  0.06250  Biso   1.000  O
  C22      1.0000 0.73530  0.71190  0.09450  Biso   1.000  C
  C23      1.0000 0.71900  0.75550  0.15120  Biso   1.000  C
  C24      1.0000 0.75850  0.80980  0.16500  Biso   1.000  C
  H8       1.0000 0.79380  0.81970  0.13820  Biso   1.000  H
  O17      1.0000 0.41910  0.69486  0.33408  Biso   1.000  O
  O18      1.0000 0.43750  0.78645  0.27963  Biso   1.000  O
  C25      1.0000 0.40550  0.73530  0.28810  Biso   1.000  C
  C26      1.0000 0.34880  0.71900  0.24450  Biso   1.000  C
  C27      1.0000 0.33500  0.75850  0.19020  Biso   1.000  C
  H9       1.0000 0.36180  0.79380  0.18030  Biso   1.000  H
  O19      1.0000 0.91910  0.19486  0.83408  Biso   1.000  O
  O20      1.0000 0.93750  0.28645  0.77963  Biso   1.000  O
  C28      1.0000 0.90550  0.23530  0.78810  Biso   1.000  C
  C29      1.0000 0.84880  0.21900  0.74450  Biso   1.000  C
  C30      1.0000 0.83500  0.25850  0.69020  Biso   1.000  C
  H10      1.0000 0.86180  0.29380  0.68030  Biso   1.000  H
  O21      1.0000 0.91910  0.80514  0.66592  Biso   1.000  O
  O22      1.0000 0.93750  0.71355  0.72037  Biso   1.000  O
  C31      1.0000 0.90550  0.76470  0.71190  Biso   1.000  C
  C32      1.0000 0.84880  0.78100  0.75550  Biso   1.000  C
  C33      1.0000 0.83500  0.74150  0.80980  Biso   1.000  C
  H11      1.0000 0.86180  0.70620  0.81970  Biso   1.000  H
  O23      1.0000 0.41910  0.30514  0.16592  Biso   1.000  O
  O24      1.0000 0.43750  0.21355  0.22037  Biso   1.000  O
  C34      1.0000 0.40550  0.26470  0.21190  Biso   1.000  C
  C35      1.0000 0.34880  0.28100  0.25550  Biso   1.000  C
  C36      1.0000 0.33500  0.24150  0.30980  Biso   1.000  C
  H12      1.0000 0.36180  0.20620  0.31970  Biso   1.000  H
  O25      1.0000 0.08090  0.30514  0.83408  Biso   1.000  O
  O26      1.0000 0.06250  0.21355  0.77963  Biso   1.000  O
  C37      1.0000 0.09450  0.26470  0.78810  Biso   1.000  C
  C38      1.0000 0.15120  0.28100  0.74450  Biso   1.000  C
  C39      1.0000 0.16500  0.24150  0.69020  Biso   1.000  C
  H13      1.0000 0.13820  0.20620  0.68030  Biso   1.000  H
  O27      1.0000 0.58090  0.80514  0.33408  Biso   1.000  O
  O28      1.0000 0.56250  0.71355  0.27963  Biso   1.000  O
  C40      1.0000 0.59450  0.76470  0.28810  Biso   1.000  C
  C41      1.0000 0.65120  0.78100  0.24450  Biso   1.000  C
  C42      1.0000 0.66500  0.74150  0.19020  Biso   1.000  C
  H14      1.0000 0.63820  0.70620  0.18030  Biso   1.000  H
  O29      1.0000 0.58090  0.19486  0.16592  Biso   1.000  O
  O30      1.0000 0.56250  0.28645  0.22037  Biso   1.000  O
  C43      1.0000 0.59450  0.23530  0.21190  Biso   1.000  C
  C44      1.0000 0.65120  0.21900  0.25550  Biso   1.000  C
  C45      1.0000 0.66500  0.25850  0.30980  Biso   1.000  C
  H15      1.0000 0.63820  0.29380  0.31970  Biso   1.000  H
  O31      1.0000 0.08090  0.69486  0.66592  Biso   1.000  O
  O32      1.0000 0.06250  0.78645  0.72037  Biso   1.000  O
  C46      1.0000 0.09450  0.73530  0.71190  Biso   1.000  C
  C47      1.0000 0.15120  0.71900  0.75550  Biso   1.000  C
  C48      1.0000 0.16500  0.75850  0.80980  Biso   1.000  C
  H16      1.0000 0.13820  0.79380  0.81970  Biso   1.000  H
  O33      1.0000 0.33408  0.41910  0.69486  Biso   1.000  O
  O34      1.0000 0.27963  0.43750  0.78645  Biso   1.000  O
  C49      1.0000 0.28810  0.40550  0.73530  Biso   1.000  C
  C50      1.0000 0.24450  0.34880  0.71900  Biso   1.000  C
  C51      1.0000 0.19020  0.33500  0.75850  Biso   1.000  C
  H17      1.0000 0.18030  0.36180  0.79380  Biso   1.000  H
  O35      1.0000 0.83408  0.91910  0.19486  Biso   1.000  O
  O36      1.0000 0.77963  0.93750  0.28645  Biso   1.000  O
  C52      1.0000 0.78810  0.90550  0.23530  Biso   1.000  C
  C53      1.0000 0.74450  0.84880  0.21900  Biso   1.000  C
  C54      1.0000 0.69020  0.83500  0.25850  Biso   1.000  C
  H18      1.0000 0.68030  0.86180  0.29380  Biso   1.000  H
  O37      1.0000 0.66592  0.91910  0.80514  Biso   1.000  O
  O38      1.0000 0.72037  0.93750  0.71355  Biso   1.000  O
  C55      1.0000 0.71190  0.90550  0.76470  Biso   1.000  C
  C56      1.0000 0.75550  0.84880  0.78100  Biso   1.000  C
  C57      1.0000 0.80980  0.83500  0.74150  Biso   1.000  C
  H19      1.0000 0.81970  0.86180  0.70620  Biso   1.000  H
  O39      1.0000 0.16592  0.41910  0.30514  Biso   1.000  O
  O40      1.0000 0.22037  0.43750  0.21355  Biso   1.000  O
  C58      1.0000 0.21190  0.40550  0.26470  Biso   1.000  C
  C59      1.0000 0.25550  0.34880  0.28100  Biso   1.000  C
  C60      1.0000 0.30980  0.33500  0.24150  Biso   1.000  C
  H20      1.0000 0.31970  0.36180  0.20620  Biso   1.000  H
  O41      1.0000 0.83408  0.08090  0.30514  Biso   1.000  O
  O42      1.0000 0.77963  0.06250  0.21355  Biso   1.000  O
  C61      1.0000 0.78810  0.09450  0.26470  Biso   1.000  C
  C62      1.0000 0.74450  0.15120  0.28100  Biso   1.000  C
  C63      1.0000 0.69020  0.16500  0.24150  Biso   1.000  C
  H21      1.0000 0.68030  0.13820  0.20620  Biso   1.000  H
  O43      1.0000 0.33408  0.58090  0.80514  Biso   1.000  O
  O44      1.0000 0.27963  0.56250  0.71355  Biso   1.000  O
  C64      1.0000 0.28810  0.59450  0.76470  Biso   1.000  C
  C65      1.0000 0.24450  0.65120  0.78100  Biso   1.000  C
  C66      1.0000 0.19020  0.66500  0.74150  Biso   1.000  C
  H22      1.0000 0.18030  0.63820  0.70620  Biso   1.000  H
  O45      1.0000 0.16592  0.58090  0.19486  Biso   1.000  O
  O46      1.0000 0.22037  0.56250  0.28645  Biso   1.000  O
  C67      1.0000 0.21190  0.59450  0.23530  Biso   1.000  C
  C68      1.0000 0.25550  0.65120  0.21900  Biso   1.000  C
  C69      1.0000 0.30980  0.66500  0.25850  Biso   1.000  C
  H23      1.0000 0.31970  0.63820  0.29380  Biso   1.000  H
  O47      1.0000 0.66592  0.08090  0.69486  Biso   1.000  O
  O48      1.0000 0.72037  0.06250  0.78645  Biso   1.000  O
  C70      1.0000 0.71190  0.09450  0.73530  Biso   1.000  C
  C71      1.0000 0.75550  0.15120  0.71900  Biso   1.000  C
  C72      1.0000 0.80980  0.16500  0.75850  Biso   1.000  C
  H24      1.0000 0.81970  0.13820  0.79380  Biso   1.000  H
  O49      1.0000 0.58408  0.94486  0.66910  Biso   1.000  O
  O50      1.0000 0.52963  0.03645  0.68750  Biso   1.000  O
  C73      1.0000 0.53810  0.98530  0.65550  Biso   1.000  C
  C74      1.0000 0.49450  0.96900  0.59880  Biso   1.000  C
  C75      1.0000 0.44020  0.00850  0.58500  Biso   1.000  C
  H25      1.0000 0.43030  0.04380  0.61180  Biso   1.000  H
  O51      1.0000 0.08408  0.44486  0.16910  Biso   1.000  O
  O52      1.0000 0.02963  0.53645  0.18750  Biso   1.000  O
  C76      1.0000 0.03810  0.48530  0.15550  Biso   1.000  C
  C77      1.0000 0.99450  0.46900  0.09880  Biso   1.000  C
  C78      1.0000 0.94020  0.50850  0.08500  Biso   1.000  C
  H26      1.0000 0.93030  0.54380  0.11180  Biso   1.000  H
  O53      1.0000 0.91592  0.05514  0.16910  Biso   1.000  O
  O54      1.0000 0.97037  0.96355  0.18750  Biso   1.000  O
  C79      1.0000 0.96190  0.01470  0.15550  Biso   1.000  C
  C80      1.0000 0.00550  0.03100  0.09880  Biso   1.000  C
  C81      1.0000 0.05980  0.99150  0.08500  Biso   1.000  C
  H27      1.0000 0.06970  0.95620  0.11180  Biso   1.000  H
  O55      1.0000 0.41592  0.55514  0.66910  Biso   1.000  O
  O56      1.0000 0.47037  0.46355  0.68750  Biso   1.000  O
  C82      1.0000 0.46190  0.51470  0.65550  Biso   1.000  C
  C83      1.0000 0.50550  0.53100  0.59880  Biso   1.000  C
  C84      1.0000 0.55980  0.49150  0.58500  Biso   1.000  C
  H28      1.0000 0.56970  0.45620  0.61180  Biso   1.000  H
  O57      1.0000 0.08408  0.55514  0.33090  Biso   1.000  O
  O58      1.0000 0.02963  0.46355  0.31250  Biso   1.000  O
  C85      1.0000 0.03810  0.51470  0.34450  Biso   1.000  C
  C86      1.0000 0.99450  0.53100  0.40120  Biso   1.000  C
  C87      1.0000 0.94020  0.49150  0.41500  Biso   1.000  C
  H29      1.0000 0.93030  0.45620  0.38820  Biso   1.000  H
  O59      1.0000 0.58408  0.05514  0.83090  Biso   1.000  O
  O60      1.0000 0.52963  0.96355  0.81250  Biso   1.000  O
  C88      1.0000 0.53810  0.01470  0.84450  Biso   1.000  C
  C89      1.0000 0.49450  0.03100  0.90120  Biso   1.000  C
  C90      1.0000 0.44020  0.99150  0.91500  Biso   1.000  C
  H30      1.0000 0.43030  0.95620  0.88820  Biso   1.000  H
  O61      1.0000 0.41592  0.44486  0.83090  Biso   1.000  O
  O62      1.0000 0.47037  0.53645  0.81250  Biso   1.000  O
  C91      1.0000 0.46190  0.48530  0.84450  Biso   1.000  C
  C92      1.0000 0.50550  0.46900  0.90120  Biso   1.000  C
  C93      1.0000 0.55980  0.50850  0.91500  Biso   1.000  C
  H31      1.0000 0.56970  0.54380  0.88820  Biso   1.000  H
  O63      1.0000 0.91592  0.94486  0.33090  Biso   1.000  O
  O64      1.0000 0.97037  0.03645  0.31250  Biso   1.000  O
  C94      1.0000 0.96190  0.98530  0.34450  Biso   1.000  C
  C95      1.0000 0.00550  0.96900  0.40120  Biso   1.000  C
  C96      1.0000 0.05980  0.00850  0.41500  Biso   1.000  C
  H32      1.0000 0.06970  0.04380  0.38820  Biso   1.000  H
  O65      1.0000 0.94486  0.66910  0.58408  Biso   1.000  O
  O66      1.0000 0.03645  0.68750  0.52963  Biso   1.000  O
  C97      1.0000 0.98530  0.65550  0.53810  Biso   1.000  C
  C98      1.0000 0.96900  0.59880  0.49450  Biso   1.000  C
  C99      1.0000 0.00850  0.58500  0.44020  Biso   1.000  C
  H33      1.0000 0.04380  0.61180  0.43030  Biso   1.000  H
  O67      1.0000 0.44486  0.16910  0.08408  Biso   1.000  O
  O68      1.0000 0.53645  0.18750  0.02963  Biso   1.000  O
  C100     1.0000 0.48530  0.15550  0.03810  Biso   1.000  C
  C101     1.0000 0.46900  0.09880  0.99450  Biso   1.000  C
  C102     1.0000 0.50850  0.08500  0.94020  Biso   1.000  C
  H34      1.0000 0.54380  0.11180  0.93030  Biso   1.000  H
  O69      1.0000 0.05514  0.16910  0.91592  Biso   1.000  O
  O70      1.0000 0.96355  0.18750  0.97037  Biso   1.000  O
  C103     1.0000 0.01470  0.15550  0.96190  Biso   1.000  C
  C104     1.0000 0.03100  0.09880  0.00550  Biso   1.000  C
  C105     1.0000 0.99150  0.08500  0.05980  Biso   1.000  C
  H35      1.0000 0.95620  0.11180  0.06970  Biso   1.000  H
  O71      1.0000 0.55514  0.66910  0.41592  Biso   1.000  O
  O72      1.0000 0.46355  0.68750  0.47037  Biso   1.000  O
  C106     1.0000 0.51470  0.65550  0.46190  Biso   1.000  C
  C107     1.0000 0.53100  0.59880  0.50550  Biso   1.000  C
  C108     1.0000 0.49150  0.58500  0.55980  Biso   1.000  C
  H36      1.0000 0.45620  0.61180  0.56970  Biso   1.000  H
  O73      1.0000 0.55514  0.33090  0.08408  Biso   1.000  O
  O74      1.0000 0.46355  0.31250  0.02963  Biso   1.000  O
  C109     1.0000 0.51470  0.34450  0.03810  Biso   1.000  C
  C110     1.0000 0.53100  0.40120  0.99450  Biso   1.000  C
  C111     1.0000 0.49150  0.41500  0.94020  Biso   1.000  C
  H37      1.0000 0.45620  0.38820  0.93030  Biso   1.000  H
  O75      1.0000 0.05514  0.83090  0.58408  Biso   1.000  O
  O76      1.0000 0.96355  0.81250  0.52963  Biso   1.000  O
  C112     1.0000 0.01470  0.84450  0.53810  Biso   1.000  C
  C113     1.0000 0.03100  0.90120  0.49450  Biso   1.000  C
  C114     1.0000 0.99150  0.91500  0.44020  Biso   1.000  C
  H38      1.0000 0.95620  0.88820  0.43030  Biso   1.000  H
  O77      1.0000 0.44486  0.83090  0.41592  Biso   1.000  O
  O78      1.0000 0.53645  0.81250  0.47037  Biso   1.000  O
  C115     1.0000 0.48530  0.84450  0.46190  Biso   1.000  C
  C116     1.0000 0.46900  0.90120  0.50550  Biso   1.000  C
  C117     1.0000 0.50850  0.91500  0.55980  Biso   1.000  C
  H39      1.0000 0.54380  0.88820  0.56970  Biso   1.000  H
  O79      1.0000 0.94486  0.33090  0.91592  Biso   1.000  O
  O80      1.0000 0.03645  0.31250  0.97037  Biso   1.000  O
  C118     1.0000 0.98530  0.34450  0.96190  Biso   1.000  C
  C119     1.0000 0.96900  0.40120  0.00550  Biso   1.000  C
  C120     1.0000 0.00850  0.41500  0.05980  Biso   1.000  C
  H40      1.0000 0.04380  0.38820  0.06970  Biso   1.000  H
  O81      1.0000 0.66910  0.58408  0.94486  Biso   1.000  O
  O82      1.0000 0.68750  0.52963  0.03645  Biso   1.000  O
  C121     1.0000 0.65550  0.53810  0.98530  Biso   1.000  C
  C122     1.0000 0.59880  0.49450  0.96900  Biso   1.000  C
  C123     1.0000 0.58500  0.44020  0.00850  Biso   1.000  C
  H41      1.0000 0.61180  0.43030  0.04380  Biso   1.000  H
  O83      1.0000 0.16910  0.08408  0.44486  Biso   1.000  O
  O84      1.0000 0.18750  0.02963  0.53645  Biso   1.000  O
  C124     1.0000 0.15550  0.03810  0.48530  Biso   1.000  C
  C125     1.0000 0.09880  0.99450  0.46900  Biso   1.000  C
  C126     1.0000 0.08500  0.94020  0.50850  Biso   1.000  C
  H42      1.0000 0.11180  0.93030  0.54380  Biso   1.000  H
  O85      1.0000 0.16910  0.91592  0.05514  Biso   1.000  O
  O86      1.0000 0.18750  0.97037  0.96355  Biso   1.000  O
  C127     1.0000 0.15550  0.96190  0.01470  Biso   1.000  C
  C128     1.0000 0.09880  0.00550  0.03100  Biso   1.000  C
  C129     1.0000 0.08500  0.05980  0.99150  Biso   1.000  C
  H43      1.0000 0.11180  0.06970  0.95620  Biso   1.000  H
  O87      1.0000 0.66910  0.41592  0.55514  Biso   1.000  O
  O88      1.0000 0.68750  0.47037  0.46355  Biso   1.000  O
  C130     1.0000 0.65550  0.46190  0.51470  Biso   1.000  C
  C131     1.0000 0.59880  0.50550  0.53100  Biso   1.000  C
  C132     1.0000 0.58500  0.55980  0.49150  Biso   1.000  C
  H44      1.0000 0.61180  0.56970  0.45620  Biso   1.000  H
  O89      1.0000 0.33090  0.08408  0.55514  Biso   1.000  O
  O90      1.0000 0.31250  0.02963  0.46355  Biso   1.000  O
  C133     1.0000 0.34450  0.03810  0.51470  Biso   1.000  C
  C134     1.0000 0.40120  0.99450  0.53100  Biso   1.000  C
  C135     1.0000 0.41500  0.94020  0.49150  Biso   1.000  C
  H45      1.0000 0.38820  0.93030  0.45620  Biso   1.000  H
  O91      1.0000 0.83090  0.58408  0.05514  Biso   1.000  O
  O92      1.0000 0.81250  0.52963  0.96355  Biso   1.000  O
  C136     1.0000 0.84450  0.53810  0.01470  Biso   1.000  C
  C137     1.0000 0.90120  0.49450  0.03100  Biso   1.000  C
  C138     1.0000 0.91500  0.44020  0.99150  Biso   1.000  C
  H46      1.0000 0.88820  0.43030  0.95620  Biso   1.000  H
  O93      1.0000 0.83090  0.41592  0.44486  Biso   1.000  O
  O94      1.0000 0.81250  0.47037  0.53645  Biso   1.000  O
  C139     1.0000 0.84450  0.46190  0.48530  Biso   1.000  C
  C140     1.0000 0.90120  0.50550  0.46900  Biso   1.000  C
  C141     1.0000 0.91500  0.55980  0.50850  Biso   1.000  C
  H47      1.0000 0.88820  0.56970  0.54380  Biso   1.000  H
  O95      1.0000 0.33090  0.91592  0.94486  Biso   1.000  O
  O96      1.0000 0.31250  0.97037  0.03645  Biso   1.000  O
  C142     1.0000 0.34450  0.96190  0.98530  Biso   1.000  C
  C143     1.0000 0.40120  0.00550  0.96900  Biso   1.000  C
  C144     1.0000 0.41500  0.05980  0.00850  Biso   1.000  C
  H48      1.0000 0.38820  0.06970  0.04380  Biso   1.000  H
  In1      1.0000 0.75000  0.37500  0.50000  Biso   1.000  In
  In2      1.0000 0.75000  0.62500  0.00000  Biso   1.000  In
  In3      1.0000 0.25000  0.87500  0.00000  Biso   1.000  In
  In4      1.0000 0.25000  0.12500  0.50000  Biso   1.000  In
  In5      1.0000 0.50000  0.75000  0.37500  Biso   1.000  In
  In6      1.0000 0.00000  0.75000  0.62500  Biso   1.000  In
  In7      1.0000 0.00000  0.25000  0.87500  Biso   1.000  In
  In8      1.0000 0.50000  0.25000  0.12500  Biso   1.000  In
  In9      1.0000 0.37500  0.50000  0.75000  Biso   1.000  In
  In10     1.0000 0.62500  0.00000  0.75000  Biso   1.000  In
  In11     1.0000 0.87500  0.00000  0.25000  Biso   1.000  In
  In12     1.0000 0.12500  0.50000  0.25000  Biso   1.000  In
