data_image0
_cell_length_a       11.6692
_cell_length_b       12.2365
_cell_length_c       13.6586
_cell_angle_alpha    65.229
_cell_angle_beta     67.518
_cell_angle_gamma    88.435

_symmetry_space_group_name_H-M    "P 1"
_symmetry_int_tables_number       1

loop_
  _symmetry_equiv_pos_as_xyz
  'x, y, z'

loop_
  _atom_site_label
  _atom_site_occupancy
  _atom_site_fract_x
  _atom_site_fract_y
  _atom_site_fract_z
  _atom_site_thermal_displace_type
  _atom_site_B_iso_or_equiv
  _atom_site_type_symbol
  Eu1      1.0000 0.43318  0.33010  0.32575  Biso   1.000  Eu
  O1       1.0000 0.47680  0.53120  0.30920  Biso   1.000  O
  O2       1.0000 0.53740  0.68900  0.32030  Biso   1.000  O
  O3       1.0000 0.43450  0.65590  0.55690  Biso   1.000  O
  O4       1.0000 0.48260  0.83150  0.55100  Biso   1.000  O
  O5       1.0000 0.49730  0.80020  0.77910  Biso   1.000  O
  O6       1.0000 0.55500  0.62900  0.87160  Biso   1.000  O
  O7       1.0000 0.14200  0.16570  0.31910  Biso   1.000  O
  O8       1.0000 0.26550  0.17310  0.40490  Biso   1.000  O
  O9       1.0000 0.26680  0.44230  0.29420  Biso   1.000  O
  O10      1.0000 0.08270  0.36710  0.31290  Biso   1.000  O
  H1       1.0000 0.12250  0.31530  0.29860  Biso   1.000  H
  O11      1.0000 0.71660  0.54840  0.42300  Biso   1.000  O
  O12      1.0000 0.71070  0.69180  0.48160  Biso   1.000  O
  C1       1.0000 0.50910  0.64360  0.26450  Biso   1.000  C
  C2       1.0000 0.50750  0.72650  0.14730  Biso   1.000  C
  C3       1.0000 0.50390  0.85200  0.11840  Biso   1.000  C
  H2       1.0000 0.50160  0.87900  0.17330  Biso   1.000  H
  C4       1.0000 0.50350  0.93530  0.01280  Biso   1.000  C
  C5       1.0000 0.50960  0.89130  0.93240  Biso   1.000  C
  H3       1.0000 0.51220  0.94560  0.85910  Biso   1.000  H
  C6       1.0000 0.51190  0.76780  0.95790  Biso   1.000  C
  C7       1.0000 0.52070  0.72910  0.86550  Biso   1.000  C
  C8       1.0000 0.51050  0.68500  0.06630  Biso   1.000  C
  H4       1.0000 0.51150  0.60300  0.08410  Biso   1.000  H
  C9       1.0000 0.42400  0.76880  0.52810  Biso   1.000  C
  C10      1.0000 0.33560  0.82190  0.47080  Biso   1.000  C
  C11      1.0000 0.31800  0.94180  0.44290  Biso   1.000  C
  H5       1.0000 0.36470  0.99100  0.45550  Biso   1.000  H
  C12      1.0000 0.23080  0.98870  0.39620  Biso   1.000  C
  C13      1.0000 0.21130  0.11900  0.37120  Biso   1.000  C
  C14      1.0000 0.16190  0.91660  0.37660  Biso   1.000  C
  H6       1.0000 0.10260  0.94850  0.34680  Biso   1.000  H
  C15      1.0000 0.17970  0.79750  0.40060  Biso   1.000  C
  C16      1.0000 0.26570  0.75000  0.45010  Biso   1.000  C
  H7       1.0000 0.27640  0.66910  0.46950  Biso   1.000  H
  C17      1.0000 0.10600  0.71670  0.38180  Biso   1.000  C
  C18      1.0000 0.97770  0.71800  0.40670  Biso   1.000  C
  H8       1.0000 0.93750  0.77470  0.43080  Biso   1.000  H
  C19      1.0000 0.91040  0.63560  0.39590  Biso   1.000  C
  C20      1.0000 0.76880  0.62690  0.43590  Biso   1.000  C
  C21      1.0000 0.96830  0.55010  0.35940  Biso   1.000  C
  H9       1.0000 0.92260  0.49600  0.35100  Biso   1.000  H
  C22      1.0000 0.09430  0.54600  0.33580  Biso   1.000  C
  C23      1.0000 0.15590  0.44610  0.31100  Biso   1.000  C
  C24      1.0000 0.16380  0.62970  0.34540  Biso   1.000  C
  H10      1.0000 0.24890  0.62790  0.32750  Biso   1.000  H
  Eu2      1.0000 0.56682  0.66990  0.67425  Biso   1.000  Eu
  O13      1.0000 0.52320  0.46880  0.69080  Biso   1.000  O
  O14      1.0000 0.46260  0.31100  0.67970  Biso   1.000  O
  O15      1.0000 0.56550  0.34410  0.44310  Biso   1.000  O
  O16      1.0000 0.51740  0.16850  0.44900  Biso   1.000  O
  O17      1.0000 0.50270  0.19980  0.22090  Biso   1.000  O
  O18      1.0000 0.44500  0.37100  0.12840  Biso   1.000  O
  O19      1.0000 0.85800  0.83430  0.68090  Biso   1.000  O
  O20      1.0000 0.73450  0.82690  0.59510  Biso   1.000  O
  O21      1.0000 0.73320  0.55770  0.70580  Biso   1.000  O
  O22      1.0000 0.91730  0.63290  0.68710  Biso   1.000  O
  H11      1.0000 0.87750  0.68470  0.70140  Biso   1.000  H
  O23      1.0000 0.28340  0.45160  0.57700  Biso   1.000  O
  O24      1.0000 0.28930  0.30820  0.51840  Biso   1.000  O
  C25      1.0000 0.49090  0.35640  0.73550  Biso   1.000  C
  C26      1.0000 0.49250  0.27350  0.85270  Biso   1.000  C
  C27      1.0000 0.49610  0.14800  0.88160  Biso   1.000  C
  H12      1.0000 0.49840  0.12100  0.82670  Biso   1.000  H
  C28      1.0000 0.49650  0.06470  0.98720  Biso   1.000  C
  C29      1.0000 0.49040  0.10870  0.06760  Biso   1.000  C
  H13      1.0000 0.48780  0.05440  0.14090  Biso   1.000  H
  C30      1.0000 0.48810  0.23220  0.04210  Biso   1.000  C
  C31      1.0000 0.47930  0.27090  0.13450  Biso   1.000  C
  C32      1.0000 0.48950  0.31500  0.93370  Biso   1.000  C
  H14      1.0000 0.48850  0.39700  0.91590  Biso   1.000  H
  C33      1.0000 0.57600  0.23120  0.47190  Biso   1.000  C
  C34      1.0000 0.66440  0.17810  0.52920  Biso   1.000  C
  C35      1.0000 0.68200  0.05820  0.55710  Biso   1.000  C
  H15      1.0000 0.63530  0.00900  0.54450  Biso   1.000  H
  C36      1.0000 0.76920  0.01130  0.60380  Biso   1.000  C
  C37      1.0000 0.78870  0.88100  0.62880  Biso   1.000  C
  C38      1.0000 0.83810  0.08340  0.62340  Biso   1.000  C
  H16      1.0000 0.89740  0.05150  0.65320  Biso   1.000  H
  C39      1.0000 0.82030  0.20250  0.59940  Biso   1.000  C
  C40      1.0000 0.73430  0.25000  0.54990  Biso   1.000  C
  H17      1.0000 0.72360  0.33090  0.53050  Biso   1.000  H
  C41      1.0000 0.89400  0.28330  0.61820  Biso   1.000  C
  C42      1.0000 0.02230  0.28200  0.59330  Biso   1.000  C
  H18      1.0000 0.06250  0.22530  0.56920  Biso   1.000  H
  C43      1.0000 0.08960  0.36440  0.60410  Biso   1.000  C
  C44      1.0000 0.23120  0.37310  0.56410  Biso   1.000  C
  C45      1.0000 0.03170  0.44990  0.64060  Biso   1.000  C
  H19      1.0000 0.07740  0.50400  0.64900  Biso   1.000  H
  C46      1.0000 0.90570  0.45400  0.66420  Biso   1.000  C
  C47      1.0000 0.84410  0.55390  0.68900  Biso   1.000  C
  C48      1.0000 0.83620  0.37030  0.65460  Biso   1.000  C
  H20      1.0000 0.75110  0.37210  0.67250  Biso   1.000  H
  Eu3      1.0000 0.50000  0.50000  0.50000  Biso   1.000  Eu
