data_image0
_cell_length_a       27.3
_cell_length_b       27.3
_cell_length_c       15.123
_cell_angle_alpha    90
_cell_angle_beta     90
_cell_angle_gamma    120

_symmetry_space_group_name_H-M    "P 1"
_symmetry_int_tables_number       1

loop_
  _symmetry_equiv_pos_as_xyz
  'x, y, z'

loop_
  _atom_site_label
  _atom_site_occupancy
  _atom_site_fract_x
  _atom_site_fract_y
  _atom_site_fract_z
  _atom_site_thermal_displace_type
  _atom_site_B_iso_or_equiv
  _atom_site_type_symbol
  S1       1.0000 0.28010  0.22700  0.05000  Biso   1.000  S
  O1       1.0000 0.37990  0.31930  0.19430  Biso   1.000  O
  O2       1.0000 0.33600  0.26610  0.31600  Biso   1.000  O
  C1       1.0000 0.33820  0.21800  0.19290  Biso   1.000  C
  C2       1.0000 0.31510  0.19600  0.10840  Biso   1.000  C
  C3       1.0000 0.35430  0.18780  0.24400  Biso   1.000  C
  C4       1.0000 0.34800  0.27190  0.23400  Biso   1.000  C
  H1       1.0000 0.37284  0.20710  0.30699  Biso   1.000  H
  S2       1.0000 0.94677  0.56033  0.38333  Biso   1.000  S
  O3       1.0000 0.04657  0.65263  0.52763  Biso   1.000  O
  O4       1.0000 0.00267  0.59943  0.64933  Biso   1.000  O
  C5       1.0000 0.00487  0.55133  0.52623  Biso   1.000  C
  C6       1.0000 0.98177  0.52933  0.44173  Biso   1.000  C
  C7       1.0000 0.02097  0.52113  0.57733  Biso   1.000  C
  C8       1.0000 0.01467  0.60523  0.56733  Biso   1.000  C
  H2       1.0000 0.03951  0.54044  0.64032  Biso   1.000  H
  S3       1.0000 0.61343  0.89367  0.71667  Biso   1.000  S
  O5       1.0000 0.71323  0.98597  0.86097  Biso   1.000  O
  O6       1.0000 0.66933  0.93277  0.98267  Biso   1.000  O
  C9       1.0000 0.67153  0.88467  0.85957  Biso   1.000  C
  C10      1.0000 0.64843  0.86267  0.77507  Biso   1.000  C
  C11      1.0000 0.68763  0.85447  0.91067  Biso   1.000  C
  C12      1.0000 0.68133  0.93857  0.90067  Biso   1.000  C
  H3       1.0000 0.70618  0.87377  0.97365  Biso   1.000  H
  S4       1.0000 0.77300  0.05310  0.05000  Biso   1.000  S
  O7       1.0000 0.68070  0.06060  0.19430  Biso   1.000  O
  O8       1.0000 0.73390  0.06990  0.31600  Biso   1.000  O
  C13      1.0000 0.78200  0.12020  0.19290  Biso   1.000  C
  C14      1.0000 0.80400  0.11910  0.10840  Biso   1.000  C
  C15      1.0000 0.81220  0.16650  0.24400  Biso   1.000  C
  C16      1.0000 0.72810  0.07610  0.23400  Biso   1.000  C
  H4       1.0000 0.79290  0.16574  0.30699  Biso   1.000  H
  S5       1.0000 0.43967  0.38643  0.38333  Biso   1.000  S
  O9       1.0000 0.34737  0.39393  0.52763  Biso   1.000  O
  O10      1.0000 0.40057  0.40323  0.64933  Biso   1.000  O
  C17      1.0000 0.44867  0.45353  0.52623  Biso   1.000  C
  C18      1.0000 0.47067  0.45243  0.44173  Biso   1.000  C
  C19      1.0000 0.47887  0.49983  0.57733  Biso   1.000  C
  C20      1.0000 0.39477  0.40943  0.56733  Biso   1.000  C
  H5       1.0000 0.45956  0.49907  0.64032  Biso   1.000  H
  S6       1.0000 0.10633  0.71977  0.71667  Biso   1.000  S
  O11      1.0000 0.01403  0.72727  0.86097  Biso   1.000  O
  O12      1.0000 0.06723  0.73657  0.98267  Biso   1.000  O
  C21      1.0000 0.11533  0.78687  0.85957  Biso   1.000  C
  C22      1.0000 0.13733  0.78577  0.77507  Biso   1.000  C
  C23      1.0000 0.14553  0.83317  0.91067  Biso   1.000  C
  C24      1.0000 0.06143  0.74277  0.90067  Biso   1.000  C
  H6       1.0000 0.12623  0.83241  0.97365  Biso   1.000  H
  S7       1.0000 0.94690  0.71990  0.05000  Biso   1.000  S
  O13      1.0000 0.93940  0.62010  0.19430  Biso   1.000  O
  O14      1.0000 0.93010  0.66400  0.31600  Biso   1.000  O
  C25      1.0000 0.87980  0.66180  0.19290  Biso   1.000  C
  C26      1.0000 0.88090  0.68490  0.10840  Biso   1.000  C
  C27      1.0000 0.83350  0.64570  0.24400  Biso   1.000  C
  C28      1.0000 0.92390  0.65200  0.23400  Biso   1.000  C
  H7       1.0000 0.83426  0.62716  0.30699  Biso   1.000  H
  S8       1.0000 0.61357  0.05323  0.38333  Biso   1.000  S
  O15      1.0000 0.60607  0.95343  0.52763  Biso   1.000  O
  O16      1.0000 0.59677  0.99733  0.64933  Biso   1.000  O
  C29      1.0000 0.54647  0.99513  0.52623  Biso   1.000  C
  C30      1.0000 0.54757  0.01823  0.44173  Biso   1.000  C
  C31      1.0000 0.50017  0.97903  0.57733  Biso   1.000  C
  C32      1.0000 0.59057  0.98533  0.56733  Biso   1.000  C
  H8       1.0000 0.50093  0.96049  0.64032  Biso   1.000  H
  S9       1.0000 0.28023  0.38657  0.71667  Biso   1.000  S
  O17      1.0000 0.27273  0.28677  0.86097  Biso   1.000  O
  O18      1.0000 0.26343  0.33067  0.98267  Biso   1.000  O
  C33      1.0000 0.21313  0.32847  0.85957  Biso   1.000  C
  C34      1.0000 0.21423  0.35157  0.77507  Biso   1.000  C
  C35      1.0000 0.16683  0.31237  0.91067  Biso   1.000  C
  C36      1.0000 0.25723  0.31867  0.90067  Biso   1.000  C
  H9       1.0000 0.16759  0.29382  0.97365  Biso   1.000  H
  S10      1.0000 0.22700  0.28010  0.45000  Biso   1.000  S
  O19      1.0000 0.31930  0.37990  0.30570  Biso   1.000  O
  O20      1.0000 0.26610  0.33600  0.18400  Biso   1.000  O
  C37      1.0000 0.21800  0.33820  0.30710  Biso   1.000  C
  C38      1.0000 0.19600  0.31510  0.39160  Biso   1.000  C
  C39      1.0000 0.18780  0.35430  0.25600  Biso   1.000  C
  C40      1.0000 0.27190  0.34800  0.26600  Biso   1.000  C
  H10      1.0000 0.20710  0.37284  0.19301  Biso   1.000  H
  S11      1.0000 0.89367  0.61343  0.78333  Biso   1.000  S
  O21      1.0000 0.98597  0.71323  0.63903  Biso   1.000  O
  O22      1.0000 0.93277  0.66933  0.51733  Biso   1.000  O
  C41      1.0000 0.88467  0.67153  0.64043  Biso   1.000  C
  C42      1.0000 0.86267  0.64843  0.72493  Biso   1.000  C
  C43      1.0000 0.85447  0.68763  0.58933  Biso   1.000  C
  C44      1.0000 0.93857  0.68133  0.59933  Biso   1.000  C
  H11      1.0000 0.87377  0.70618  0.52635  Biso   1.000  H
  S12      1.0000 0.56033  0.94677  0.11667  Biso   1.000  S
  O23      1.0000 0.65263  0.04657  0.97237  Biso   1.000  O
  O24      1.0000 0.59943  0.00267  0.85067  Biso   1.000  O
  C45      1.0000 0.55133  0.00487  0.97377  Biso   1.000  C
  C46      1.0000 0.52933  0.98177  0.05827  Biso   1.000  C
  C47      1.0000 0.52113  0.02097  0.92267  Biso   1.000  C
  C48      1.0000 0.60523  0.01467  0.93267  Biso   1.000  C
  H12      1.0000 0.54044  0.03951  0.85968  Biso   1.000  H
  S13      1.0000 0.05310  0.77300  0.45000  Biso   1.000  S
  O25      1.0000 0.06060  0.68070  0.30570  Biso   1.000  O
  O26      1.0000 0.06990  0.73390  0.18400  Biso   1.000  O
  C49      1.0000 0.12020  0.78200  0.30710  Biso   1.000  C
  C50      1.0000 0.11910  0.80400  0.39160  Biso   1.000  C
  C51      1.0000 0.16650  0.81220  0.25600  Biso   1.000  C
  C52      1.0000 0.07610  0.72810  0.26600  Biso   1.000  C
  H13      1.0000 0.16574  0.79290  0.19301  Biso   1.000  H
  S14      1.0000 0.71977  0.10633  0.78333  Biso   1.000  S
  O27      1.0000 0.72727  0.01403  0.63903  Biso   1.000  O
  O28      1.0000 0.73657  0.06723  0.51733  Biso   1.000  O
  C53      1.0000 0.78687  0.11533  0.64043  Biso   1.000  C
  C54      1.0000 0.78577  0.13733  0.72493  Biso   1.000  C
  C55      1.0000 0.83317  0.14553  0.58933  Biso   1.000  C
  C56      1.0000 0.74277  0.06143  0.59933  Biso   1.000  C
  H14      1.0000 0.83241  0.12623  0.52635  Biso   1.000  H
  S15      1.0000 0.38643  0.43967  0.11667  Biso   1.000  S
  O29      1.0000 0.39393  0.34737  0.97237  Biso   1.000  O
  O30      1.0000 0.40323  0.40057  0.85067  Biso   1.000  O
  C57      1.0000 0.45353  0.44867  0.97377  Biso   1.000  C
  C58      1.0000 0.45243  0.47067  0.05827  Biso   1.000  C
  C59      1.0000 0.49983  0.47887  0.92267  Biso   1.000  C
  C60      1.0000 0.40943  0.39477  0.93267  Biso   1.000  C
  H15      1.0000 0.49907  0.45956  0.85968  Biso   1.000  H
  S16      1.0000 0.71990  0.94690  0.45000  Biso   1.000  S
  O31      1.0000 0.62010  0.93940  0.30570  Biso   1.000  O
  O32      1.0000 0.66400  0.93010  0.18400  Biso   1.000  O
  C61      1.0000 0.66180  0.87980  0.30710  Biso   1.000  C
  C62      1.0000 0.68490  0.88090  0.39160  Biso   1.000  C
  C63      1.0000 0.64570  0.83350  0.25600  Biso   1.000  C
  C64      1.0000 0.65200  0.92390  0.26600  Biso   1.000  C
  H16      1.0000 0.62716  0.83426  0.19301  Biso   1.000  H
  S17      1.0000 0.38657  0.28023  0.78333  Biso   1.000  S
  O33      1.0000 0.28677  0.27273  0.63903  Biso   1.000  O
  O34      1.0000 0.33067  0.26343  0.51733  Biso   1.000  O
  C65      1.0000 0.32847  0.21313  0.64043  Biso   1.000  C
  C66      1.0000 0.35157  0.21423  0.72493  Biso   1.000  C
  C67      1.0000 0.31237  0.16683  0.58933  Biso   1.000  C
  C68      1.0000 0.31867  0.25723  0.59933  Biso   1.000  C
  H17      1.0000 0.29382  0.16759  0.52635  Biso   1.000  H
  S18      1.0000 0.05323  0.61357  0.11667  Biso   1.000  S
  O35      1.0000 0.95343  0.60607  0.97237  Biso   1.000  O
  O36      1.0000 0.99733  0.59677  0.85067  Biso   1.000  O
  C69      1.0000 0.99513  0.54647  0.97377  Biso   1.000  C
  C70      1.0000 0.01823  0.54757  0.05827  Biso   1.000  C
  C71      1.0000 0.97903  0.50017  0.92267  Biso   1.000  C
  C72      1.0000 0.98533  0.59057  0.93267  Biso   1.000  C
  H18      1.0000 0.96049  0.50093  0.85968  Biso   1.000  H
  S19      1.0000 0.71990  0.77300  0.95000  Biso   1.000  S
  O37      1.0000 0.62010  0.68070  0.80570  Biso   1.000  O
  O38      1.0000 0.66400  0.73390  0.68400  Biso   1.000  O
  C73      1.0000 0.66180  0.78200  0.80710  Biso   1.000  C
  C74      1.0000 0.68490  0.80400  0.89160  Biso   1.000  C
  C75      1.0000 0.64570  0.81220  0.75600  Biso   1.000  C
  C76      1.0000 0.65200  0.72810  0.76600  Biso   1.000  C
  H19      1.0000 0.62716  0.79290  0.69301  Biso   1.000  H
  S20      1.0000 0.38657  0.10633  0.28333  Biso   1.000  S
  O39      1.0000 0.28677  0.01403  0.13903  Biso   1.000  O
  O40      1.0000 0.33067  0.06723  0.01733  Biso   1.000  O
  C77      1.0000 0.32847  0.11533  0.14043  Biso   1.000  C
  C78      1.0000 0.35157  0.13733  0.22493  Biso   1.000  C
  C79      1.0000 0.31237  0.14553  0.08933  Biso   1.000  C
  C80      1.0000 0.31867  0.06143  0.09933  Biso   1.000  C
  H20      1.0000 0.29382  0.12623  0.02635  Biso   1.000  H
  S21      1.0000 0.05323  0.43967  0.61667  Biso   1.000  S
  O41      1.0000 0.95343  0.34737  0.47237  Biso   1.000  O
  O42      1.0000 0.99733  0.40057  0.35067  Biso   1.000  O
  C81      1.0000 0.99513  0.44867  0.47377  Biso   1.000  C
  C82      1.0000 0.01823  0.47067  0.55827  Biso   1.000  C
  C83      1.0000 0.97903  0.47887  0.42267  Biso   1.000  C
  C84      1.0000 0.98533  0.39477  0.43267  Biso   1.000  C
  H21      1.0000 0.96049  0.45956  0.35968  Biso   1.000  H
  S22      1.0000 0.22700  0.94690  0.95000  Biso   1.000  S
  O43      1.0000 0.31930  0.93940  0.80570  Biso   1.000  O
  O44      1.0000 0.26610  0.93010  0.68400  Biso   1.000  O
  C85      1.0000 0.21800  0.87980  0.80710  Biso   1.000  C
  C86      1.0000 0.19600  0.88090  0.89160  Biso   1.000  C
  C87      1.0000 0.18780  0.83350  0.75600  Biso   1.000  C
  C88      1.0000 0.27190  0.92390  0.76600  Biso   1.000  C
  H22      1.0000 0.20710  0.83426  0.69301  Biso   1.000  H
  S23      1.0000 0.89367  0.28023  0.28333  Biso   1.000  S
  O45      1.0000 0.98597  0.27273  0.13903  Biso   1.000  O
  O46      1.0000 0.93277  0.26343  0.01733  Biso   1.000  O
  C89      1.0000 0.88467  0.21313  0.14043  Biso   1.000  C
  C90      1.0000 0.86267  0.21423  0.22493  Biso   1.000  C
  C91      1.0000 0.85447  0.16683  0.08933  Biso   1.000  C
  C92      1.0000 0.93857  0.25723  0.09933  Biso   1.000  C
  H23      1.0000 0.87377  0.16759  0.02635  Biso   1.000  H
  S24      1.0000 0.56033  0.61357  0.61667  Biso   1.000  S
  O47      1.0000 0.65263  0.60607  0.47237  Biso   1.000  O
  O48      1.0000 0.59943  0.59677  0.35067  Biso   1.000  O
  C93      1.0000 0.55133  0.54647  0.47377  Biso   1.000  C
  C94      1.0000 0.52933  0.54757  0.55827  Biso   1.000  C
  C95      1.0000 0.52113  0.50017  0.42267  Biso   1.000  C
  C96      1.0000 0.60523  0.59057  0.43267  Biso   1.000  C
  H24      1.0000 0.54044  0.50093  0.35968  Biso   1.000  H
  S25      1.0000 0.05310  0.28010  0.95000  Biso   1.000  S
  O49      1.0000 0.06060  0.37990  0.80570  Biso   1.000  O
  O50      1.0000 0.06990  0.33600  0.68400  Biso   1.000  O
  C97      1.0000 0.12020  0.33820  0.80710  Biso   1.000  C
  C98      1.0000 0.11910  0.31510  0.89160  Biso   1.000  C
  C99      1.0000 0.16650  0.35430  0.75600  Biso   1.000  C
  C100     1.0000 0.07610  0.34800  0.76600  Biso   1.000  C
  H25      1.0000 0.16574  0.37284  0.69301  Biso   1.000  H
  S26      1.0000 0.71977  0.61343  0.28333  Biso   1.000  S
  O51      1.0000 0.72727  0.71323  0.13903  Biso   1.000  O
  O52      1.0000 0.73657  0.66933  0.01733  Biso   1.000  O
  C101     1.0000 0.78687  0.67153  0.14043  Biso   1.000  C
  C102     1.0000 0.78577  0.64843  0.22493  Biso   1.000  C
  C103     1.0000 0.83317  0.68763  0.08933  Biso   1.000  C
  C104     1.0000 0.74277  0.68133  0.09933  Biso   1.000  C
  H26      1.0000 0.83241  0.70618  0.02635  Biso   1.000  H
  S27      1.0000 0.38643  0.94677  0.61667  Biso   1.000  S
  O53      1.0000 0.39393  0.04657  0.47237  Biso   1.000  O
  O54      1.0000 0.40323  0.00267  0.35067  Biso   1.000  O
  C105     1.0000 0.45353  0.00487  0.47377  Biso   1.000  C
  C106     1.0000 0.45243  0.98177  0.55827  Biso   1.000  C
  C107     1.0000 0.49983  0.02097  0.42267  Biso   1.000  C
  C108     1.0000 0.40943  0.01467  0.43267  Biso   1.000  C
  H27      1.0000 0.49907  0.03951  0.35968  Biso   1.000  H
  S28      1.0000 0.77300  0.71990  0.55000  Biso   1.000  S
  O55      1.0000 0.68070  0.62010  0.69430  Biso   1.000  O
  O56      1.0000 0.73390  0.66400  0.81600  Biso   1.000  O
  C109     1.0000 0.78200  0.66180  0.69290  Biso   1.000  C
  C110     1.0000 0.80400  0.68490  0.60840  Biso   1.000  C
  C111     1.0000 0.81220  0.64570  0.74400  Biso   1.000  C
  C112     1.0000 0.72810  0.65200  0.73400  Biso   1.000  C
  H28      1.0000 0.79290  0.62716  0.80699  Biso   1.000  H
  S29      1.0000 0.43967  0.05323  0.88333  Biso   1.000  S
  O57      1.0000 0.34737  0.95343  0.02763  Biso   1.000  O
  O58      1.0000 0.40057  0.99733  0.14933  Biso   1.000  O
  C113     1.0000 0.44867  0.99513  0.02623  Biso   1.000  C
  C114     1.0000 0.47067  0.01823  0.94173  Biso   1.000  C
  C115     1.0000 0.47887  0.97903  0.07733  Biso   1.000  C
  C116     1.0000 0.39477  0.98533  0.06733  Biso   1.000  C
  H29      1.0000 0.45956  0.96049  0.14032  Biso   1.000  H
  S30      1.0000 0.10633  0.38657  0.21667  Biso   1.000  S
  O59      1.0000 0.01403  0.28677  0.36097  Biso   1.000  O
  O60      1.0000 0.06723  0.33067  0.48267  Biso   1.000  O
  C117     1.0000 0.11533  0.32847  0.35957  Biso   1.000  C
  C118     1.0000 0.13733  0.35157  0.27507  Biso   1.000  C
  C119     1.0000 0.14553  0.31237  0.41067  Biso   1.000  C
  C120     1.0000 0.06143  0.31867  0.40067  Biso   1.000  C
  H30      1.0000 0.12623  0.29382  0.47365  Biso   1.000  H
  S31      1.0000 0.94690  0.22700  0.55000  Biso   1.000  S
  O61      1.0000 0.93940  0.31930  0.69430  Biso   1.000  O
  O62      1.0000 0.93010  0.26610  0.81600  Biso   1.000  O
  C121     1.0000 0.87980  0.21800  0.69290  Biso   1.000  C
  C122     1.0000 0.88090  0.19600  0.60840  Biso   1.000  C
  C123     1.0000 0.83350  0.18780  0.74400  Biso   1.000  C
  C124     1.0000 0.92390  0.27190  0.73400  Biso   1.000  C
  H31      1.0000 0.83426  0.20710  0.80699  Biso   1.000  H
  S32      1.0000 0.61357  0.56033  0.88333  Biso   1.000  S
  O63      1.0000 0.60607  0.65263  0.02763  Biso   1.000  O
  O64      1.0000 0.59677  0.59943  0.14933  Biso   1.000  O
  C125     1.0000 0.54647  0.55133  0.02623  Biso   1.000  C
  C126     1.0000 0.54757  0.52933  0.94173  Biso   1.000  C
  C127     1.0000 0.50017  0.52113  0.07733  Biso   1.000  C
  C128     1.0000 0.59057  0.60523  0.06733  Biso   1.000  C
  H32      1.0000 0.50093  0.54044  0.14032  Biso   1.000  H
  S33      1.0000 0.28023  0.89367  0.21667  Biso   1.000  S
  O65      1.0000 0.27273  0.98597  0.36097  Biso   1.000  O
  O66      1.0000 0.26343  0.93277  0.48267  Biso   1.000  O
  C129     1.0000 0.21313  0.88467  0.35957  Biso   1.000  C
  C130     1.0000 0.21423  0.86267  0.27507  Biso   1.000  C
  C131     1.0000 0.16683  0.85447  0.41067  Biso   1.000  C
  C132     1.0000 0.25723  0.93857  0.40067  Biso   1.000  C
  H33      1.0000 0.16759  0.87377  0.47365  Biso   1.000  H
  S34      1.0000 0.28010  0.05310  0.55000  Biso   1.000  S
  O67      1.0000 0.37990  0.06060  0.69430  Biso   1.000  O
  O68      1.0000 0.33600  0.06990  0.81600  Biso   1.000  O
  C133     1.0000 0.33820  0.12020  0.69290  Biso   1.000  C
  C134     1.0000 0.31510  0.11910  0.60840  Biso   1.000  C
  C135     1.0000 0.35430  0.16650  0.74400  Biso   1.000  C
  C136     1.0000 0.34800  0.07610  0.73400  Biso   1.000  C
  H34      1.0000 0.37284  0.16574  0.80699  Biso   1.000  H
  S35      1.0000 0.94677  0.38643  0.88333  Biso   1.000  S
  O69      1.0000 0.04657  0.39393  0.02763  Biso   1.000  O
  O70      1.0000 0.00267  0.40323  0.14933  Biso   1.000  O
  C137     1.0000 0.00487  0.45353  0.02623  Biso   1.000  C
  C138     1.0000 0.98177  0.45243  0.94173  Biso   1.000  C
  C139     1.0000 0.02097  0.49983  0.07733  Biso   1.000  C
  C140     1.0000 0.01467  0.40943  0.06733  Biso   1.000  C
  H35      1.0000 0.03951  0.49907  0.14032  Biso   1.000  H
  S36      1.0000 0.61343  0.71977  0.21667  Biso   1.000  S
  O71      1.0000 0.71323  0.72727  0.36097  Biso   1.000  O
  O72      1.0000 0.66933  0.73657  0.48267  Biso   1.000  O
  C141     1.0000 0.67153  0.78687  0.35957  Biso   1.000  C
  C142     1.0000 0.64843  0.78577  0.27507  Biso   1.000  C
  C143     1.0000 0.68763  0.83317  0.41067  Biso   1.000  C
  C144     1.0000 0.68133  0.74277  0.40067  Biso   1.000  C
  H36      1.0000 0.70618  0.83241  0.47365  Biso   1.000  H
  Mn1      1.0000 0.32310  0.33333  0.08333  Biso   1.000  Mn
  Mn2      1.0000 0.66667  0.98976  0.08333  Biso   1.000  Mn
  Mn3      1.0000 0.33333  0.32310  0.41667  Biso   1.000  Mn
  Mn4      1.0000 0.01024  0.67690  0.08333  Biso   1.000  Mn
  Mn5      1.0000 0.34357  0.34357  0.75000  Biso   1.000  Mn
  Mn6      1.0000 0.00000  0.65643  0.75000  Biso   1.000  Mn
  Mn7      1.0000 0.98976  0.66667  0.41667  Biso   1.000  Mn
  Mn8      1.0000 0.65643  0.00000  0.75000  Biso   1.000  Mn
  Mn9      1.0000 0.67690  0.01024  0.41667  Biso   1.000  Mn
  Mn10     1.0000 0.67690  0.66667  0.91667  Biso   1.000  Mn
  Mn11     1.0000 0.34357  0.00000  0.25000  Biso   1.000  Mn
  Mn12     1.0000 0.01024  0.33333  0.58333  Biso   1.000  Mn
  Mn13     1.0000 0.33333  0.01024  0.91667  Biso   1.000  Mn
  Mn14     1.0000 0.00000  0.34357  0.25000  Biso   1.000  Mn
  Mn15     1.0000 0.98976  0.32310  0.91667  Biso   1.000  Mn
  Mn16     1.0000 0.65643  0.65643  0.25000  Biso   1.000  Mn
  Mn17     1.0000 0.66667  0.67690  0.58333  Biso   1.000  Mn
  Mn18     1.0000 0.32310  0.98976  0.58333  Biso   1.000  Mn
  Mn19     1.0000 0.39767  0.39767  0.25000  Biso   1.000  Mn
  Mn20     1.0000 0.06433  0.73100  0.58333  Biso   1.000  Mn
  Mn21     1.0000 0.73100  0.06433  0.91667  Biso   1.000  Mn
  Mn22     1.0000 0.60233  0.00000  0.25000  Biso   1.000  Mn
  Mn23     1.0000 0.26900  0.33333  0.58333  Biso   1.000  Mn
  Mn24     1.0000 0.93567  0.66667  0.91667  Biso   1.000  Mn
  Mn25     1.0000 0.00000  0.60233  0.25000  Biso   1.000  Mn
  Mn26     1.0000 0.66667  0.93567  0.58333  Biso   1.000  Mn
  Mn27     1.0000 0.33333  0.26900  0.91667  Biso   1.000  Mn
  Mn28     1.0000 0.60233  0.60233  0.75000  Biso   1.000  Mn
  Mn29     1.0000 0.26900  0.93567  0.08333  Biso   1.000  Mn
  Mn30     1.0000 0.93567  0.26900  0.41667  Biso   1.000  Mn
  Mn31     1.0000 0.39767  0.00000  0.75000  Biso   1.000  Mn
  Mn32     1.0000 0.06433  0.33333  0.08333  Biso   1.000  Mn
  Mn33     1.0000 0.73100  0.66667  0.41667  Biso   1.000  Mn
  Mn34     1.0000 0.00000  0.39767  0.75000  Biso   1.000  Mn
  Mn35     1.0000 0.66667  0.73100  0.08333  Biso   1.000  Mn
  Mn36     1.0000 0.33333  0.06433  0.41667  Biso   1.000  Mn
