data_image0
_cell_length_a       27.3238
_cell_length_b       27.3238
_cell_length_c       15.1036
_cell_angle_alpha    90
_cell_angle_beta     90
_cell_angle_gamma    120

_symmetry_space_group_name_H-M    "P 1"
_symmetry_int_tables_number       1

loop_
  _symmetry_equiv_pos_as_xyz
  'x, y, z'

loop_
  _atom_site_label
  _atom_site_occupancy
  _atom_site_fract_x
  _atom_site_fract_y
  _atom_site_fract_z
  _atom_site_thermal_displace_type
  _atom_site_B_iso_or_equiv
  _atom_site_type_symbol
  S1       1.0000 0.28290  0.23630  0.09150  Biso   1.000  S
  O1       1.0000 0.36870  0.31790  0.19150  Biso   1.000  O
  O2       1.0000 0.33680  0.27270  0.32540  Biso   1.000  O
  C1       1.0000 0.34001  0.22198  0.20192  Biso   1.000  C
  C2       1.0000 0.31580  0.19726  0.12048  Biso   1.000  C
  C3       1.0000 0.35731  0.18714  0.23807  Biso   1.000  C
  C4       1.0000 0.34506  0.27219  0.23844  Biso   1.000  C
  S2       1.0000 0.94957  0.56963  0.42483  Biso   1.000  S
  O3       1.0000 0.03537  0.65123  0.52483  Biso   1.000  O
  O4       1.0000 0.00347  0.60603  0.65873  Biso   1.000  O
  C5       1.0000 0.00668  0.55531  0.53525  Biso   1.000  C
  C6       1.0000 0.98247  0.53059  0.45381  Biso   1.000  C
  C7       1.0000 0.02397  0.52047  0.57140  Biso   1.000  C
  C8       1.0000 0.01173  0.60552  0.57177  Biso   1.000  C
  S3       1.0000 0.61623  0.90297  0.75817  Biso   1.000  S
  O5       1.0000 0.70203  0.98457  0.85817  Biso   1.000  O
  O6       1.0000 0.67013  0.93937  0.99207  Biso   1.000  O
  C9       1.0000 0.67335  0.88864  0.86858  Biso   1.000  C
  C10      1.0000 0.64913  0.86393  0.78714  Biso   1.000  C
  C11      1.0000 0.69064  0.85381  0.90474  Biso   1.000  C
  C12      1.0000 0.67839  0.93886  0.90511  Biso   1.000  C
  S4       1.0000 0.76370  0.04660  0.09150  Biso   1.000  S
  O7       1.0000 0.68210  0.05080  0.19150  Biso   1.000  O
  O8       1.0000 0.72730  0.06410  0.32540  Biso   1.000  O
  C13      1.0000 0.77802  0.11804  0.20192  Biso   1.000  C
  C14      1.0000 0.80274  0.11854  0.12048  Biso   1.000  C
  C15      1.0000 0.81286  0.17017  0.23807  Biso   1.000  C
  C16      1.0000 0.72781  0.07287  0.23844  Biso   1.000  C
  S5       1.0000 0.43037  0.37993  0.42483  Biso   1.000  S
  O9       1.0000 0.34877  0.38413  0.52483  Biso   1.000  O
  O10      1.0000 0.39397  0.39743  0.65873  Biso   1.000  O
  C17      1.0000 0.44469  0.45137  0.53525  Biso   1.000  C
  C18      1.0000 0.46941  0.45187  0.45381  Biso   1.000  C
  C19      1.0000 0.47953  0.50350  0.57140  Biso   1.000  C
  C20      1.0000 0.39448  0.40620  0.57177  Biso   1.000  C
  S6       1.0000 0.09703  0.71327  0.75817  Biso   1.000  S
  O11      1.0000 0.01543  0.71747  0.85817  Biso   1.000  O
  O12      1.0000 0.06063  0.73077  0.99207  Biso   1.000  O
  C21      1.0000 0.11136  0.78470  0.86858  Biso   1.000  C
  C22      1.0000 0.13607  0.78521  0.78714  Biso   1.000  C
  C23      1.0000 0.14619  0.83684  0.90474  Biso   1.000  C
  C24      1.0000 0.06114  0.73954  0.90511  Biso   1.000  C
  S7       1.0000 0.95340  0.71710  0.09150  Biso   1.000  S
  O13      1.0000 0.94920  0.63130  0.19150  Biso   1.000  O
  O14      1.0000 0.93590  0.66320  0.32540  Biso   1.000  O
  C25      1.0000 0.88196  0.65999  0.20192  Biso   1.000  C
  C26      1.0000 0.88146  0.68420  0.12048  Biso   1.000  C
  C27      1.0000 0.82983  0.64269  0.23807  Biso   1.000  C
  C28      1.0000 0.92713  0.65494  0.23844  Biso   1.000  C
  S8       1.0000 0.62007  0.05043  0.42483  Biso   1.000  S
  O15      1.0000 0.61587  0.96463  0.52483  Biso   1.000  O
  O16      1.0000 0.60257  0.99653  0.65873  Biso   1.000  O
  C29      1.0000 0.54863  0.99332  0.53525  Biso   1.000  C
  C30      1.0000 0.54813  0.01753  0.45381  Biso   1.000  C
  C31      1.0000 0.49650  0.97603  0.57140  Biso   1.000  C
  C32      1.0000 0.59380  0.98827  0.57177  Biso   1.000  C
  S9       1.0000 0.28673  0.38377  0.75817  Biso   1.000  S
  O17      1.0000 0.28253  0.29797  0.85817  Biso   1.000  O
  O18      1.0000 0.26923  0.32987  0.99207  Biso   1.000  O
  C33      1.0000 0.21530  0.32665  0.86858  Biso   1.000  C
  C34      1.0000 0.21479  0.35087  0.78714  Biso   1.000  C
  C35      1.0000 0.16316  0.30936  0.90474  Biso   1.000  C
  C36      1.0000 0.26046  0.32161  0.90511  Biso   1.000  C
  S10      1.0000 0.23630  0.28290  0.40850  Biso   1.000  S
  O19      1.0000 0.31790  0.36870  0.30850  Biso   1.000  O
  O20      1.0000 0.27270  0.33680  0.17460  Biso   1.000  O
  C37      1.0000 0.22198  0.34001  0.29808  Biso   1.000  C
  C38      1.0000 0.19726  0.31580  0.37952  Biso   1.000  C
  C39      1.0000 0.18714  0.35731  0.26193  Biso   1.000  C
  C40      1.0000 0.27219  0.34506  0.26156  Biso   1.000  C
  S11      1.0000 0.90297  0.61623  0.74183  Biso   1.000  S
  O21      1.0000 0.98457  0.70203  0.64183  Biso   1.000  O
  O22      1.0000 0.93937  0.67013  0.50793  Biso   1.000  O
  C41      1.0000 0.88864  0.67335  0.63142  Biso   1.000  C
  C42      1.0000 0.86393  0.64913  0.71286  Biso   1.000  C
  C43      1.0000 0.85381  0.69064  0.59526  Biso   1.000  C
  C44      1.0000 0.93886  0.67839  0.59489  Biso   1.000  C
  S12      1.0000 0.56963  0.94957  0.07517  Biso   1.000  S
  O23      1.0000 0.65123  0.03537  0.97517  Biso   1.000  O
  O24      1.0000 0.60603  0.00347  0.84127  Biso   1.000  O
  C45      1.0000 0.55531  0.00668  0.96475  Biso   1.000  C
  C46      1.0000 0.53059  0.98247  0.04619  Biso   1.000  C
  C47      1.0000 0.52047  0.02397  0.92860  Biso   1.000  C
  C48      1.0000 0.60552  0.01173  0.92823  Biso   1.000  C
  S13      1.0000 0.04660  0.76370  0.40850  Biso   1.000  S
  O25      1.0000 0.05080  0.68210  0.30850  Biso   1.000  O
  O26      1.0000 0.06410  0.72730  0.17460  Biso   1.000  O
  C49      1.0000 0.11804  0.77802  0.29808  Biso   1.000  C
  C50      1.0000 0.11854  0.80274  0.37952  Biso   1.000  C
  C51      1.0000 0.17017  0.81286  0.26193  Biso   1.000  C
  C52      1.0000 0.07287  0.72781  0.26156  Biso   1.000  C
  S14      1.0000 0.71327  0.09703  0.74183  Biso   1.000  S
  O27      1.0000 0.71747  0.01543  0.64183  Biso   1.000  O
  O28      1.0000 0.73077  0.06063  0.50793  Biso   1.000  O
  C53      1.0000 0.78470  0.11136  0.63142  Biso   1.000  C
  C54      1.0000 0.78521  0.13607  0.71286  Biso   1.000  C
  C55      1.0000 0.83684  0.14619  0.59526  Biso   1.000  C
  C56      1.0000 0.73954  0.06114  0.59489  Biso   1.000  C
  S15      1.0000 0.37993  0.43037  0.07517  Biso   1.000  S
  O29      1.0000 0.38413  0.34877  0.97517  Biso   1.000  O
  O30      1.0000 0.39743  0.39397  0.84127  Biso   1.000  O
  C57      1.0000 0.45137  0.44469  0.96475  Biso   1.000  C
  C58      1.0000 0.45187  0.46941  0.04619  Biso   1.000  C
  C59      1.0000 0.50350  0.47953  0.92860  Biso   1.000  C
  C60      1.0000 0.40620  0.39448  0.92823  Biso   1.000  C
  S16      1.0000 0.71710  0.95340  0.40850  Biso   1.000  S
  O31      1.0000 0.63130  0.94920  0.30850  Biso   1.000  O
  O32      1.0000 0.66320  0.93590  0.17460  Biso   1.000  O
  C61      1.0000 0.65999  0.88196  0.29808  Biso   1.000  C
  C62      1.0000 0.68420  0.88146  0.37952  Biso   1.000  C
  C63      1.0000 0.64269  0.82983  0.26193  Biso   1.000  C
  C64      1.0000 0.65494  0.92713  0.26156  Biso   1.000  C
  S17      1.0000 0.38377  0.28673  0.74183  Biso   1.000  S
  O33      1.0000 0.29797  0.28253  0.64183  Biso   1.000  O
  O34      1.0000 0.32987  0.26923  0.50793  Biso   1.000  O
  C65      1.0000 0.32665  0.21530  0.63142  Biso   1.000  C
  C66      1.0000 0.35087  0.21479  0.71286  Biso   1.000  C
  C67      1.0000 0.30936  0.16316  0.59526  Biso   1.000  C
  C68      1.0000 0.32161  0.26046  0.59489  Biso   1.000  C
  S18      1.0000 0.05043  0.62007  0.07517  Biso   1.000  S
  O35      1.0000 0.96463  0.61587  0.97517  Biso   1.000  O
  O36      1.0000 0.99653  0.60257  0.84127  Biso   1.000  O
  C69      1.0000 0.99332  0.54863  0.96475  Biso   1.000  C
  C70      1.0000 0.01753  0.54813  0.04619  Biso   1.000  C
  C71      1.0000 0.97603  0.49650  0.92860  Biso   1.000  C
  C72      1.0000 0.98827  0.59380  0.92823  Biso   1.000  C
  S19      1.0000 0.71710  0.76370  0.90850  Biso   1.000  S
  O37      1.0000 0.63130  0.68210  0.80850  Biso   1.000  O
  O38      1.0000 0.66320  0.72730  0.67460  Biso   1.000  O
  C73      1.0000 0.65999  0.77802  0.79808  Biso   1.000  C
  C74      1.0000 0.68420  0.80274  0.87952  Biso   1.000  C
  C75      1.0000 0.64269  0.81286  0.76193  Biso   1.000  C
  C76      1.0000 0.65494  0.72781  0.76156  Biso   1.000  C
  S20      1.0000 0.38377  0.09703  0.24183  Biso   1.000  S
  O39      1.0000 0.29797  0.01543  0.14183  Biso   1.000  O
  O40      1.0000 0.32987  0.06063  0.00793  Biso   1.000  O
  C77      1.0000 0.32665  0.11136  0.13142  Biso   1.000  C
  C78      1.0000 0.35087  0.13607  0.21286  Biso   1.000  C
  C79      1.0000 0.30936  0.14619  0.09526  Biso   1.000  C
  C80      1.0000 0.32161  0.06114  0.09489  Biso   1.000  C
  S21      1.0000 0.05043  0.43037  0.57517  Biso   1.000  S
  O41      1.0000 0.96463  0.34877  0.47517  Biso   1.000  O
  O42      1.0000 0.99653  0.39397  0.34127  Biso   1.000  O
  C81      1.0000 0.99332  0.44469  0.46475  Biso   1.000  C
  C82      1.0000 0.01753  0.46941  0.54619  Biso   1.000  C
  C83      1.0000 0.97603  0.47953  0.42860  Biso   1.000  C
  C84      1.0000 0.98827  0.39448  0.42823  Biso   1.000  C
  S22      1.0000 0.23630  0.95340  0.90850  Biso   1.000  S
  O43      1.0000 0.31790  0.94920  0.80850  Biso   1.000  O
  O44      1.0000 0.27270  0.93590  0.67460  Biso   1.000  O
  C85      1.0000 0.22198  0.88196  0.79808  Biso   1.000  C
  C86      1.0000 0.19726  0.88146  0.87952  Biso   1.000  C
  C87      1.0000 0.18714  0.82983  0.76193  Biso   1.000  C
  C88      1.0000 0.27219  0.92713  0.76156  Biso   1.000  C
  S23      1.0000 0.90297  0.28673  0.24183  Biso   1.000  S
  O45      1.0000 0.98457  0.28253  0.14183  Biso   1.000  O
  O46      1.0000 0.93937  0.26923  0.00793  Biso   1.000  O
  C89      1.0000 0.88864  0.21530  0.13142  Biso   1.000  C
  C90      1.0000 0.86393  0.21479  0.21286  Biso   1.000  C
  C91      1.0000 0.85381  0.16316  0.09526  Biso   1.000  C
  C92      1.0000 0.93886  0.26046  0.09489  Biso   1.000  C
  S24      1.0000 0.56963  0.62007  0.57517  Biso   1.000  S
  O47      1.0000 0.65123  0.61587  0.47517  Biso   1.000  O
  O48      1.0000 0.60603  0.60257  0.34127  Biso   1.000  O
  C93      1.0000 0.55531  0.54863  0.46475  Biso   1.000  C
  C94      1.0000 0.53059  0.54813  0.54619  Biso   1.000  C
  C95      1.0000 0.52047  0.49650  0.42860  Biso   1.000  C
  C96      1.0000 0.60552  0.59380  0.42823  Biso   1.000  C
  S25      1.0000 0.04660  0.28290  0.90850  Biso   1.000  S
  O49      1.0000 0.05080  0.36870  0.80850  Biso   1.000  O
  O50      1.0000 0.06410  0.33680  0.67460  Biso   1.000  O
  C97      1.0000 0.11804  0.34001  0.79808  Biso   1.000  C
  C98      1.0000 0.11854  0.31580  0.87952  Biso   1.000  C
  C99      1.0000 0.17017  0.35731  0.76193  Biso   1.000  C
  C100     1.0000 0.07287  0.34506  0.76156  Biso   1.000  C
  S26      1.0000 0.71327  0.61623  0.24183  Biso   1.000  S
  O51      1.0000 0.71747  0.70203  0.14183  Biso   1.000  O
  O52      1.0000 0.73077  0.67013  0.00793  Biso   1.000  O
  C101     1.0000 0.78470  0.67335  0.13142  Biso   1.000  C
  C102     1.0000 0.78521  0.64913  0.21286  Biso   1.000  C
  C103     1.0000 0.83684  0.69064  0.09526  Biso   1.000  C
  C104     1.0000 0.73954  0.67839  0.09489  Biso   1.000  C
  S27      1.0000 0.37993  0.94957  0.57517  Biso   1.000  S
  O53      1.0000 0.38413  0.03537  0.47517  Biso   1.000  O
  O54      1.0000 0.39743  0.00347  0.34127  Biso   1.000  O
  C105     1.0000 0.45137  0.00668  0.46475  Biso   1.000  C
  C106     1.0000 0.45187  0.98247  0.54619  Biso   1.000  C
  C107     1.0000 0.50350  0.02397  0.42860  Biso   1.000  C
  C108     1.0000 0.40620  0.01173  0.42823  Biso   1.000  C
  S28      1.0000 0.76370  0.71710  0.59150  Biso   1.000  S
  O55      1.0000 0.68210  0.63130  0.69150  Biso   1.000  O
  O56      1.0000 0.72730  0.66320  0.82540  Biso   1.000  O
  C109     1.0000 0.77802  0.65999  0.70192  Biso   1.000  C
  C110     1.0000 0.80274  0.68420  0.62048  Biso   1.000  C
  C111     1.0000 0.81286  0.64269  0.73807  Biso   1.000  C
  C112     1.0000 0.72781  0.65494  0.73844  Biso   1.000  C
  S29      1.0000 0.43037  0.05043  0.92483  Biso   1.000  S
  O57      1.0000 0.34877  0.96463  0.02483  Biso   1.000  O
  O58      1.0000 0.39397  0.99653  0.15873  Biso   1.000  O
  C113     1.0000 0.44469  0.99332  0.03525  Biso   1.000  C
  C114     1.0000 0.46941  0.01753  0.95381  Biso   1.000  C
  C115     1.0000 0.47953  0.97603  0.07140  Biso   1.000  C
  C116     1.0000 0.39448  0.98827  0.07177  Biso   1.000  C
  S30      1.0000 0.09703  0.38377  0.25817  Biso   1.000  S
  O59      1.0000 0.01543  0.29797  0.35817  Biso   1.000  O
  O60      1.0000 0.06063  0.32987  0.49207  Biso   1.000  O
  C117     1.0000 0.11136  0.32665  0.36858  Biso   1.000  C
  C118     1.0000 0.13607  0.35087  0.28714  Biso   1.000  C
  C119     1.0000 0.14619  0.30936  0.40474  Biso   1.000  C
  C120     1.0000 0.06114  0.32161  0.40511  Biso   1.000  C
  S31      1.0000 0.95340  0.23630  0.59150  Biso   1.000  S
  O61      1.0000 0.94920  0.31790  0.69150  Biso   1.000  O
  O62      1.0000 0.93590  0.27270  0.82540  Biso   1.000  O
  C121     1.0000 0.88196  0.22198  0.70192  Biso   1.000  C
  C122     1.0000 0.88146  0.19726  0.62048  Biso   1.000  C
  C123     1.0000 0.82983  0.18714  0.73807  Biso   1.000  C
  C124     1.0000 0.92713  0.27219  0.73844  Biso   1.000  C
  S32      1.0000 0.62007  0.56963  0.92483  Biso   1.000  S
  O63      1.0000 0.61587  0.65123  0.02483  Biso   1.000  O
  O64      1.0000 0.60257  0.60603  0.15873  Biso   1.000  O
  C125     1.0000 0.54863  0.55531  0.03525  Biso   1.000  C
  C126     1.0000 0.54813  0.53059  0.95381  Biso   1.000  C
  C127     1.0000 0.49650  0.52047  0.07140  Biso   1.000  C
  C128     1.0000 0.59380  0.60552  0.07177  Biso   1.000  C
  S33      1.0000 0.28673  0.90297  0.25817  Biso   1.000  S
  O65      1.0000 0.28253  0.98457  0.35817  Biso   1.000  O
  O66      1.0000 0.26923  0.93937  0.49207  Biso   1.000  O
  C129     1.0000 0.21530  0.88864  0.36858  Biso   1.000  C
  C130     1.0000 0.21479  0.86393  0.28714  Biso   1.000  C
  C131     1.0000 0.16316  0.85381  0.40474  Biso   1.000  C
  C132     1.0000 0.26046  0.93886  0.40511  Biso   1.000  C
  S34      1.0000 0.28290  0.04660  0.59150  Biso   1.000  S
  O67      1.0000 0.36870  0.05080  0.69150  Biso   1.000  O
  O68      1.0000 0.33680  0.06410  0.82540  Biso   1.000  O
  C133     1.0000 0.34001  0.11804  0.70192  Biso   1.000  C
  C134     1.0000 0.31580  0.11854  0.62048  Biso   1.000  C
  C135     1.0000 0.35731  0.17017  0.73807  Biso   1.000  C
  C136     1.0000 0.34506  0.07287  0.73844  Biso   1.000  C
  S35      1.0000 0.94957  0.37993  0.92483  Biso   1.000  S
  O69      1.0000 0.03537  0.38413  0.02483  Biso   1.000  O
  O70      1.0000 0.00347  0.39743  0.15873  Biso   1.000  O
  C137     1.0000 0.00668  0.45137  0.03525  Biso   1.000  C
  C138     1.0000 0.98247  0.45187  0.95381  Biso   1.000  C
  C139     1.0000 0.02397  0.50350  0.07140  Biso   1.000  C
  C140     1.0000 0.01173  0.40620  0.07177  Biso   1.000  C
  S36      1.0000 0.61623  0.71327  0.25817  Biso   1.000  S
  O71      1.0000 0.70203  0.71747  0.35817  Biso   1.000  O
  O72      1.0000 0.67013  0.73077  0.49207  Biso   1.000  O
  C141     1.0000 0.67335  0.78470  0.36858  Biso   1.000  C
  C142     1.0000 0.64913  0.78521  0.28714  Biso   1.000  C
  C143     1.0000 0.69064  0.83684  0.40474  Biso   1.000  C
  C144     1.0000 0.67839  0.73954  0.40511  Biso   1.000  C
  Mn1      1.0000 0.30980  0.33333  0.08333  Biso   1.000  Mn
  Mn2      1.0000 0.66667  0.97647  0.08333  Biso   1.000  Mn
  Mn3      1.0000 0.33333  0.30980  0.41667  Biso   1.000  Mn
  Mn4      1.0000 0.02353  0.69020  0.08333  Biso   1.000  Mn
  Mn5      1.0000 0.35687  0.35687  0.75000  Biso   1.000  Mn
  Mn6      1.0000 0.00000  0.64313  0.75000  Biso   1.000  Mn
  Mn7      1.0000 0.97647  0.66667  0.41667  Biso   1.000  Mn
  Mn8      1.0000 0.64313  0.00000  0.75000  Biso   1.000  Mn
  Mn9      1.0000 0.69020  0.02353  0.41667  Biso   1.000  Mn
  Mn10     1.0000 0.69020  0.66667  0.91667  Biso   1.000  Mn
  Mn11     1.0000 0.35687  0.00000  0.25000  Biso   1.000  Mn
  Mn12     1.0000 0.02353  0.33333  0.58333  Biso   1.000  Mn
  Mn13     1.0000 0.33333  0.02353  0.91667  Biso   1.000  Mn
  Mn14     1.0000 0.00000  0.35687  0.25000  Biso   1.000  Mn
  Mn15     1.0000 0.97647  0.30980  0.91667  Biso   1.000  Mn
  Mn16     1.0000 0.64313  0.64313  0.25000  Biso   1.000  Mn
  Mn17     1.0000 0.66667  0.69020  0.58333  Biso   1.000  Mn
  Mn18     1.0000 0.30980  0.97647  0.58333  Biso   1.000  Mn
  Mn19     1.0000 0.40650  0.40650  0.25000  Biso   1.000  Mn
  Mn20     1.0000 0.07317  0.73983  0.58333  Biso   1.000  Mn
  Mn21     1.0000 0.73983  0.07317  0.91667  Biso   1.000  Mn
  Mn22     1.0000 0.59350  0.00000  0.25000  Biso   1.000  Mn
  Mn23     1.0000 0.26017  0.33333  0.58333  Biso   1.000  Mn
  Mn24     1.0000 0.92683  0.66667  0.91667  Biso   1.000  Mn
  Mn25     1.0000 0.00000  0.59350  0.25000  Biso   1.000  Mn
  Mn26     1.0000 0.66667  0.92683  0.58333  Biso   1.000  Mn
  Mn27     1.0000 0.33333  0.26017  0.91667  Biso   1.000  Mn
  Mn28     1.0000 0.59350  0.59350  0.75000  Biso   1.000  Mn
  Mn29     1.0000 0.26017  0.92683  0.08333  Biso   1.000  Mn
  Mn30     1.0000 0.92683  0.26017  0.41667  Biso   1.000  Mn
  Mn31     1.0000 0.40650  0.00000  0.75000  Biso   1.000  Mn
  Mn32     1.0000 0.07317  0.33333  0.08333  Biso   1.000  Mn
  Mn33     1.0000 0.73983  0.66667  0.41667  Biso   1.000  Mn
  Mn34     1.0000 0.00000  0.40650  0.75000  Biso   1.000  Mn
  Mn35     1.0000 0.66667  0.73983  0.08333  Biso   1.000  Mn
  Mn36     1.0000 0.33333  0.07317  0.41667  Biso   1.000  Mn
