data_image0
_cell_length_a       19.0153
_cell_length_b       17.3146
_cell_length_c       14.7729
_cell_angle_alpha    110.339
_cell_angle_beta     114.077
_cell_angle_gamma    60.3142

_symmetry_space_group_name_H-M    "P 1"
_symmetry_int_tables_number       1

loop_
  _symmetry_equiv_pos_as_xyz
  'x, y, z'

loop_
  _atom_site_label
  _atom_site_occupancy
  _atom_site_fract_x
  _atom_site_fract_y
  _atom_site_fract_z
  _atom_site_thermal_displace_type
  _atom_site_B_iso_or_equiv
  _atom_site_type_symbol
  C1       1.0000 0.68236  0.01138  0.38990  Biso   1.000  C
  C2       1.0000 0.80678  0.82522  0.45743  Biso   1.000  C
  C3       1.0000 0.74859  0.83736  0.36038  Biso   1.000  C
  H1       1.0000 0.74719  0.77727  0.30517  Biso   1.000  H
  C4       1.0000 0.69080  0.92419  0.32921  Biso   1.000  C
  H2       1.0000 0.65057  0.92176  0.25234  Biso   1.000  H
  C5       1.0000 0.78465  0.25586  0.31805  Biso   1.000  C
  H3       1.0000 0.80960  0.18392  0.31445  Biso   1.000  H
  C6       1.0000 0.84208  0.29930  0.36725  Biso   1.000  C
  H4       1.0000 0.90849  0.25758  0.39579  Biso   1.000  H
  C7       1.0000 0.28476  0.25689  0.24230  Biso   1.000  C
  C8       1.0000 0.27943  0.23572  0.32217  Biso   1.000  C
  H5       1.0000 0.33005  0.17646  0.35244  Biso   1.000  H
  C9       1.0000 0.21603  0.29200  0.37202  Biso   1.000  C
  H6       1.0000 0.21857  0.27143  0.43490  Biso   1.000  H
  C10      1.0000 0.15371  0.37569  0.34756  Biso   1.000  C
  C11      1.0000 0.15684  0.39678  0.26612  Biso   1.000  C
  H7       1.0000 0.11136  0.46115  0.24366  Biso   1.000  H
  C12      1.0000 0.22052  0.33986  0.21597  Biso   1.000  C
  H8       1.0000 0.22359  0.36519  0.16102  Biso   1.000  H
  C13      1.0000 0.74075  0.99988  0.48789  Biso   1.000  C
  H9       1.0000 0.74227  0.06011  0.54275  Biso   1.000  H
  C14      1.0000 0.79923  0.91210  0.51935  Biso   1.000  C
  H10      1.0000 0.84030  0.91305  0.59591  Biso   1.000  H
  C15      1.0000 0.69669  0.30393  0.28016  Biso   1.000  C
  C16      1.0000 0.81631  0.39380  0.38350  Biso   1.000  C
  C17      1.0000 0.72911  0.44072  0.34442  Biso   1.000  C
  H11      1.0000 0.70329  0.51344  0.35361  Biso   1.000  H
  C18      1.0000 0.67236  0.39781  0.29618  Biso   1.000  C
  H12      1.0000 0.60573  0.44101  0.27262  Biso   1.000  H
  C19      1.0000 0.30738  0.40028  0.02639  Biso   1.000  C
  C20      1.0000 0.31640  0.37107  0.92707  Biso   1.000  C
  H13      1.0000 0.37699  0.32020  0.91727  Biso   1.000  H
  C21      1.0000 0.25157  0.40238  0.83646  Biso   1.000  C
  H14      1.0000 0.26833  0.37336  0.76660  Biso   1.000  H
  C22      1.0000 0.16782  0.46741  0.83235  Biso   1.000  C
  C23      1.0000 0.15759  0.49775  0.93143  Biso   1.000  C
  H15      1.0000 0.09603  0.54770  0.93911  Biso   1.000  H
  C24      1.0000 0.22320  0.46620  0.02315  Biso   1.000  C
  H16      1.0000 0.20622  0.49390  0.09282  Biso   1.000  H
  C25      1.0000 0.98039  0.54037  0.52939  Biso   1.000  C
  C26      1.0000 0.87606  0.44314  0.44025  Biso   1.000  C
  C27      1.0000 0.92073  0.48866  0.48679  Biso   1.000  C
  C28      1.0000 0.04117  0.52410  0.64474  Biso   1.000  C
  C29      1.0000 0.09677  0.49992  0.72991  Biso   1.000  C
  C30      1.0000 0.09044  0.43966  0.40795  Biso   1.000  C
  C31      1.0000 0.04101  0.49127  0.46145  Biso   1.000  C
  C32      1.0000 0.87066  0.72744  0.48996  Biso   1.000  C
  C33      1.0000 0.92146  0.64680  0.51333  Biso   1.000  C
  O1       1.0000 0.39541  0.36914  0.22242  Biso   1.000  O
  O2       1.0000 0.44909  0.28181  0.08950  Biso   1.000  O
  C34      1.0000 0.38546  0.35145  0.11950  Biso   1.000  C
  O3       1.0000 0.56749  0.32808  0.29675  Biso   1.000  O
  O4       1.0000 0.61694  0.19306  0.19082  Biso   1.000  O
  C35      1.0000 0.62583  0.27021  0.25224  Biso   1.000  C
  Cu1      1.0000 0.49337  0.29358  0.31924  Biso   1.000  Cu
  Cu2      1.0000 0.51247  0.17680  0.15602  Biso   1.000  Cu
  O5       1.0000 0.59344  0.19495  0.38614  Biso   1.000  O
  O6       1.0000 0.57273  0.08846  0.24577  Biso   1.000  O
  O7       1.0000 0.42320  0.24149  0.31926  Biso   1.000  O
  O8       1.0000 0.40345  0.18471  0.14998  Biso   1.000  O
  C36      1.0000 0.61394  0.10414  0.34240  Biso   1.000  C
  C37      1.0000 0.37359  0.22273  0.23259  Biso   1.000  C
