data_image0
_cell_length_a       18.3601
_cell_length_b       18.3586
_cell_length_c       18.3601
_cell_angle_alpha    89.9813
_cell_angle_beta     59.9871
_cell_angle_gamma    59.995

_symmetry_space_group_name_H-M    "P 1"
_symmetry_int_tables_number       1

loop_
  _symmetry_equiv_pos_as_xyz
  'x, y, z'

loop_
  _atom_site_label
  _atom_site_occupancy
  _atom_site_fract_x
  _atom_site_fract_y
  _atom_site_fract_z
  _atom_site_thermal_displace_type
  _atom_site_B_iso_or_equiv
  _atom_site_type_symbol
  O1       1.0000 0.36432  0.61438  0.62755  Biso   1.000  O
  O2       1.0000 0.48600  0.49142  0.62782  Biso   1.000  O
  C1       1.0000 0.40450  0.56750  0.66293  Biso   1.000  C
  O3       1.0000 0.36346  0.50950  0.52178  Biso   1.000  O
  O4       1.0000 0.48514  0.38654  0.52205  Biso   1.000  O
  C2       1.0000 0.40340  0.43367  0.52796  Biso   1.000  C
  Cu1      1.0000 0.42796  0.57280  0.49984  Biso   1.000  Cu
  Cu2      1.0000 0.57204  0.42720  0.50016  Biso   1.000  Cu
  O5       1.0000 0.51400  0.50858  0.37218  Biso   1.000  O
  O6       1.0000 0.63568  0.38562  0.37245  Biso   1.000  O
  O7       1.0000 0.51486  0.61346  0.47795  Biso   1.000  O
  O8       1.0000 0.63654  0.49050  0.47822  Biso   1.000  O
  C3       1.0000 0.59550  0.43250  0.33707  Biso   1.000  C
  C4       1.0000 0.59660  0.56633  0.47204  Biso   1.000  C
  C5       1.0000 0.34366  0.04706  0.76156  Biso   1.000  C
  C6       1.0000 0.21472  0.04745  0.89320  Biso   1.000  C
  C7       1.0000 0.34639  0.04719  0.89027  Biso   1.000  C
  C8       1.0000 0.25787  0.04601  0.80622  Biso   1.000  C
  H1       1.0000 0.22887  0.04422  0.77735  Biso   1.000  H
  C9       1.0000 0.26058  0.04614  0.93425  Biso   1.000  C
  H2       1.0000 0.23341  0.04445  0.99217  Biso   1.000  H
  C10      1.0000 0.38884  0.04575  0.80330  Biso   1.000  C
  H3       1.0000 0.44863  0.04379  0.77245  Biso   1.000  H
  C11      1.0000 0.78141  0.95760  0.10933  Biso   1.000  C
  C12      1.0000 0.65253  0.95722  0.10730  Biso   1.000  C
  C13      1.0000 0.65052  0.95733  0.23839  Biso   1.000  C
  C14      1.0000 0.73974  0.95616  0.06499  Biso   1.000  C
  H4       1.0000 0.77083  0.95439  0.00591  Biso   1.000  H
  C15      1.0000 0.60954  0.95590  0.19337  Biso   1.000  C
  H5       1.0000 0.55236  0.95394  0.22132  Biso   1.000  H
  C16      1.0000 0.73773  0.95628  0.19539  Biso   1.000  C
  H6       1.0000 0.76746  0.95458  0.22471  Biso   1.000  H
  C17      1.0000 0.34730  0.26281  0.10701  Biso   1.000  C
  C18      1.0000 0.34421  0.39444  0.10985  Biso   1.000  C
  C19      1.0000 0.21567  0.39144  0.23852  Biso   1.000  C
  C20      1.0000 0.38780  0.30833  0.06511  Biso   1.000  C
  H7       1.0000 0.44508  0.28069  0.00602  Biso   1.000  H
  C21      1.0000 0.25688  0.43628  0.19592  Biso   1.000  C
  H8       1.0000 0.22539  0.49538  0.22551  Biso   1.000  H
  C22      1.0000 0.25995  0.30535  0.19309  Biso   1.000  C
  H9       1.0000 0.23055  0.27569  0.22077  Biso   1.000  H
  C23      1.0000 0.64949  0.61192  0.89299  Biso   1.000  C
  C24      1.0000 0.65317  0.74015  0.88954  Biso   1.000  C
  C25      1.0000 0.78138  0.60840  0.76117  Biso   1.000  C
  C26      1.0000 0.60929  0.69792  0.93459  Biso   1.000  C
  H10      1.0000 0.55204  0.72772  0.99368  Biso   1.000  H
  C27      1.0000 0.74048  0.69441  0.80348  Biso   1.000  C
  H11      1.0000 0.77216  0.72184  0.77368  Biso   1.000  H
  C28      1.0000 0.73681  0.56686  0.80691  Biso   1.000  C
  H12      1.0000 0.76601  0.50782  0.77943  Biso   1.000  H
  O9       1.0000 0.36542  0.12897  0.11117  Biso   1.000  O
  O10      1.0000 0.48771  0.12934  0.98890  Biso   1.000  O
  C29      1.0000 0.40585  0.16440  0.06470  Biso   1.000  C
  O11      1.0000 0.51522  0.97936  0.11096  Biso   1.000  O
  O12      1.0000 0.63751  0.97972  0.98869  Biso   1.000  O
  C30      1.0000 0.59700  0.97349  0.06443  Biso   1.000  C
  Cu3      1.0000 0.42921  0.00126  0.06929  Biso   1.000  Cu
  Cu4      1.0000 0.57402  0.00169  0.92450  Biso   1.000  Cu
  O13      1.0000 0.51553  0.87361  0.00489  Biso   1.000  O
  O14      1.0000 0.63781  0.87397  0.88261  Biso   1.000  O
  O15      1.0000 0.36572  0.02322  0.00510  Biso   1.000  O
  O16      1.0000 0.48801  0.02359  0.88282  Biso   1.000  O
  C31      1.0000 0.59738  0.83855  0.92908  Biso   1.000  C
  C32      1.0000 0.40624  0.02946  0.92935  Biso   1.000  C
  C33      1.0000 0.65022  0.39395  0.10941  Biso   1.000  C
  C34      1.0000 0.78138  0.26315  0.10766  Biso   1.000  C
  C35      1.0000 0.65193  0.39234  0.23864  Biso   1.000  C
  C36      1.0000 0.73771  0.30794  0.06520  Biso   1.000  C
  H13      1.0000 0.76762  0.27987  0.00610  Biso   1.000  H
  C37      1.0000 0.73940  0.30634  0.19375  Biso   1.000  C
  H14      1.0000 0.77047  0.27718  0.22180  Biso   1.000  H
  C38      1.0000 0.60895  0.43644  0.19549  Biso   1.000  C
  H15      1.0000 0.55157  0.49549  0.22473  Biso   1.000  H
  C39      1.0000 0.34503  0.26329  0.54540  Biso   1.000  C
  C40      1.0000 0.34451  0.39365  0.54569  Biso   1.000  C
  C41      1.0000 0.21468  0.39328  0.54551  Biso   1.000  C
  C42      1.0000 0.38851  0.30667  0.54428  Biso   1.000  C
  H16      1.0000 0.44820  0.27694  0.54249  Biso   1.000  H
  C43      1.0000 0.25887  0.43598  0.54440  Biso   1.000  C
  H17      1.0000 0.23066  0.49391  0.54268  Biso   1.000  H
  C44      1.0000 0.25938  0.30631  0.54411  Biso   1.000  C
  H18      1.0000 0.23152  0.27632  0.54219  Biso   1.000  H
  C45      1.0000 0.65315  0.60867  0.45432  Biso   1.000  C
  C46      1.0000 0.65147  0.73961  0.45403  Biso   1.000  C
  C47      1.0000 0.78239  0.61049  0.45421  Biso   1.000  C
  C48      1.0000 0.60857  0.69556  0.45544  Biso   1.000  C
  H19      1.0000 0.54888  0.72478  0.45724  Biso   1.000  H
  C49      1.0000 0.73712  0.69736  0.45533  Biso   1.000  C
  H20      1.0000 0.76458  0.72781  0.45704  Biso   1.000  H
  C50      1.0000 0.73878  0.56712  0.45561  Biso   1.000  C
  H21      1.0000 0.76738  0.50927  0.45753  Biso   1.000  H
  C51      1.0000 0.21468  0.73999  0.89062  Biso   1.000  C
  C52      1.0000 0.34566  0.60861  0.76184  Biso   1.000  C
  C53      1.0000 0.34346  0.61096  0.89302  Biso   1.000  C
  C54      1.0000 0.26015  0.69561  0.80378  Biso   1.000  C
  H22      1.0000 0.23290  0.72468  0.77315  Biso   1.000  H
  C55      1.0000 0.38824  0.56727  0.80616  Biso   1.000  C
  H23      1.0000 0.44784  0.50934  0.77714  Biso   1.000  H
  C56      1.0000 0.25797  0.69794  0.93426  Biso   1.000  C
  H24      1.0000 0.22924  0.72860  0.99209  Biso   1.000  H
  O17      1.0000 0.89269  0.12946  0.11419  Biso   1.000  O
  O18      1.0000 0.89282  0.12951  0.99169  Biso   1.000  O
  C57      1.0000 0.86356  0.16473  0.06754  Biso   1.000  C
  O19      1.0000 0.10426  0.02368  0.00852  Biso   1.000  O
  O20      1.0000 0.10439  0.02373  0.88601  Biso   1.000  O
  C58      1.0000 0.13352  0.02975  0.93269  Biso   1.000  C
  Cu5      1.0000 0.99846  0.00177  0.07259  Biso   1.000  Cu
  Cu6      1.0000 0.99861  0.00183  0.92752  Biso   1.000  Cu
  O21      1.0000 0.10425  0.87408  0.00842  Biso   1.000  O
  O22      1.0000 0.10438  0.87414  0.88591  Biso   1.000  O
  O23      1.0000 0.89268  0.97986  0.11410  Biso   1.000  O
  O24      1.0000 0.89281  0.97992  0.99159  Biso   1.000  O
  C59      1.0000 0.13351  0.83887  0.93257  Biso   1.000  C
  C60      1.0000 0.86355  0.97385  0.06741  Biso   1.000  C
  O25      1.0000 0.50893  0.61861  0.01118  Biso   1.000  O
  O26      1.0000 0.63164  0.49629  0.88863  Biso   1.000  O
  C61      1.0000 0.59086  0.57211  0.93537  Biso   1.000  C
  O27      1.0000 0.50911  0.51260  0.11677  Biso   1.000  O
  O28      1.0000 0.63182  0.39029  0.99422  Biso   1.000  O
  C62      1.0000 0.59109  0.43686  0.07011  Biso   1.000  C
  Cu7      1.0000 0.42308  0.57673  0.07511  Biso   1.000  Cu
  Cu8      1.0000 0.56838  0.43188  0.92999  Biso   1.000  Cu
  O29      1.0000 0.35982  0.51232  0.11648  Biso   1.000  O
  O30      1.0000 0.48252  0.39000  0.99392  Biso   1.000  O
  O31      1.0000 0.35964  0.61832  0.01089  Biso   1.000  O
  O32      1.0000 0.48234  0.49601  0.88833  Biso   1.000  O
  C63      1.0000 0.40059  0.43650  0.06973  Biso   1.000  C
  C64      1.0000 0.40036  0.57175  0.93500  Biso   1.000  C
  O33      1.0000 0.36046  0.02395  0.62750  Biso   1.000  O
  O34      1.0000 0.48360  0.02271  0.62731  Biso   1.000  O
  C65      1.0000 0.40138  0.02937  0.66265  Biso   1.000  C
  O35      1.0000 0.50920  0.87439  0.47790  Biso   1.000  O
  O36      1.0000 0.63235  0.87315  0.47771  Biso   1.000  O
  C66      1.0000 0.59117  0.83853  0.47176  Biso   1.000  C
  Cu9      1.0000 0.42394  0.00220  0.49983  Biso   1.000  Cu
  Cu10     1.0000 0.56977  0.00072  0.49961  Biso   1.000  Cu
  O37      1.0000 0.51011  0.98021  0.37213  Biso   1.000  O
  O38      1.0000 0.63326  0.97896  0.37194  Biso   1.000  O
  O39      1.0000 0.36136  0.12977  0.52173  Biso   1.000  O
  O40      1.0000 0.48451  0.12853  0.52154  Biso   1.000  O
  C67      1.0000 0.59233  0.97355  0.33679  Biso   1.000  C
  C68      1.0000 0.40254  0.16439  0.52768  Biso   1.000  C
  O41      1.0000 0.89313  0.61441  0.62775  Biso   1.000  O
  O42      1.0000 0.89233  0.49236  0.62733  Biso   1.000  O
  C69      1.0000 0.86353  0.56793  0.66279  Biso   1.000  C
  O43      1.0000 0.89314  0.61545  0.47816  Biso   1.000  O
  O44      1.0000 0.89234  0.49340  0.47775  Biso   1.000  O
  C70      1.0000 0.86355  0.56926  0.47191  Biso   1.000  C
  Cu11     1.0000 0.99899  0.57294  0.50010  Biso   1.000  Cu
  Cu12     1.0000 0.99805  0.42841  0.49961  Biso   1.000  Cu
  O45      1.0000 0.10470  0.50899  0.37238  Biso   1.000  O
  O46      1.0000 0.10391  0.38694  0.37196  Biso   1.000  O
  O47      1.0000 0.10469  0.50795  0.52197  Biso   1.000  O
  O48      1.0000 0.10390  0.38590  0.52155  Biso   1.000  O
  C71      1.0000 0.13350  0.43342  0.33693  Biso   1.000  C
  C72      1.0000 0.13349  0.43209  0.52780  Biso   1.000  C
