data_image0
_cell_length_a       17.342
_cell_length_b       15.8773
_cell_length_c       18.855
_cell_angle_alpha    90
_cell_angle_beta     90
_cell_angle_gamma    90

_symmetry_space_group_name_H-M    "P 1"
_symmetry_int_tables_number       1

loop_
  _symmetry_equiv_pos_as_xyz
  'x, y, z'

loop_
  _atom_site_label
  _atom_site_occupancy
  _atom_site_fract_x
  _atom_site_fract_y
  _atom_site_fract_z
  _atom_site_thermal_displace_type
  _atom_site_B_iso_or_equiv
  _atom_site_type_symbol
  Zn1      1.0000 0.24225  0.01105  0.03270  Biso   1.000  Zn
  O1       1.0000 0.19938  0.89620  0.02116  Biso   1.000  O
  N1       1.0000 0.26991  0.12310  0.83323  Biso   1.000  N
  N2       1.0000 0.26185  0.05070  0.93049  Biso   1.000  N
  O2       1.0000 0.60257  0.52019  0.00032  Biso   1.000  O
  N3       1.0000 0.35167  0.96679  0.05481  Biso   1.000  N
  C1       1.0000 0.37716  0.89340  0.03356  Biso   1.000  C
  H1       1.0000 0.35010  0.85630  0.00460  Biso   1.000  H
  O3       1.0000 0.23063  0.13234  0.06728  Biso   1.000  O
  C2       1.0000 0.50490  0.65820  0.03028  Biso   1.000  C
  H2       1.0000 0.48240  0.60500  0.02940  Biso   1.000  H
  N4       1.0000 0.44782  0.87953  0.05964  Biso   1.000  N
  O4       1.0000 0.22450  0.04015  0.15257  Biso   1.000  O
  N5       1.0000 0.31000  0.00723  0.88504  Biso   1.000  N
  C3       1.0000 0.57193  0.81760  0.03030  Biso   1.000  C
  H3       1.0000 0.59380  0.87110  0.02970  Biso   1.000  H
  C4       1.0000 0.23879  0.11940  0.89865  Biso   1.000  C
  H4       1.0000 0.20600  0.15950  0.91810  Biso   1.000  H
  C5       1.0000 0.49475  0.80674  0.04633  Biso   1.000  C
  C6       1.0000 0.63066  0.59118  0.99669  Biso   1.000  C
  C7       1.0000 0.61584  0.74730  0.01490  Biso   1.000  C
  H5       1.0000 0.66800  0.75340  0.00490  Biso   1.000  H
  C8       1.0000 0.23990  0.31540  0.68446  Biso   1.000  C
  C9       1.0000 0.58313  0.66755  0.01443  Biso   1.000  C
  C10      1.0000 0.31410  0.05180  0.82721  Biso   1.000  C
  H6       1.0000 0.34290  0.03730  0.78740  Biso   1.000  H
  C11      1.0000 0.24490  0.23290  0.66170  Biso   1.000  C
  H7       1.0000 0.24160  0.22050  0.61360  Biso   1.000  H
  C12      1.0000 0.46098  0.72775  0.04730  Biso   1.000  C
  H8       1.0000 0.40930  0.72170  0.05930  Biso   1.000  H
  C13      1.0000 0.26067  0.18820  0.78182  Biso   1.000  C
  N6       1.0000 0.40610  0.00190  0.09790  Biso   1.000  N
  C14      1.0000 0.25790  0.27150  0.80530  Biso   1.000  C
  H9       1.0000 0.26350  0.28440  0.85320  Biso   1.000  H
  C15      1.0000 0.25510  0.16780  0.71105  Biso   1.000  C
  H10      1.0000 0.25800  0.11200  0.69630  Biso   1.000  H
  C16      1.0000 0.23034  0.11340  0.13210  Biso   1.000  C
  C17      1.0000 0.24670  0.33460  0.75530  Biso   1.000  C
  H11      1.0000 0.24380  0.39050  0.77000  Biso   1.000  H
  C18      1.0000 0.46320  0.94840  0.09910  Biso   1.000  C
  H12      1.0000 0.50880  0.95680  0.12410  Biso   1.000  H
  Zn2      1.0000 0.74225  0.48895  0.96730  Biso   1.000  Zn
  O5       1.0000 0.69938  0.60380  0.97884  Biso   1.000  O
  N7       1.0000 0.76991  0.37690  0.16677  Biso   1.000  N
  N8       1.0000 0.76185  0.44930  0.06951  Biso   1.000  N
  O6       1.0000 0.10257  0.97981  0.99968  Biso   1.000  O
  N9       1.0000 0.85167  0.53321  0.94519  Biso   1.000  N
  C19      1.0000 0.87716  0.60660  0.96644  Biso   1.000  C
  H13      1.0000 0.85010  0.64370  0.99540  Biso   1.000  H
  O7       1.0000 0.73063  0.36766  0.93272  Biso   1.000  O
  C20      1.0000 0.00490  0.84180  0.96972  Biso   1.000  C
  H14      1.0000 0.98240  0.89500  0.97060  Biso   1.000  H
  N10      1.0000 0.94782  0.62047  0.94036  Biso   1.000  N
  O8       1.0000 0.72450  0.45985  0.84743  Biso   1.000  O
  N11      1.0000 0.81000  0.49277  0.11496  Biso   1.000  N
  C21      1.0000 0.07193  0.68240  0.96970  Biso   1.000  C
  H15      1.0000 0.09380  0.62890  0.97030  Biso   1.000  H
  C22      1.0000 0.73879  0.38060  0.10135  Biso   1.000  C
  H16      1.0000 0.70600  0.34050  0.08190  Biso   1.000  H
  C23      1.0000 0.99475  0.69326  0.95367  Biso   1.000  C
  C24      1.0000 0.13066  0.90882  0.00331  Biso   1.000  C
  C25      1.0000 0.11584  0.75270  0.98510  Biso   1.000  C
  H17      1.0000 0.16800  0.74660  0.99510  Biso   1.000  H
  C26      1.0000 0.73990  0.18460  0.31554  Biso   1.000  C
  C27      1.0000 0.08313  0.83245  0.98557  Biso   1.000  C
  C28      1.0000 0.81410  0.44820  0.17279  Biso   1.000  C
  H18      1.0000 0.84290  0.46270  0.21260  Biso   1.000  H
  C29      1.0000 0.74490  0.26710  0.33830  Biso   1.000  C
  H19      1.0000 0.74160  0.27950  0.38640  Biso   1.000  H
  C30      1.0000 0.96098  0.77225  0.95270  Biso   1.000  C
  H20      1.0000 0.90930  0.77830  0.94070  Biso   1.000  H
  C31      1.0000 0.76067  0.31180  0.21818  Biso   1.000  C
  N12      1.0000 0.90610  0.49810  0.90210  Biso   1.000  N
  C32      1.0000 0.75790  0.22850  0.19470  Biso   1.000  C
  H21      1.0000 0.76350  0.21560  0.14680  Biso   1.000  H
  C33      1.0000 0.75510  0.33220  0.28895  Biso   1.000  C
  H22      1.0000 0.75800  0.38800  0.30370  Biso   1.000  H
  C34      1.0000 0.73034  0.38660  0.86790  Biso   1.000  C
  C35      1.0000 0.74670  0.16540  0.24470  Biso   1.000  C
  H23      1.0000 0.74380  0.10950  0.23000  Biso   1.000  H
  C36      1.0000 0.96320  0.55160  0.90090  Biso   1.000  C
  H24      1.0000 0.00880  0.54320  0.87590  Biso   1.000  H
  Zn3      1.0000 0.74225  0.01105  0.46730  Biso   1.000  Zn
  O9       1.0000 0.69938  0.89620  0.47884  Biso   1.000  O
  N13      1.0000 0.76991  0.12310  0.66677  Biso   1.000  N
  N14      1.0000 0.76185  0.05070  0.56951  Biso   1.000  N
  O10      1.0000 0.10257  0.52019  0.49968  Biso   1.000  O
  N15      1.0000 0.85167  0.96679  0.44519  Biso   1.000  N
  C37      1.0000 0.87716  0.89340  0.46644  Biso   1.000  C
  H25      1.0000 0.85010  0.85630  0.49540  Biso   1.000  H
  O11      1.0000 0.73063  0.13234  0.43272  Biso   1.000  O
  C38      1.0000 0.00490  0.65820  0.46972  Biso   1.000  C
  H26      1.0000 0.98240  0.60500  0.47060  Biso   1.000  H
  N16      1.0000 0.94782  0.87953  0.44036  Biso   1.000  N
  O12      1.0000 0.72450  0.04015  0.34743  Biso   1.000  O
  N17      1.0000 0.81000  0.00723  0.61496  Biso   1.000  N
  C39      1.0000 0.07193  0.81760  0.46970  Biso   1.000  C
  H27      1.0000 0.09380  0.87110  0.47030  Biso   1.000  H
  C40      1.0000 0.73879  0.11940  0.60135  Biso   1.000  C
  H28      1.0000 0.70600  0.15950  0.58190  Biso   1.000  H
  C41      1.0000 0.99475  0.80674  0.45367  Biso   1.000  C
  C42      1.0000 0.13066  0.59118  0.50331  Biso   1.000  C
  C43      1.0000 0.11584  0.74730  0.48510  Biso   1.000  C
  H29      1.0000 0.16800  0.75340  0.49510  Biso   1.000  H
  C44      1.0000 0.73990  0.31540  0.81554  Biso   1.000  C
  C45      1.0000 0.08313  0.66755  0.48557  Biso   1.000  C
  C46      1.0000 0.81410  0.05180  0.67279  Biso   1.000  C
  H30      1.0000 0.84290  0.03730  0.71260  Biso   1.000  H
  C47      1.0000 0.74490  0.23290  0.83830  Biso   1.000  C
  H31      1.0000 0.74160  0.22050  0.88640  Biso   1.000  H
  C48      1.0000 0.96098  0.72775  0.45270  Biso   1.000  C
  H32      1.0000 0.90930  0.72170  0.44070  Biso   1.000  H
  C49      1.0000 0.76067  0.18820  0.71818  Biso   1.000  C
  N18      1.0000 0.90610  0.00190  0.40210  Biso   1.000  N
  C50      1.0000 0.75790  0.27150  0.69470  Biso   1.000  C
  H33      1.0000 0.76350  0.28440  0.64680  Biso   1.000  H
  C51      1.0000 0.75510  0.16780  0.78895  Biso   1.000  C
  H34      1.0000 0.75800  0.11200  0.80370  Biso   1.000  H
  C52      1.0000 0.73034  0.11340  0.36790  Biso   1.000  C
  C53      1.0000 0.74670  0.33460  0.74470  Biso   1.000  C
  H35      1.0000 0.74380  0.39050  0.73000  Biso   1.000  H
  C54      1.0000 0.96320  0.94840  0.40090  Biso   1.000  C
  H36      1.0000 0.00880  0.95680  0.37590  Biso   1.000  H
  Zn4      1.0000 0.24225  0.48895  0.53270  Biso   1.000  Zn
  O13      1.0000 0.19938  0.60380  0.52116  Biso   1.000  O
  N19      1.0000 0.26991  0.37690  0.33323  Biso   1.000  N
  N20      1.0000 0.26185  0.44930  0.43049  Biso   1.000  N
  O14      1.0000 0.60257  0.97981  0.50032  Biso   1.000  O
  N21      1.0000 0.35167  0.53321  0.55481  Biso   1.000  N
  C55      1.0000 0.37716  0.60660  0.53356  Biso   1.000  C
  H37      1.0000 0.35010  0.64370  0.50460  Biso   1.000  H
  O15      1.0000 0.23063  0.36766  0.56728  Biso   1.000  O
  C56      1.0000 0.50490  0.84180  0.53028  Biso   1.000  C
  H38      1.0000 0.48240  0.89500  0.52940  Biso   1.000  H
  N22      1.0000 0.44782  0.62047  0.55964  Biso   1.000  N
  O16      1.0000 0.22450  0.45985  0.65257  Biso   1.000  O
  N23      1.0000 0.31000  0.49277  0.38504  Biso   1.000  N
  C57      1.0000 0.57193  0.68240  0.53030  Biso   1.000  C
  H39      1.0000 0.59380  0.62890  0.52970  Biso   1.000  H
  C58      1.0000 0.23879  0.38060  0.39865  Biso   1.000  C
  H40      1.0000 0.20600  0.34050  0.41810  Biso   1.000  H
  C59      1.0000 0.49475  0.69326  0.54633  Biso   1.000  C
  C60      1.0000 0.63066  0.90882  0.49669  Biso   1.000  C
  C61      1.0000 0.61584  0.75270  0.51490  Biso   1.000  C
  H41      1.0000 0.66800  0.74660  0.50490  Biso   1.000  H
  C62      1.0000 0.23990  0.18460  0.18446  Biso   1.000  C
  C63      1.0000 0.58313  0.83245  0.51443  Biso   1.000  C
  C64      1.0000 0.31410  0.44820  0.32721  Biso   1.000  C
  H42      1.0000 0.34290  0.46270  0.28740  Biso   1.000  H
  C65      1.0000 0.24490  0.26710  0.16170  Biso   1.000  C
  H43      1.0000 0.24160  0.27950  0.11360  Biso   1.000  H
  C66      1.0000 0.46098  0.77225  0.54730  Biso   1.000  C
  H44      1.0000 0.40930  0.77830  0.55930  Biso   1.000  H
  C67      1.0000 0.26067  0.31180  0.28182  Biso   1.000  C
  N24      1.0000 0.40610  0.49810  0.59790  Biso   1.000  N
  C68      1.0000 0.25790  0.22850  0.30530  Biso   1.000  C
  H45      1.0000 0.26350  0.21560  0.35320  Biso   1.000  H
  C69      1.0000 0.25510  0.33220  0.21105  Biso   1.000  C
  H46      1.0000 0.25800  0.38800  0.19630  Biso   1.000  H
  C70      1.0000 0.23034  0.38660  0.63210  Biso   1.000  C
  C71      1.0000 0.24670  0.16540  0.25530  Biso   1.000  C
  H47      1.0000 0.24380  0.10950  0.27000  Biso   1.000  H
  C72      1.0000 0.46320  0.55160  0.59910  Biso   1.000  C
  H48      1.0000 0.50880  0.54320  0.62410  Biso   1.000  H
  Zn5      1.0000 0.25775  0.98895  0.53270  Biso   1.000  Zn
  O17      1.0000 0.30062  0.10380  0.52116  Biso   1.000  O
  N25      1.0000 0.23009  0.87690  0.33323  Biso   1.000  N
  N26      1.0000 0.23815  0.94930  0.43049  Biso   1.000  N
  O18      1.0000 0.89743  0.47981  0.50032  Biso   1.000  O
  N27      1.0000 0.14833  0.03321  0.55481  Biso   1.000  N
  C73      1.0000 0.12284  0.10660  0.53356  Biso   1.000  C
  H49      1.0000 0.14990  0.14370  0.50460  Biso   1.000  H
  O19      1.0000 0.26937  0.86766  0.56728  Biso   1.000  O
  C74      1.0000 0.99510  0.34180  0.53028  Biso   1.000  C
  H50      1.0000 0.01760  0.39500  0.52940  Biso   1.000  H
  N28      1.0000 0.05218  0.12047  0.55964  Biso   1.000  N
  O20      1.0000 0.27550  0.95985  0.65257  Biso   1.000  O
  N29      1.0000 0.19000  0.99277  0.38504  Biso   1.000  N
  C75      1.0000 0.92807  0.18240  0.53030  Biso   1.000  C
  H51      1.0000 0.90620  0.12890  0.52970  Biso   1.000  H
  C76      1.0000 0.26121  0.88060  0.39865  Biso   1.000  C
  H52      1.0000 0.29400  0.84050  0.41810  Biso   1.000  H
  C77      1.0000 0.00525  0.19326  0.54633  Biso   1.000  C
  C78      1.0000 0.86934  0.40882  0.49669  Biso   1.000  C
  C79      1.0000 0.88416  0.25270  0.51490  Biso   1.000  C
  H53      1.0000 0.83200  0.24660  0.50490  Biso   1.000  H
  C80      1.0000 0.26010  0.68460  0.18446  Biso   1.000  C
  C81      1.0000 0.91687  0.33245  0.51443  Biso   1.000  C
  C82      1.0000 0.18590  0.94820  0.32721  Biso   1.000  C
  H54      1.0000 0.15710  0.96270  0.28740  Biso   1.000  H
  C83      1.0000 0.25510  0.76710  0.16170  Biso   1.000  C
  H55      1.0000 0.25840  0.77950  0.11360  Biso   1.000  H
  C84      1.0000 0.03902  0.27225  0.54730  Biso   1.000  C
  H56      1.0000 0.09070  0.27830  0.55930  Biso   1.000  H
  C85      1.0000 0.23933  0.81180  0.28182  Biso   1.000  C
  N30      1.0000 0.09390  0.99810  0.59790  Biso   1.000  N
  C86      1.0000 0.24210  0.72850  0.30530  Biso   1.000  C
  H57      1.0000 0.23650  0.71560  0.35320  Biso   1.000  H
  C87      1.0000 0.24490  0.83220  0.21105  Biso   1.000  C
  H58      1.0000 0.24200  0.88800  0.19630  Biso   1.000  H
  C88      1.0000 0.26966  0.88660  0.63210  Biso   1.000  C
  C89      1.0000 0.25330  0.66540  0.25530  Biso   1.000  C
  H59      1.0000 0.25620  0.60950  0.27000  Biso   1.000  H
  C90      1.0000 0.03680  0.05160  0.59910  Biso   1.000  C
  H60      1.0000 0.99120  0.04320  0.62410  Biso   1.000  H
  Zn6      1.0000 0.75775  0.51105  0.46730  Biso   1.000  Zn
  O21      1.0000 0.80062  0.39620  0.47884  Biso   1.000  O
  N31      1.0000 0.73009  0.62310  0.66677  Biso   1.000  N
  N32      1.0000 0.73815  0.55070  0.56951  Biso   1.000  N
  O22      1.0000 0.39743  0.02019  0.49968  Biso   1.000  O
  N33      1.0000 0.64833  0.46679  0.44519  Biso   1.000  N
  C91      1.0000 0.62284  0.39340  0.46644  Biso   1.000  C
  H61      1.0000 0.64990  0.35630  0.49540  Biso   1.000  H
  O23      1.0000 0.76937  0.63234  0.43272  Biso   1.000  O
  C92      1.0000 0.49510  0.15820  0.46972  Biso   1.000  C
  H62      1.0000 0.51760  0.10500  0.47060  Biso   1.000  H
  N34      1.0000 0.55218  0.37953  0.44036  Biso   1.000  N
  O24      1.0000 0.77550  0.54015  0.34743  Biso   1.000  O
  N35      1.0000 0.69000  0.50723  0.61496  Biso   1.000  N
  C93      1.0000 0.42807  0.31760  0.46970  Biso   1.000  C
  H63      1.0000 0.40620  0.37110  0.47030  Biso   1.000  H
  C94      1.0000 0.76121  0.61940  0.60135  Biso   1.000  C
  H64      1.0000 0.79400  0.65950  0.58190  Biso   1.000  H
  C95      1.0000 0.50525  0.30674  0.45367  Biso   1.000  C
  C96      1.0000 0.36934  0.09118  0.50331  Biso   1.000  C
  C97      1.0000 0.38416  0.24730  0.48510  Biso   1.000  C
  H65      1.0000 0.33200  0.25340  0.49510  Biso   1.000  H
  C98      1.0000 0.76010  0.81540  0.81554  Biso   1.000  C
  C99      1.0000 0.41687  0.16755  0.48557  Biso   1.000  C
  C100     1.0000 0.68590  0.55180  0.67279  Biso   1.000  C
  H66      1.0000 0.65710  0.53730  0.71260  Biso   1.000  H
  C101     1.0000 0.75510  0.73290  0.83830  Biso   1.000  C
  H67      1.0000 0.75840  0.72050  0.88640  Biso   1.000  H
  C102     1.0000 0.53902  0.22775  0.45270  Biso   1.000  C
  H68      1.0000 0.59070  0.22170  0.44070  Biso   1.000  H
  C103     1.0000 0.73933  0.68820  0.71818  Biso   1.000  C
  N36      1.0000 0.59390  0.50190  0.40210  Biso   1.000  N
  C104     1.0000 0.74210  0.77150  0.69470  Biso   1.000  C
  H69      1.0000 0.73650  0.78440  0.64680  Biso   1.000  H
  C105     1.0000 0.74490  0.66780  0.78895  Biso   1.000  C
  H70      1.0000 0.74200  0.61200  0.80370  Biso   1.000  H
  C106     1.0000 0.76966  0.61340  0.36790  Biso   1.000  C
  C107     1.0000 0.75330  0.83460  0.74470  Biso   1.000  C
  H71      1.0000 0.75620  0.89050  0.73000  Biso   1.000  H
  C108     1.0000 0.53680  0.44840  0.40090  Biso   1.000  C
  H72      1.0000 0.49120  0.45680  0.37590  Biso   1.000  H
  Zn7      1.0000 0.75775  0.98895  0.96730  Biso   1.000  Zn
  O25      1.0000 0.80062  0.10380  0.97884  Biso   1.000  O
  N37      1.0000 0.73009  0.87690  0.16677  Biso   1.000  N
  N38      1.0000 0.73815  0.94930  0.06951  Biso   1.000  N
  O26      1.0000 0.39743  0.47981  0.99968  Biso   1.000  O
  N39      1.0000 0.64833  0.03321  0.94519  Biso   1.000  N
  C109     1.0000 0.62284  0.10660  0.96644  Biso   1.000  C
  H73      1.0000 0.64990  0.14370  0.99540  Biso   1.000  H
  O27      1.0000 0.76937  0.86766  0.93272  Biso   1.000  O
  C110     1.0000 0.49510  0.34180  0.96972  Biso   1.000  C
  H74      1.0000 0.51760  0.39500  0.97060  Biso   1.000  H
  N40      1.0000 0.55218  0.12047  0.94036  Biso   1.000  N
  O28      1.0000 0.77550  0.95985  0.84743  Biso   1.000  O
  N41      1.0000 0.69000  0.99277  0.11496  Biso   1.000  N
  C111     1.0000 0.42807  0.18240  0.96970  Biso   1.000  C
  H75      1.0000 0.40620  0.12890  0.97030  Biso   1.000  H
  C112     1.0000 0.76121  0.88060  0.10135  Biso   1.000  C
  H76      1.0000 0.79400  0.84050  0.08190  Biso   1.000  H
  C113     1.0000 0.50525  0.19326  0.95367  Biso   1.000  C
  C114     1.0000 0.36934  0.40882  0.00331  Biso   1.000  C
  C115     1.0000 0.38416  0.25270  0.98510  Biso   1.000  C
  H77      1.0000 0.33200  0.24660  0.99510  Biso   1.000  H
  C116     1.0000 0.76010  0.68460  0.31554  Biso   1.000  C
  C117     1.0000 0.41687  0.33245  0.98557  Biso   1.000  C
  C118     1.0000 0.68590  0.94820  0.17279  Biso   1.000  C
  H78      1.0000 0.65710  0.96270  0.21260  Biso   1.000  H
  C119     1.0000 0.75510  0.76710  0.33830  Biso   1.000  C
  H79      1.0000 0.75840  0.77950  0.38640  Biso   1.000  H
  C120     1.0000 0.53902  0.27225  0.95270  Biso   1.000  C
  H80      1.0000 0.59070  0.27830  0.94070  Biso   1.000  H
  C121     1.0000 0.73933  0.81180  0.21818  Biso   1.000  C
  N42      1.0000 0.59390  0.99810  0.90210  Biso   1.000  N
  C122     1.0000 0.74210  0.72850  0.19470  Biso   1.000  C
  H81      1.0000 0.73650  0.71560  0.14680  Biso   1.000  H
  C123     1.0000 0.74490  0.83220  0.28895  Biso   1.000  C
  H82      1.0000 0.74200  0.88800  0.30370  Biso   1.000  H
  C124     1.0000 0.76966  0.88660  0.86790  Biso   1.000  C
  C125     1.0000 0.75330  0.66540  0.24470  Biso   1.000  C
  H83      1.0000 0.75620  0.60950  0.23000  Biso   1.000  H
  C126     1.0000 0.53680  0.05160  0.90090  Biso   1.000  C
  H84      1.0000 0.49120  0.04320  0.87590  Biso   1.000  H
  Zn8      1.0000 0.25775  0.51105  0.03270  Biso   1.000  Zn
  O29      1.0000 0.30062  0.39620  0.02116  Biso   1.000  O
  N43      1.0000 0.23009  0.62310  0.83323  Biso   1.000  N
  N44      1.0000 0.23815  0.55070  0.93049  Biso   1.000  N
  O30      1.0000 0.89743  0.02019  0.00032  Biso   1.000  O
  N45      1.0000 0.14833  0.46679  0.05481  Biso   1.000  N
  C127     1.0000 0.12284  0.39340  0.03356  Biso   1.000  C
  H85      1.0000 0.14990  0.35630  0.00460  Biso   1.000  H
  O31      1.0000 0.26937  0.63234  0.06728  Biso   1.000  O
  C128     1.0000 0.99510  0.15820  0.03028  Biso   1.000  C
  H86      1.0000 0.01760  0.10500  0.02940  Biso   1.000  H
  N46      1.0000 0.05218  0.37953  0.05964  Biso   1.000  N
  O32      1.0000 0.27550  0.54015  0.15257  Biso   1.000  O
  N47      1.0000 0.19000  0.50723  0.88504  Biso   1.000  N
  C129     1.0000 0.92807  0.31760  0.03030  Biso   1.000  C
  H87      1.0000 0.90620  0.37110  0.02970  Biso   1.000  H
  C130     1.0000 0.26121  0.61940  0.89865  Biso   1.000  C
  H88      1.0000 0.29400  0.65950  0.91810  Biso   1.000  H
  C131     1.0000 0.00525  0.30674  0.04633  Biso   1.000  C
  C132     1.0000 0.86934  0.09118  0.99669  Biso   1.000  C
  C133     1.0000 0.88416  0.24730  0.01490  Biso   1.000  C
  H89      1.0000 0.83200  0.25340  0.00490  Biso   1.000  H
  C134     1.0000 0.26010  0.81540  0.68446  Biso   1.000  C
  C135     1.0000 0.91687  0.16755  0.01443  Biso   1.000  C
  C136     1.0000 0.18590  0.55180  0.82721  Biso   1.000  C
  H90      1.0000 0.15710  0.53730  0.78740  Biso   1.000  H
  C137     1.0000 0.25510  0.73290  0.66170  Biso   1.000  C
  H91      1.0000 0.25840  0.72050  0.61360  Biso   1.000  H
  C138     1.0000 0.03902  0.22775  0.04730  Biso   1.000  C
  H92      1.0000 0.09070  0.22170  0.05930  Biso   1.000  H
  C139     1.0000 0.23933  0.68820  0.78182  Biso   1.000  C
  N48      1.0000 0.09390  0.50190  0.09790  Biso   1.000  N
  C140     1.0000 0.24210  0.77150  0.80530  Biso   1.000  C
  H93      1.0000 0.23650  0.78440  0.85320  Biso   1.000  H
  C141     1.0000 0.24490  0.66780  0.71105  Biso   1.000  C
  H94      1.0000 0.24200  0.61200  0.69630  Biso   1.000  H
  C142     1.0000 0.26966  0.61340  0.13210  Biso   1.000  C
  C143     1.0000 0.25330  0.83460  0.75530  Biso   1.000  C
  H95      1.0000 0.25620  0.89050  0.77000  Biso   1.000  H
  C144     1.0000 0.03680  0.44840  0.09910  Biso   1.000  C
  H96      1.0000 0.99120  0.45680  0.12410  Biso   1.000  H
