data_image0
_cell_length_a       32.4965
_cell_length_b       32.4965
_cell_length_c       13.1823
_cell_angle_alpha    90
_cell_angle_beta     90
_cell_angle_gamma    120

_symmetry_space_group_name_H-M    "P 1"
_symmetry_int_tables_number       1

loop_
  _symmetry_equiv_pos_as_xyz
  'x, y, z'

loop_
  _atom_site_label
  _atom_site_occupancy
  _atom_site_fract_x
  _atom_site_fract_y
  _atom_site_fract_z
  _atom_site_thermal_displace_type
  _atom_site_B_iso_or_equiv
  _atom_site_type_symbol
  Zn1      1.0000 0.70980  0.01091  0.90866  Biso   1.000  Zn
  Zn2      1.0000 0.66333  0.89187  0.35209  Biso   1.000  Zn
  Zn3      1.0000 0.66940  0.83421  0.66545  Biso   1.000  Zn
  P1       1.0000 0.66787  0.04072  0.72949  Biso   1.000  P
  P2       1.0000 0.67762  0.90771  0.84354  Biso   1.000  P
  P3       1.0000 0.59627  0.85071  0.54553  Biso   1.000  P
  P4       1.0000 0.72527  0.85466  0.46583  Biso   1.000  P
  O1       1.0000 0.68776  0.04860  0.83714  Biso   1.000  O
  O2       1.0000 0.67822  0.98369  0.03648  Biso   1.000  O
  O3       1.0000 0.69505  0.95990  0.31869  Biso   1.000  O
  O4       1.0000 0.70989  0.96103  0.82737  Biso   1.000  O
  O5       1.0000 0.69163  0.88140  0.76973  Biso   1.000  O
  O6       1.0000 0.65461  0.77237  0.71359  Biso   1.000  O
  O7       1.0000 0.61466  0.81801  0.57862  Biso   1.000  O
  O8       1.0000 0.60798  0.86768  0.43697  Biso   1.000  O
  O9       1.0000 0.77531  0.05248  0.95322  Biso   1.000  O
  O10      1.0000 0.72498  0.86783  0.57657  Biso   1.000  O
  O11      1.0000 0.71645  0.88509  0.39304  Biso   1.000  O
  O12      1.0000 0.64010  0.86488  0.21758  Biso   1.000  O
  O13      1.0000 0.63900  0.06660  0.73020  Biso   1.000  O
  O14      1.0000 0.62610  0.89150  0.82000  Biso   1.000  O
  H1       1.0000 0.63140  0.05140  0.73130  Biso   1.000  H
  H2       1.0000 0.63080  0.89540  0.82680  Biso   1.000  H
  H3       1.0000 0.55050  0.82500  0.54910  Biso   1.000  H
  H4       1.0000 0.76950  0.86210  0.45400  Biso   1.000  H
  Zn4      1.0000 0.37646  0.34425  0.24199  Biso   1.000  Zn
  Zn5      1.0000 0.33000  0.22521  0.68542  Biso   1.000  Zn
  Zn6      1.0000 0.33607  0.16754  0.99878  Biso   1.000  Zn
  P5       1.0000 0.33454  0.37405  0.06282  Biso   1.000  P
  P6       1.0000 0.34429  0.24104  0.17687  Biso   1.000  P
  P7       1.0000 0.26294  0.18404  0.87886  Biso   1.000  P
  P8       1.0000 0.39194  0.18799  0.79916  Biso   1.000  P
  O15      1.0000 0.35443  0.38193  0.17047  Biso   1.000  O
  O16      1.0000 0.34489  0.31702  0.36981  Biso   1.000  O
  O17      1.0000 0.36172  0.29323  0.65202  Biso   1.000  O
  O18      1.0000 0.37656  0.29436  0.16070  Biso   1.000  O
  O19      1.0000 0.35830  0.21473  0.10306  Biso   1.000  O
  O20      1.0000 0.32128  0.10570  0.04692  Biso   1.000  O
  O21      1.0000 0.28133  0.15134  0.91195  Biso   1.000  O
  O22      1.0000 0.27465  0.20101  0.77030  Biso   1.000  O
  O23      1.0000 0.44198  0.38581  0.28655  Biso   1.000  O
  O24      1.0000 0.39165  0.20116  0.90990  Biso   1.000  O
  O25      1.0000 0.38312  0.21842  0.72637  Biso   1.000  O
  O26      1.0000 0.30677  0.19821  0.55091  Biso   1.000  O
  O27      1.0000 0.30567  0.39993  0.06353  Biso   1.000  O
  O28      1.0000 0.29277  0.22483  0.15333  Biso   1.000  O
  H5       1.0000 0.29807  0.38473  0.06463  Biso   1.000  H
  H6       1.0000 0.29747  0.22873  0.16013  Biso   1.000  H
  H7       1.0000 0.21717  0.15833  0.88243  Biso   1.000  H
  H8       1.0000 0.43617  0.19543  0.78733  Biso   1.000  H
  Zn7      1.0000 0.04313  0.67758  0.57533  Biso   1.000  Zn
  Zn8      1.0000 0.99667  0.55854  0.01876  Biso   1.000  Zn
  Zn9      1.0000 0.00273  0.50088  0.33212  Biso   1.000  Zn
  P9       1.0000 0.00120  0.70739  0.39616  Biso   1.000  P
  P10      1.0000 0.01095  0.57438  0.51021  Biso   1.000  P
  P11      1.0000 0.92960  0.51738  0.21220  Biso   1.000  P
  P12      1.0000 0.05860  0.52133  0.13250  Biso   1.000  P
  O29      1.0000 0.02109  0.71527  0.50381  Biso   1.000  O
  O30      1.0000 0.01155  0.65036  0.70315  Biso   1.000  O
  O31      1.0000 0.02838  0.62657  0.98536  Biso   1.000  O
  O32      1.0000 0.04322  0.62770  0.49404  Biso   1.000  O
  O33      1.0000 0.02496  0.54807  0.43640  Biso   1.000  O
  O34      1.0000 0.98794  0.43904  0.38026  Biso   1.000  O
  O35      1.0000 0.94799  0.48468  0.24529  Biso   1.000  O
  O36      1.0000 0.94131  0.53435  0.10364  Biso   1.000  O
  O37      1.0000 0.10864  0.71915  0.61989  Biso   1.000  O
  O38      1.0000 0.05831  0.53450  0.24324  Biso   1.000  O
  O39      1.0000 0.04978  0.55176  0.05971  Biso   1.000  O
  O40      1.0000 0.97343  0.53155  0.88425  Biso   1.000  O
  O41      1.0000 0.97233  0.73327  0.39687  Biso   1.000  O
  O42      1.0000 0.95943  0.55817  0.48667  Biso   1.000  O
  H9       1.0000 0.96473  0.71807  0.39797  Biso   1.000  H
  H10      1.0000 0.96413  0.56207  0.49347  Biso   1.000  H
  H11      1.0000 0.88383  0.49167  0.21577  Biso   1.000  H
  H12      1.0000 0.10283  0.52877  0.12067  Biso   1.000  H
  Zn10     1.0000 0.98909  0.69888  0.90866  Biso   1.000  Zn
  Zn11     1.0000 0.10813  0.77146  0.35209  Biso   1.000  Zn
  Zn12     1.0000 0.16579  0.83519  0.66545  Biso   1.000  Zn
  P13      1.0000 0.95928  0.62715  0.72949  Biso   1.000  P
  P14      1.0000 0.09229  0.76991  0.84354  Biso   1.000  P
  P15      1.0000 0.14929  0.74556  0.54553  Biso   1.000  P
  P16      1.0000 0.14534  0.87061  0.46583  Biso   1.000  P
  O43      1.0000 0.95140  0.63916  0.83714  Biso   1.000  O
  O44      1.0000 0.01631  0.69453  0.03648  Biso   1.000  O
  O45      1.0000 0.04010  0.73515  0.31869  Biso   1.000  O
  O46      1.0000 0.03897  0.74886  0.82737  Biso   1.000  O
  O47      1.0000 0.11860  0.81023  0.76973  Biso   1.000  O
  O48      1.0000 0.22763  0.88224  0.71359  Biso   1.000  O
  O49      1.0000 0.18199  0.79665  0.57862  Biso   1.000  O
  O50      1.0000 0.13232  0.74030  0.43697  Biso   1.000  O
  O51      1.0000 0.94752  0.72283  0.95322  Biso   1.000  O
  O52      1.0000 0.13217  0.85715  0.57657  Biso   1.000  O
  O53      1.0000 0.11491  0.83136  0.39304  Biso   1.000  O
  O54      1.0000 0.13512  0.77522  0.21758  Biso   1.000  O
  O55      1.0000 0.93340  0.57240  0.73020  Biso   1.000  O
  O56      1.0000 0.10850  0.73460  0.82000  Biso   1.000  O
  H13      1.0000 0.94860  0.58000  0.73130  Biso   1.000  H
  H14      1.0000 0.10460  0.73540  0.82680  Biso   1.000  H
  H15      1.0000 0.17500  0.72550  0.54910  Biso   1.000  H
  H16      1.0000 0.13790  0.90740  0.45400  Biso   1.000  H
  Zn13     1.0000 0.65575  0.03221  0.24199  Biso   1.000  Zn
  Zn14     1.0000 0.77479  0.10479  0.68542  Biso   1.000  Zn
  Zn15     1.0000 0.83246  0.16852  0.99878  Biso   1.000  Zn
  P17      1.0000 0.62595  0.96048  0.06282  Biso   1.000  P
  P18      1.0000 0.75896  0.10324  0.17687  Biso   1.000  P
  P19      1.0000 0.81596  0.07889  0.87886  Biso   1.000  P
  P20      1.0000 0.81201  0.20394  0.79916  Biso   1.000  P
  O57      1.0000 0.61807  0.97249  0.17047  Biso   1.000  O
  O58      1.0000 0.68298  0.02786  0.36981  Biso   1.000  O
  O59      1.0000 0.70677  0.06848  0.65202  Biso   1.000  O
  O60      1.0000 0.70564  0.08219  0.16070  Biso   1.000  O
  O61      1.0000 0.78527  0.14356  0.10306  Biso   1.000  O
  O62      1.0000 0.89430  0.21557  0.04692  Biso   1.000  O
  O63      1.0000 0.84866  0.12998  0.91195  Biso   1.000  O
  O64      1.0000 0.79899  0.07363  0.77030  Biso   1.000  O
  O65      1.0000 0.61419  0.05616  0.28655  Biso   1.000  O
  O66      1.0000 0.79884  0.19048  0.90990  Biso   1.000  O
  O67      1.0000 0.78158  0.16469  0.72637  Biso   1.000  O
  O68      1.0000 0.80179  0.10855  0.55091  Biso   1.000  O
  O69      1.0000 0.60007  0.90573  0.06353  Biso   1.000  O
  O70      1.0000 0.77517  0.06793  0.15333  Biso   1.000  O
  H17      1.0000 0.61527  0.91333  0.06463  Biso   1.000  H
  H18      1.0000 0.77127  0.06873  0.16013  Biso   1.000  H
  H19      1.0000 0.84167  0.05883  0.88243  Biso   1.000  H
  H20      1.0000 0.80457  0.24073  0.78733  Biso   1.000  H
  Zn16     1.0000 0.32242  0.36555  0.57533  Biso   1.000  Zn
  Zn17     1.0000 0.44146  0.43812  0.01876  Biso   1.000  Zn
  Zn18     1.0000 0.49912  0.50186  0.33212  Biso   1.000  Zn
  P21      1.0000 0.29261  0.29382  0.39616  Biso   1.000  P
  P22      1.0000 0.42562  0.43658  0.51021  Biso   1.000  P
  P23      1.0000 0.48262  0.41223  0.21220  Biso   1.000  P
  P24      1.0000 0.47867  0.53728  0.13250  Biso   1.000  P
  O71      1.0000 0.28473  0.30583  0.50381  Biso   1.000  O
  O72      1.0000 0.34964  0.36120  0.70315  Biso   1.000  O
  O73      1.0000 0.37343  0.40182  0.98536  Biso   1.000  O
  O74      1.0000 0.37230  0.41553  0.49404  Biso   1.000  O
  O75      1.0000 0.45193  0.47690  0.43640  Biso   1.000  O
  O76      1.0000 0.56096  0.54891  0.38026  Biso   1.000  O
  O77      1.0000 0.51532  0.46332  0.24529  Biso   1.000  O
  O78      1.0000 0.46565  0.40697  0.10364  Biso   1.000  O
  O79      1.0000 0.28085  0.38950  0.61989  Biso   1.000  O
  O80      1.0000 0.46550  0.52382  0.24324  Biso   1.000  O
  O81      1.0000 0.44824  0.49803  0.05971  Biso   1.000  O
  O82      1.0000 0.46845  0.44189  0.88425  Biso   1.000  O
  O83      1.0000 0.26673  0.23907  0.39687  Biso   1.000  O
  O84      1.0000 0.44183  0.40127  0.48667  Biso   1.000  O
  H21      1.0000 0.28193  0.24667  0.39797  Biso   1.000  H
  H22      1.0000 0.43793  0.40207  0.49347  Biso   1.000  H
  H23      1.0000 0.50833  0.39217  0.21577  Biso   1.000  H
  H24      1.0000 0.47123  0.57407  0.12067  Biso   1.000  H
  Zn19     1.0000 0.30112  0.29020  0.90866  Biso   1.000  Zn
  Zn20     1.0000 0.22854  0.33667  0.35209  Biso   1.000  Zn
  Zn21     1.0000 0.16481  0.33060  0.66545  Biso   1.000  Zn
  P25      1.0000 0.37285  0.33213  0.72949  Biso   1.000  P
  P26      1.0000 0.23009  0.32238  0.84354  Biso   1.000  P
  P27      1.0000 0.25444  0.40373  0.54553  Biso   1.000  P
  P28      1.0000 0.12939  0.27473  0.46583  Biso   1.000  P
  O85      1.0000 0.36084  0.31224  0.83714  Biso   1.000  O
  O86      1.0000 0.30547  0.32178  0.03648  Biso   1.000  O
  O87      1.0000 0.26485  0.30495  0.31869  Biso   1.000  O
  O88      1.0000 0.25114  0.29011  0.82737  Biso   1.000  O
  O89      1.0000 0.18977  0.30837  0.76973  Biso   1.000  O
  O90      1.0000 0.11776  0.34539  0.71359  Biso   1.000  O
  O91      1.0000 0.20335  0.38534  0.57862  Biso   1.000  O
  O92      1.0000 0.25970  0.39202  0.43697  Biso   1.000  O
  O93      1.0000 0.27717  0.22469  0.95322  Biso   1.000  O
  O94      1.0000 0.14285  0.27502  0.57657  Biso   1.000  O
  O95      1.0000 0.16864  0.28355  0.39304  Biso   1.000  O
  O96      1.0000 0.22478  0.35990  0.21758  Biso   1.000  O
  O97      1.0000 0.42760  0.36100  0.73020  Biso   1.000  O
  O98      1.0000 0.26540  0.37390  0.82000  Biso   1.000  O
  H25      1.0000 0.42000  0.36860  0.73130  Biso   1.000  H
  H26      1.0000 0.26460  0.36920  0.82680  Biso   1.000  H
  H27      1.0000 0.27450  0.44950  0.54910  Biso   1.000  H
  H28      1.0000 0.09260  0.23050  0.45400  Biso   1.000  H
  Zn22     1.0000 0.96779  0.62354  0.24199  Biso   1.000  Zn
  Zn23     1.0000 0.89521  0.67000  0.68542  Biso   1.000  Zn
  Zn24     1.0000 0.83148  0.66393  0.99878  Biso   1.000  Zn
  P29      1.0000 0.03952  0.66546  0.06282  Biso   1.000  P
  P30      1.0000 0.89676  0.65571  0.17687  Biso   1.000  P
  P31      1.0000 0.92111  0.73706  0.87886  Biso   1.000  P
  P32      1.0000 0.79606  0.60806  0.79916  Biso   1.000  P
  O99      1.0000 0.02751  0.64557  0.17047  Biso   1.000  O
  O100     1.0000 0.97214  0.65511  0.36981  Biso   1.000  O
  O101     1.0000 0.93152  0.63828  0.65202  Biso   1.000  O
  O102     1.0000 0.91781  0.62344  0.16070  Biso   1.000  O
  O103     1.0000 0.85644  0.64170  0.10306  Biso   1.000  O
  O104     1.0000 0.78443  0.67872  0.04692  Biso   1.000  O
  O105     1.0000 0.87002  0.71867  0.91195  Biso   1.000  O
  O106     1.0000 0.92637  0.72535  0.77030  Biso   1.000  O
  O107     1.0000 0.94384  0.55802  0.28655  Biso   1.000  O
  O108     1.0000 0.80952  0.60835  0.90990  Biso   1.000  O
  O109     1.0000 0.83531  0.61688  0.72637  Biso   1.000  O
  O110     1.0000 0.89145  0.69323  0.55091  Biso   1.000  O
  O111     1.0000 0.09427  0.69433  0.06353  Biso   1.000  O
  O112     1.0000 0.93207  0.70723  0.15333  Biso   1.000  O
  H29      1.0000 0.08667  0.70193  0.06463  Biso   1.000  H
  H30      1.0000 0.93127  0.70253  0.16013  Biso   1.000  H
  H31      1.0000 0.94117  0.78283  0.88243  Biso   1.000  H
  H32      1.0000 0.75927  0.56383  0.78733  Biso   1.000  H
  Zn25     1.0000 0.63445  0.95687  0.57533  Biso   1.000  Zn
  Zn26     1.0000 0.56188  0.00333  0.01876  Biso   1.000  Zn
  Zn27     1.0000 0.49814  0.99727  0.33212  Biso   1.000  Zn
  P33      1.0000 0.70618  0.99880  0.39616  Biso   1.000  P
  P34      1.0000 0.56342  0.98905  0.51021  Biso   1.000  P
  P35      1.0000 0.58777  0.07040  0.21220  Biso   1.000  P
  P36      1.0000 0.46272  0.94140  0.13250  Biso   1.000  P
  O113     1.0000 0.69417  0.97891  0.50381  Biso   1.000  O
  O114     1.0000 0.63880  0.98845  0.70315  Biso   1.000  O
  O115     1.0000 0.59818  0.97162  0.98536  Biso   1.000  O
  O116     1.0000 0.58447  0.95678  0.49404  Biso   1.000  O
  O117     1.0000 0.52310  0.97504  0.43640  Biso   1.000  O
  O118     1.0000 0.45109  0.01206  0.38026  Biso   1.000  O
  O119     1.0000 0.53668  0.05201  0.24529  Biso   1.000  O
  O120     1.0000 0.59303  0.05869  0.10364  Biso   1.000  O
  O121     1.0000 0.61050  0.89136  0.61989  Biso   1.000  O
  O122     1.0000 0.47618  0.94169  0.24324  Biso   1.000  O
  O123     1.0000 0.50197  0.95022  0.05971  Biso   1.000  O
  O124     1.0000 0.55811  0.02657  0.88425  Biso   1.000  O
  O125     1.0000 0.76093  0.02767  0.39687  Biso   1.000  O
  O126     1.0000 0.59873  0.04057  0.48667  Biso   1.000  O
  H33      1.0000 0.75333  0.03527  0.39797  Biso   1.000  H
  H34      1.0000 0.59793  0.03587  0.49347  Biso   1.000  H
  H35      1.0000 0.60783  0.11617  0.21577  Biso   1.000  H
  H36      1.0000 0.42593  0.89717  0.12067  Biso   1.000  H
  Zn28     1.0000 0.29020  0.98909  0.09134  Biso   1.000  Zn
  Zn29     1.0000 0.33667  0.10813  0.64791  Biso   1.000  Zn
  Zn30     1.0000 0.33060  0.16579  0.33455  Biso   1.000  Zn
  P37      1.0000 0.33213  0.95928  0.27051  Biso   1.000  P
  P38      1.0000 0.32238  0.09229  0.15646  Biso   1.000  P
  P39      1.0000 0.40373  0.14929  0.45447  Biso   1.000  P
  P40      1.0000 0.27473  0.14534  0.53417  Biso   1.000  P
  O127     1.0000 0.31224  0.95140  0.16286  Biso   1.000  O
  O128     1.0000 0.32178  0.01631  0.96352  Biso   1.000  O
  O129     1.0000 0.30495  0.04010  0.68131  Biso   1.000  O
  O130     1.0000 0.29011  0.03897  0.17263  Biso   1.000  O
  O131     1.0000 0.30837  0.11860  0.23027  Biso   1.000  O
  O132     1.0000 0.34539  0.22763  0.28641  Biso   1.000  O
  O133     1.0000 0.38534  0.18199  0.42138  Biso   1.000  O
  O134     1.0000 0.39202  0.13232  0.56303  Biso   1.000  O
  O135     1.0000 0.22469  0.94752  0.04678  Biso   1.000  O
  O136     1.0000 0.27502  0.13217  0.42343  Biso   1.000  O
  O137     1.0000 0.28355  0.11491  0.60696  Biso   1.000  O
  O138     1.0000 0.35990  0.13512  0.78242  Biso   1.000  O
  O139     1.0000 0.36100  0.93340  0.26980  Biso   1.000  O
  O140     1.0000 0.37390  0.10850  0.18000  Biso   1.000  O
  H37      1.0000 0.36860  0.94860  0.26870  Biso   1.000  H
  H38      1.0000 0.36920  0.10460  0.17320  Biso   1.000  H
  H39      1.0000 0.44950  0.17500  0.45090  Biso   1.000  H
  H40      1.0000 0.23050  0.13790  0.54600  Biso   1.000  H
  Zn31     1.0000 0.95687  0.32242  0.42467  Biso   1.000  Zn
  Zn32     1.0000 0.00333  0.44146  0.98124  Biso   1.000  Zn
  Zn33     1.0000 0.99727  0.49912  0.66788  Biso   1.000  Zn
  P41      1.0000 0.99880  0.29261  0.60384  Biso   1.000  P
  P42      1.0000 0.98905  0.42562  0.48979  Biso   1.000  P
  P43      1.0000 0.07040  0.48262  0.78780  Biso   1.000  P
  P44      1.0000 0.94140  0.47867  0.86750  Biso   1.000  P
  O141     1.0000 0.97891  0.28473  0.49619  Biso   1.000  O
  O142     1.0000 0.98845  0.34964  0.29685  Biso   1.000  O
  O143     1.0000 0.97162  0.37343  0.01464  Biso   1.000  O
  O144     1.0000 0.95678  0.37230  0.50596  Biso   1.000  O
  O145     1.0000 0.97504  0.45193  0.56360  Biso   1.000  O
  O146     1.0000 0.01206  0.56096  0.61974  Biso   1.000  O
  O147     1.0000 0.05201  0.51532  0.75471  Biso   1.000  O
  O148     1.0000 0.05869  0.46565  0.89636  Biso   1.000  O
  O149     1.0000 0.89136  0.28085  0.38011  Biso   1.000  O
  O150     1.0000 0.94169  0.46550  0.75676  Biso   1.000  O
  O151     1.0000 0.95022  0.44824  0.94029  Biso   1.000  O
  O152     1.0000 0.02657  0.46845  0.11575  Biso   1.000  O
  O153     1.0000 0.02767  0.26673  0.60313  Biso   1.000  O
  O154     1.0000 0.04057  0.44183  0.51333  Biso   1.000  O
  H41      1.0000 0.03527  0.28193  0.60203  Biso   1.000  H
  H42      1.0000 0.03587  0.43793  0.50653  Biso   1.000  H
  H43      1.0000 0.11617  0.50833  0.78423  Biso   1.000  H
  H44      1.0000 0.89717  0.47123  0.87933  Biso   1.000  H
  Zn34     1.0000 0.62354  0.65575  0.75801  Biso   1.000  Zn
  Zn35     1.0000 0.67000  0.77479  0.31458  Biso   1.000  Zn
  Zn36     1.0000 0.66393  0.83246  0.00122  Biso   1.000  Zn
  P45      1.0000 0.66546  0.62595  0.93718  Biso   1.000  P
  P46      1.0000 0.65571  0.75896  0.82313  Biso   1.000  P
  P47      1.0000 0.73706  0.81596  0.12114  Biso   1.000  P
  P48      1.0000 0.60806  0.81201  0.20084  Biso   1.000  P
  O155     1.0000 0.64557  0.61807  0.82953  Biso   1.000  O
  O156     1.0000 0.65511  0.68298  0.63019  Biso   1.000  O
  O157     1.0000 0.63828  0.70677  0.34798  Biso   1.000  O
  O158     1.0000 0.62344  0.70564  0.83930  Biso   1.000  O
  O159     1.0000 0.64170  0.78527  0.89694  Biso   1.000  O
  O160     1.0000 0.67872  0.89430  0.95308  Biso   1.000  O
  O161     1.0000 0.71867  0.84866  0.08805  Biso   1.000  O
  O162     1.0000 0.72535  0.79899  0.22970  Biso   1.000  O
  O163     1.0000 0.55802  0.61419  0.71345  Biso   1.000  O
  O164     1.0000 0.60835  0.79884  0.09010  Biso   1.000  O
  O165     1.0000 0.61688  0.78158  0.27363  Biso   1.000  O
  O166     1.0000 0.69323  0.80179  0.44909  Biso   1.000  O
  O167     1.0000 0.69433  0.60007  0.93647  Biso   1.000  O
  O168     1.0000 0.70723  0.77517  0.84667  Biso   1.000  O
  H45      1.0000 0.70193  0.61527  0.93537  Biso   1.000  H
  H46      1.0000 0.70253  0.77127  0.83987  Biso   1.000  H
  H47      1.0000 0.78283  0.84167  0.11757  Biso   1.000  H
  H48      1.0000 0.56383  0.80457  0.21267  Biso   1.000  H
  Zn37     1.0000 0.01091  0.30112  0.09134  Biso   1.000  Zn
  Zn38     1.0000 0.89187  0.22854  0.64791  Biso   1.000  Zn
  Zn39     1.0000 0.83421  0.16481  0.33455  Biso   1.000  Zn
  P49      1.0000 0.04072  0.37285  0.27051  Biso   1.000  P
  P50      1.0000 0.90771  0.23009  0.15646  Biso   1.000  P
  P51      1.0000 0.85071  0.25444  0.45447  Biso   1.000  P
  P52      1.0000 0.85466  0.12939  0.53417  Biso   1.000  P
  O169     1.0000 0.04860  0.36084  0.16286  Biso   1.000  O
  O170     1.0000 0.98369  0.30547  0.96352  Biso   1.000  O
  O171     1.0000 0.95990  0.26485  0.68131  Biso   1.000  O
  O172     1.0000 0.96103  0.25114  0.17263  Biso   1.000  O
  O173     1.0000 0.88140  0.18977  0.23027  Biso   1.000  O
  O174     1.0000 0.77237  0.11776  0.28641  Biso   1.000  O
  O175     1.0000 0.81801  0.20335  0.42138  Biso   1.000  O
  O176     1.0000 0.86768  0.25970  0.56303  Biso   1.000  O
  O177     1.0000 0.05248  0.27717  0.04678  Biso   1.000  O
  O178     1.0000 0.86783  0.14285  0.42343  Biso   1.000  O
  O179     1.0000 0.88509  0.16864  0.60696  Biso   1.000  O
  O180     1.0000 0.86488  0.22478  0.78242  Biso   1.000  O
  O181     1.0000 0.06660  0.42760  0.26980  Biso   1.000  O
  O182     1.0000 0.89150  0.26540  0.18000  Biso   1.000  O
  H49      1.0000 0.05140  0.42000  0.26870  Biso   1.000  H
  H50      1.0000 0.89540  0.26460  0.17320  Biso   1.000  H
  H51      1.0000 0.82500  0.27450  0.45090  Biso   1.000  H
  H52      1.0000 0.86210  0.09260  0.54600  Biso   1.000  H
  Zn40     1.0000 0.67758  0.63445  0.42467  Biso   1.000  Zn
  Zn41     1.0000 0.55854  0.56188  0.98124  Biso   1.000  Zn
  Zn42     1.0000 0.50088  0.49814  0.66788  Biso   1.000  Zn
  P53      1.0000 0.70739  0.70618  0.60384  Biso   1.000  P
  P54      1.0000 0.57438  0.56342  0.48979  Biso   1.000  P
  P55      1.0000 0.51738  0.58777  0.78780  Biso   1.000  P
  P56      1.0000 0.52133  0.46272  0.86750  Biso   1.000  P
  O183     1.0000 0.71527  0.69417  0.49619  Biso   1.000  O
  O184     1.0000 0.65036  0.63880  0.29685  Biso   1.000  O
  O185     1.0000 0.62657  0.59818  0.01464  Biso   1.000  O
  O186     1.0000 0.62770  0.58447  0.50596  Biso   1.000  O
  O187     1.0000 0.54807  0.52310  0.56360  Biso   1.000  O
  O188     1.0000 0.43904  0.45109  0.61974  Biso   1.000  O
  O189     1.0000 0.48468  0.53668  0.75471  Biso   1.000  O
  O190     1.0000 0.53435  0.59303  0.89636  Biso   1.000  O
  O191     1.0000 0.71915  0.61050  0.38011  Biso   1.000  O
  O192     1.0000 0.53450  0.47618  0.75676  Biso   1.000  O
  O193     1.0000 0.55176  0.50197  0.94029  Biso   1.000  O
  O194     1.0000 0.53155  0.55811  0.11575  Biso   1.000  O
  O195     1.0000 0.73327  0.76093  0.60313  Biso   1.000  O
  O196     1.0000 0.55817  0.59873  0.51333  Biso   1.000  O
  H53      1.0000 0.71807  0.75333  0.60203  Biso   1.000  H
  H54      1.0000 0.56207  0.59793  0.50653  Biso   1.000  H
  H55      1.0000 0.49167  0.60783  0.78423  Biso   1.000  H
  H56      1.0000 0.52877  0.42593  0.87933  Biso   1.000  H
  Zn43     1.0000 0.34425  0.96779  0.75801  Biso   1.000  Zn
  Zn44     1.0000 0.22521  0.89521  0.31458  Biso   1.000  Zn
  Zn45     1.0000 0.16754  0.83148  0.00122  Biso   1.000  Zn
  P57      1.0000 0.37405  0.03952  0.93718  Biso   1.000  P
  P58      1.0000 0.24104  0.89676  0.82313  Biso   1.000  P
  P59      1.0000 0.18404  0.92111  0.12114  Biso   1.000  P
  P60      1.0000 0.18799  0.79606  0.20084  Biso   1.000  P
  O197     1.0000 0.38193  0.02751  0.82953  Biso   1.000  O
  O198     1.0000 0.31702  0.97214  0.63019  Biso   1.000  O
  O199     1.0000 0.29323  0.93152  0.34798  Biso   1.000  O
  O200     1.0000 0.29436  0.91781  0.83930  Biso   1.000  O
  O201     1.0000 0.21473  0.85644  0.89694  Biso   1.000  O
  O202     1.0000 0.10570  0.78443  0.95308  Biso   1.000  O
  O203     1.0000 0.15134  0.87002  0.08805  Biso   1.000  O
  O204     1.0000 0.20101  0.92637  0.22970  Biso   1.000  O
  O205     1.0000 0.38581  0.94384  0.71345  Biso   1.000  O
  O206     1.0000 0.20116  0.80952  0.09010  Biso   1.000  O
  O207     1.0000 0.21842  0.83531  0.27363  Biso   1.000  O
  O208     1.0000 0.19821  0.89145  0.44909  Biso   1.000  O
  O209     1.0000 0.39993  0.09427  0.93647  Biso   1.000  O
  O210     1.0000 0.22483  0.93207  0.84667  Biso   1.000  O
  H57      1.0000 0.38473  0.08667  0.93537  Biso   1.000  H
  H58      1.0000 0.22873  0.93127  0.83987  Biso   1.000  H
  H59      1.0000 0.15833  0.94117  0.11757  Biso   1.000  H
  H60      1.0000 0.19543  0.75927  0.21267  Biso   1.000  H
  Zn46     1.0000 0.69888  0.70980  0.09134  Biso   1.000  Zn
  Zn47     1.0000 0.77146  0.66333  0.64791  Biso   1.000  Zn
  Zn48     1.0000 0.83519  0.66940  0.33455  Biso   1.000  Zn
  P61      1.0000 0.62715  0.66787  0.27051  Biso   1.000  P
  P62      1.0000 0.76991  0.67762  0.15646  Biso   1.000  P
  P63      1.0000 0.74556  0.59627  0.45447  Biso   1.000  P
  P64      1.0000 0.87061  0.72527  0.53417  Biso   1.000  P
  O211     1.0000 0.63916  0.68776  0.16286  Biso   1.000  O
  O212     1.0000 0.69453  0.67822  0.96352  Biso   1.000  O
  O213     1.0000 0.73515  0.69505  0.68131  Biso   1.000  O
  O214     1.0000 0.74886  0.70989  0.17263  Biso   1.000  O
  O215     1.0000 0.81023  0.69163  0.23027  Biso   1.000  O
  O216     1.0000 0.88224  0.65461  0.28641  Biso   1.000  O
  O217     1.0000 0.79665  0.61466  0.42138  Biso   1.000  O
  O218     1.0000 0.74030  0.60798  0.56303  Biso   1.000  O
  O219     1.0000 0.72283  0.77531  0.04678  Biso   1.000  O
  O220     1.0000 0.85715  0.72498  0.42343  Biso   1.000  O
  O221     1.0000 0.83136  0.71645  0.60696  Biso   1.000  O
  O222     1.0000 0.77522  0.64010  0.78242  Biso   1.000  O
  O223     1.0000 0.57240  0.63900  0.26980  Biso   1.000  O
  O224     1.0000 0.73460  0.62610  0.18000  Biso   1.000  O
  H61      1.0000 0.58000  0.63140  0.26870  Biso   1.000  H
  H62      1.0000 0.73540  0.63080  0.17320  Biso   1.000  H
  H63      1.0000 0.72550  0.55050  0.45090  Biso   1.000  H
  H64      1.0000 0.90740  0.76950  0.54600  Biso   1.000  H
  Zn49     1.0000 0.36555  0.04313  0.42467  Biso   1.000  Zn
  Zn50     1.0000 0.43812  0.99667  0.98124  Biso   1.000  Zn
  Zn51     1.0000 0.50186  0.00273  0.66788  Biso   1.000  Zn
  P65      1.0000 0.29382  0.00120  0.60384  Biso   1.000  P
  P66      1.0000 0.43658  0.01095  0.48979  Biso   1.000  P
  P67      1.0000 0.41223  0.92960  0.78780  Biso   1.000  P
  P68      1.0000 0.53728  0.05860  0.86750  Biso   1.000  P
  O225     1.0000 0.30583  0.02109  0.49619  Biso   1.000  O
  O226     1.0000 0.36120  0.01155  0.29685  Biso   1.000  O
  O227     1.0000 0.40182  0.02838  0.01464  Biso   1.000  O
  O228     1.0000 0.41553  0.04322  0.50596  Biso   1.000  O
  O229     1.0000 0.47690  0.02496  0.56360  Biso   1.000  O
  O230     1.0000 0.54891  0.98794  0.61974  Biso   1.000  O
  O231     1.0000 0.46332  0.94799  0.75471  Biso   1.000  O
  O232     1.0000 0.40697  0.94131  0.89636  Biso   1.000  O
  O233     1.0000 0.38950  0.10864  0.38011  Biso   1.000  O
  O234     1.0000 0.52382  0.05831  0.75676  Biso   1.000  O
  O235     1.0000 0.49803  0.04978  0.94029  Biso   1.000  O
  O236     1.0000 0.44189  0.97343  0.11575  Biso   1.000  O
  O237     1.0000 0.23907  0.97233  0.60313  Biso   1.000  O
  O238     1.0000 0.40127  0.95943  0.51333  Biso   1.000  O
  H65      1.0000 0.24667  0.96473  0.60203  Biso   1.000  H
  H66      1.0000 0.40207  0.96413  0.50653  Biso   1.000  H
  H67      1.0000 0.39217  0.88383  0.78423  Biso   1.000  H
  H68      1.0000 0.57407  0.10283  0.87933  Biso   1.000  H
  Zn52     1.0000 0.03221  0.37646  0.75801  Biso   1.000  Zn
  Zn53     1.0000 0.10479  0.33000  0.31458  Biso   1.000  Zn
  Zn54     1.0000 0.16852  0.33607  0.00122  Biso   1.000  Zn
  P69      1.0000 0.96048  0.33454  0.93718  Biso   1.000  P
  P70      1.0000 0.10324  0.34429  0.82313  Biso   1.000  P
  P71      1.0000 0.07889  0.26294  0.12114  Biso   1.000  P
  P72      1.0000 0.20394  0.39194  0.20084  Biso   1.000  P
  O239     1.0000 0.97249  0.35443  0.82953  Biso   1.000  O
  O240     1.0000 0.02786  0.34489  0.63019  Biso   1.000  O
  O241     1.0000 0.06848  0.36172  0.34798  Biso   1.000  O
  O242     1.0000 0.08219  0.37656  0.83930  Biso   1.000  O
  O243     1.0000 0.14356  0.35830  0.89694  Biso   1.000  O
  O244     1.0000 0.21557  0.32128  0.95308  Biso   1.000  O
  O245     1.0000 0.12998  0.28133  0.08805  Biso   1.000  O
  O246     1.0000 0.07363  0.27465  0.22970  Biso   1.000  O
  O247     1.0000 0.05616  0.44198  0.71345  Biso   1.000  O
  O248     1.0000 0.19048  0.39165  0.09010  Biso   1.000  O
  O249     1.0000 0.16469  0.38312  0.27363  Biso   1.000  O
  O250     1.0000 0.10855  0.30677  0.44909  Biso   1.000  O
  O251     1.0000 0.90573  0.30567  0.93647  Biso   1.000  O
  O252     1.0000 0.06793  0.29277  0.84667  Biso   1.000  O
  H69      1.0000 0.91333  0.29807  0.93537  Biso   1.000  H
  H70      1.0000 0.06873  0.29747  0.83987  Biso   1.000  H
  H71      1.0000 0.05883  0.21717  0.11757  Biso   1.000  H
  H72      1.0000 0.24073  0.43617  0.21267  Biso   1.000  H
