data_image0
_cell_length_a       20.1413
_cell_length_b       34.892
_cell_length_c       11.1939
_cell_angle_alpha    90
_cell_angle_beta     90
_cell_angle_gamma    90

_symmetry_space_group_name_H-M    "P 1"
_symmetry_int_tables_number       1

loop_
  _symmetry_equiv_pos_as_xyz
  'x, y, z'

loop_
  _atom_site_label
  _atom_site_occupancy
  _atom_site_fract_x
  _atom_site_fract_y
  _atom_site_fract_z
  _atom_site_thermal_displace_type
  _atom_site_B_iso_or_equiv
  _atom_site_type_symbol
  O1       1.0000 0.43453  0.39402  0.10200  Biso   1.000  O
  O2       1.0000 0.89790  0.94241  0.21950  Biso   1.000  O
  C1       1.0000 0.78482  0.78013  0.43739  Biso   1.000  C
  C2       1.0000 0.81008  0.81300  0.36910  Biso   1.000  C
  C3       1.0000 0.86721  0.80783  0.30077  Biso   1.000  C
  C4       1.0000 0.89524  0.83869  0.24128  Biso   1.000  C
  C5       1.0000 0.78021  0.84935  0.37477  Biso   1.000  C
  C6       1.0000 0.90065  0.90685  0.18700  Biso   1.000  C
  C7       1.0000 0.86708  0.87536  0.24931  Biso   1.000  C
  C8       1.0000 0.80892  0.88063  0.31572  Biso   1.000  C
  O3       1.0000 0.93453  0.89402  0.10200  Biso   1.000  O
  O4       1.0000 0.39790  0.44241  0.21950  Biso   1.000  O
  C9       1.0000 0.28482  0.28013  0.43739  Biso   1.000  C
  C10      1.0000 0.31008  0.31300  0.36910  Biso   1.000  C
  C11      1.0000 0.36721  0.30783  0.30077  Biso   1.000  C
  C12      1.0000 0.39524  0.33869  0.24128  Biso   1.000  C
  C13      1.0000 0.28021  0.34935  0.37477  Biso   1.000  C
  C14      1.0000 0.40065  0.40685  0.18700  Biso   1.000  C
  C15      1.0000 0.36708  0.37536  0.24931  Biso   1.000  C
  C16      1.0000 0.30892  0.38063  0.31572  Biso   1.000  C
  O5       1.0000 0.56547  0.60598  0.10200  Biso   1.000  O
  O6       1.0000 0.10210  0.05759  0.21950  Biso   1.000  O
  C17      1.0000 0.21518  0.21987  0.43739  Biso   1.000  C
  C18      1.0000 0.18992  0.18700  0.36910  Biso   1.000  C
  C19      1.0000 0.13279  0.19217  0.30077  Biso   1.000  C
  C20      1.0000 0.10476  0.16131  0.24128  Biso   1.000  C
  C21      1.0000 0.21979  0.15065  0.37477  Biso   1.000  C
  C22      1.0000 0.09935  0.09315  0.18700  Biso   1.000  C
  C23      1.0000 0.13292  0.12464  0.24931  Biso   1.000  C
  C24      1.0000 0.19108  0.11937  0.31572  Biso   1.000  C
  O7       1.0000 0.06547  0.10598  0.10200  Biso   1.000  O
  O8       1.0000 0.60210  0.55759  0.21950  Biso   1.000  O
  C25      1.0000 0.71518  0.71987  0.43739  Biso   1.000  C
  C26      1.0000 0.68992  0.68700  0.36910  Biso   1.000  C
  C27      1.0000 0.63279  0.69217  0.30077  Biso   1.000  C
  C28      1.0000 0.60476  0.66131  0.24128  Biso   1.000  C
  C29      1.0000 0.71979  0.65065  0.37477  Biso   1.000  C
  C30      1.0000 0.59935  0.59315  0.18700  Biso   1.000  C
  C31      1.0000 0.63292  0.62464  0.24931  Biso   1.000  C
  C32      1.0000 0.69108  0.61937  0.31572  Biso   1.000  C
  O9       1.0000 0.56547  0.39402  0.89800  Biso   1.000  O
  O10      1.0000 0.10210  0.94241  0.78050  Biso   1.000  O
  C33      1.0000 0.21518  0.78013  0.56261  Biso   1.000  C
  C34      1.0000 0.18992  0.81300  0.63090  Biso   1.000  C
  C35      1.0000 0.13279  0.80783  0.69923  Biso   1.000  C
  C36      1.0000 0.10476  0.83869  0.75872  Biso   1.000  C
  C37      1.0000 0.21979  0.84935  0.62523  Biso   1.000  C
  C38      1.0000 0.09935  0.90685  0.81300  Biso   1.000  C
  C39      1.0000 0.13292  0.87536  0.75069  Biso   1.000  C
  C40      1.0000 0.19108  0.88063  0.68428  Biso   1.000  C
  O11      1.0000 0.06547  0.89402  0.89800  Biso   1.000  O
  O12      1.0000 0.60210  0.44241  0.78050  Biso   1.000  O
  C41      1.0000 0.71518  0.28013  0.56261  Biso   1.000  C
  C42      1.0000 0.68992  0.31300  0.63090  Biso   1.000  C
  C43      1.0000 0.63279  0.30783  0.69923  Biso   1.000  C
  C44      1.0000 0.60476  0.33869  0.75872  Biso   1.000  C
  C45      1.0000 0.71979  0.34935  0.62523  Biso   1.000  C
  C46      1.0000 0.59935  0.40685  0.81300  Biso   1.000  C
  C47      1.0000 0.63292  0.37536  0.75069  Biso   1.000  C
  C48      1.0000 0.69108  0.38063  0.68428  Biso   1.000  C
  O13      1.0000 0.43453  0.60598  0.89800  Biso   1.000  O
  O14      1.0000 0.89790  0.05759  0.78050  Biso   1.000  O
  C49      1.0000 0.78482  0.21987  0.56261  Biso   1.000  C
  C50      1.0000 0.81008  0.18700  0.63090  Biso   1.000  C
  C51      1.0000 0.86721  0.19217  0.69923  Biso   1.000  C
  C52      1.0000 0.89524  0.16131  0.75872  Biso   1.000  C
  C53      1.0000 0.78021  0.15065  0.62523  Biso   1.000  C
  C54      1.0000 0.90065  0.09315  0.81300  Biso   1.000  C
  C55      1.0000 0.86708  0.12464  0.75069  Biso   1.000  C
  C56      1.0000 0.80892  0.11937  0.68428  Biso   1.000  C
  O15      1.0000 0.93453  0.10598  0.89800  Biso   1.000  O
  O16      1.0000 0.39790  0.55759  0.78050  Biso   1.000  O
  C57      1.0000 0.28482  0.71987  0.56261  Biso   1.000  C
  C58      1.0000 0.31008  0.68700  0.63090  Biso   1.000  C
  C59      1.0000 0.36721  0.69217  0.69923  Biso   1.000  C
  C60      1.0000 0.39524  0.66131  0.75872  Biso   1.000  C
  C61      1.0000 0.28021  0.65065  0.62523  Biso   1.000  C
  C62      1.0000 0.40065  0.59315  0.81300  Biso   1.000  C
  C63      1.0000 0.36708  0.62464  0.75069  Biso   1.000  C
  C64      1.0000 0.30892  0.61937  0.68428  Biso   1.000  C
  O17      1.0000 0.56547  0.60598  0.89800  Biso   1.000  O
  O18      1.0000 0.10210  0.05759  0.78050  Biso   1.000  O
  C65      1.0000 0.21518  0.21987  0.56261  Biso   1.000  C
  C66      1.0000 0.18992  0.18700  0.63090  Biso   1.000  C
  C67      1.0000 0.13279  0.19217  0.69923  Biso   1.000  C
  C68      1.0000 0.10476  0.16131  0.75872  Biso   1.000  C
  C69      1.0000 0.21979  0.15065  0.62523  Biso   1.000  C
  C70      1.0000 0.09935  0.09315  0.81300  Biso   1.000  C
  C71      1.0000 0.13292  0.12464  0.75069  Biso   1.000  C
  C72      1.0000 0.19108  0.11937  0.68428  Biso   1.000  C
  O19      1.0000 0.06547  0.10598  0.89800  Biso   1.000  O
  O20      1.0000 0.60210  0.55759  0.78050  Biso   1.000  O
  C73      1.0000 0.71518  0.71987  0.56261  Biso   1.000  C
  C74      1.0000 0.68992  0.68700  0.63090  Biso   1.000  C
  C75      1.0000 0.63279  0.69217  0.69923  Biso   1.000  C
  C76      1.0000 0.60476  0.66131  0.75872  Biso   1.000  C
  C77      1.0000 0.71979  0.65065  0.62523  Biso   1.000  C
  C78      1.0000 0.59935  0.59315  0.81300  Biso   1.000  C
  C79      1.0000 0.63292  0.62464  0.75069  Biso   1.000  C
  C80      1.0000 0.69108  0.61937  0.68428  Biso   1.000  C
  O21      1.0000 0.43453  0.39402  0.89800  Biso   1.000  O
  O22      1.0000 0.89790  0.94241  0.78050  Biso   1.000  O
  C81      1.0000 0.78482  0.78013  0.56261  Biso   1.000  C
  C82      1.0000 0.81008  0.81300  0.63090  Biso   1.000  C
  C83      1.0000 0.86721  0.80783  0.69923  Biso   1.000  C
  C84      1.0000 0.89524  0.83869  0.75872  Biso   1.000  C
  C85      1.0000 0.78021  0.84935  0.62523  Biso   1.000  C
  C86      1.0000 0.90065  0.90685  0.81300  Biso   1.000  C
  C87      1.0000 0.86708  0.87536  0.75069  Biso   1.000  C
  C88      1.0000 0.80892  0.88063  0.68428  Biso   1.000  C
  O23      1.0000 0.93453  0.89402  0.89800  Biso   1.000  O
  O24      1.0000 0.39790  0.44241  0.78050  Biso   1.000  O
  C89      1.0000 0.28482  0.28013  0.56261  Biso   1.000  C
  C90      1.0000 0.31008  0.31300  0.63090  Biso   1.000  C
  C91      1.0000 0.36721  0.30783  0.69923  Biso   1.000  C
  C92      1.0000 0.39524  0.33869  0.75872  Biso   1.000  C
  C93      1.0000 0.28021  0.34935  0.62523  Biso   1.000  C
  C94      1.0000 0.40065  0.40685  0.81300  Biso   1.000  C
  C95      1.0000 0.36708  0.37536  0.75069  Biso   1.000  C
  C96      1.0000 0.30892  0.38063  0.68428  Biso   1.000  C
  O25      1.0000 0.43453  0.60598  0.10200  Biso   1.000  O
  O26      1.0000 0.89790  0.05759  0.21950  Biso   1.000  O
  C97      1.0000 0.78482  0.21987  0.43739  Biso   1.000  C
  C98      1.0000 0.81008  0.18700  0.36910  Biso   1.000  C
  C99      1.0000 0.86721  0.19217  0.30077  Biso   1.000  C
  C100     1.0000 0.89524  0.16131  0.24128  Biso   1.000  C
  C101     1.0000 0.78021  0.15065  0.37477  Biso   1.000  C
  C102     1.0000 0.90065  0.09315  0.18700  Biso   1.000  C
  C103     1.0000 0.86708  0.12464  0.24931  Biso   1.000  C
  C104     1.0000 0.80892  0.11937  0.31572  Biso   1.000  C
  O27      1.0000 0.93453  0.10598  0.10200  Biso   1.000  O
  O28      1.0000 0.39790  0.55759  0.21950  Biso   1.000  O
  C105     1.0000 0.28482  0.71987  0.43739  Biso   1.000  C
  C106     1.0000 0.31008  0.68700  0.36910  Biso   1.000  C
  C107     1.0000 0.36721  0.69217  0.30077  Biso   1.000  C
  C108     1.0000 0.39524  0.66131  0.24128  Biso   1.000  C
  C109     1.0000 0.28021  0.65065  0.37477  Biso   1.000  C
  C110     1.0000 0.40065  0.59315  0.18700  Biso   1.000  C
  C111     1.0000 0.36708  0.62464  0.24931  Biso   1.000  C
  C112     1.0000 0.30892  0.61937  0.31572  Biso   1.000  C
  O29      1.0000 0.56547  0.39402  0.10200  Biso   1.000  O
  O30      1.0000 0.10210  0.94241  0.21950  Biso   1.000  O
  C113     1.0000 0.21518  0.78013  0.43739  Biso   1.000  C
  C114     1.0000 0.18992  0.81300  0.36910  Biso   1.000  C
  C115     1.0000 0.13279  0.80783  0.30077  Biso   1.000  C
  C116     1.0000 0.10476  0.83869  0.24128  Biso   1.000  C
  C117     1.0000 0.21979  0.84935  0.37477  Biso   1.000  C
  C118     1.0000 0.09935  0.90685  0.18700  Biso   1.000  C
  C119     1.0000 0.13292  0.87536  0.24931  Biso   1.000  C
  C120     1.0000 0.19108  0.88063  0.31572  Biso   1.000  C
  O31      1.0000 0.06547  0.89402  0.10200  Biso   1.000  O
  O32      1.0000 0.60210  0.44241  0.21950  Biso   1.000  O
  C121     1.0000 0.71518  0.28013  0.43739  Biso   1.000  C
  C122     1.0000 0.68992  0.31300  0.36910  Biso   1.000  C
  C123     1.0000 0.63279  0.30783  0.30077  Biso   1.000  C
  C124     1.0000 0.60476  0.33869  0.24128  Biso   1.000  C
  C125     1.0000 0.71979  0.34935  0.37477  Biso   1.000  C
  C126     1.0000 0.59935  0.40685  0.18700  Biso   1.000  C
  C127     1.0000 0.63292  0.37536  0.24931  Biso   1.000  C
  C128     1.0000 0.69108  0.38063  0.31572  Biso   1.000  C
  Zr1      1.0000 0.08113  0.00000  0.15350  Biso   1.000  Zr
  Zr2      1.0000 0.58113  0.50000  0.15350  Biso   1.000  Zr
  Zr3      1.0000 0.91887  0.00000  0.15350  Biso   1.000  Zr
  Zr4      1.0000 0.41887  0.50000  0.15350  Biso   1.000  Zr
  Zr5      1.0000 0.91887  0.00000  0.84650  Biso   1.000  Zr
  Zr6      1.0000 0.41887  0.50000  0.84650  Biso   1.000  Zr
  Zr7      1.0000 0.08113  0.00000  0.84650  Biso   1.000  Zr
  Zr8      1.0000 0.58113  0.50000  0.84650  Biso   1.000  Zr
  Zr9      1.0000 0.50000  0.56568  0.00000  Biso   1.000  Zr
  Zr10     1.0000 0.00000  0.06568  0.00000  Biso   1.000  Zr
  Zr11     1.0000 0.50000  0.43432  0.00000  Biso   1.000  Zr
  Zr12     1.0000 0.00000  0.93432  0.00000  Biso   1.000  Zr
  O33      1.0000 0.00000  0.96034  0.17930  Biso   1.000  O
  O34      1.0000 0.50000  0.46034  0.17930  Biso   1.000  O
  O35      1.0000 0.00000  0.03966  0.17930  Biso   1.000  O
  O36      1.0000 0.50000  0.53966  0.17930  Biso   1.000  O
  O37      1.0000 0.00000  0.96034  0.82070  Biso   1.000  O
  O38      1.0000 0.50000  0.46034  0.82070  Biso   1.000  O
  O39      1.0000 0.00000  0.03966  0.82070  Biso   1.000  O
  O40      1.0000 0.50000  0.53966  0.82070  Biso   1.000  O
  O41      1.0000 0.10320  0.96286  0.00000  Biso   1.000  O
  O42      1.0000 0.60320  0.46286  0.00000  Biso   1.000  O
  O43      1.0000 0.89680  0.03714  0.00000  Biso   1.000  O
  O44      1.0000 0.39680  0.53714  0.00000  Biso   1.000  O
  O45      1.0000 0.89680  0.96286  0.00000  Biso   1.000  O
  O46      1.0000 0.39680  0.46286  0.00000  Biso   1.000  O
  O47      1.0000 0.10320  0.03714  0.00000  Biso   1.000  O
  O48      1.0000 0.60320  0.53714  0.00000  Biso   1.000  O
  C129     1.0000 0.75000  0.25000  0.37690  Biso   1.000  C
  C130     1.0000 0.25000  0.75000  0.37690  Biso   1.000  C
  C131     1.0000 0.25000  0.25000  0.62310  Biso   1.000  C
  C132     1.0000 0.75000  0.75000  0.62310  Biso   1.000  C
  C133     1.0000 0.25000  0.75000  0.62310  Biso   1.000  C
  C134     1.0000 0.75000  0.25000  0.62310  Biso   1.000  C
  C135     1.0000 0.75000  0.75000  0.37690  Biso   1.000  C
  C136     1.0000 0.25000  0.25000  0.37690  Biso   1.000  C
