data_image0
_cell_length_a       10.1676
_cell_length_b       17.3
_cell_length_c       17.485
_cell_angle_alpha    90
_cell_angle_beta     91.708
_cell_angle_gamma    90

_symmetry_space_group_name_H-M    "P 1"
_symmetry_int_tables_number       1

loop_
  _symmetry_equiv_pos_as_xyz
  'x, y, z'

loop_
  _atom_site_label
  _atom_site_occupancy
  _atom_site_fract_x
  _atom_site_fract_y
  _atom_site_fract_z
  _atom_site_thermal_displace_type
  _atom_site_B_iso_or_equiv
  _atom_site_type_symbol
  Cd1      1.0000 0.82736  0.36320  0.01990  Biso   1.000  Cd
  N1       1.0000 0.81070  0.39705  0.89178  Biso   1.000  N
  N2       1.0000 0.86190  0.51903  0.63499  Biso   1.000  N
  N3       1.0000 0.09920  0.73816  0.51087  Biso   1.000  N
  C1       1.0000 0.71210  0.37120  0.84620  Biso   1.000  C
  H1       1.0000 0.64810  0.33810  0.86730  Biso   1.000  H
  C2       1.0000 0.69930  0.39050  0.76970  Biso   1.000  C
  H2       1.0000 0.62720  0.37120  0.73960  Biso   1.000  H
  C3       1.0000 0.79120  0.43800  0.73680  Biso   1.000  C
  C4       1.0000 0.89220  0.46550  0.78470  Biso   1.000  C
  H3       1.0000 0.95680  0.49930  0.76520  Biso   1.000  H
  C5       1.0000 0.89890  0.44390  0.86050  Biso   1.000  C
  H4       1.0000 0.96930  0.46320  0.89190  Biso   1.000  H
  C6       1.0000 0.78450  0.46040  0.65469  Biso   1.000  C
  C7       1.0000 0.70030  0.42200  0.60234  Biso   1.000  C
  H5       1.0000 0.64830  0.37980  0.61850  Biso   1.000  H
  C8       1.0000 0.69380  0.44670  0.52580  Biso   1.000  C
  C9       1.0000 0.77420  0.50820  0.50640  Biso   1.000  C
  H6       1.0000 0.77320  0.52670  0.45520  Biso   1.000  H
  C10      1.0000 0.85650  0.54270  0.56170  Biso   1.000  C
  C11      1.0000 0.08080  0.71480  0.58170  Biso   1.000  C
  H7       1.0000 0.12210  0.74330  0.62220  Biso   1.000  H
  C12      1.0000 0.00530  0.65170  0.60050  Biso   1.000  C
  H8       1.0000 0.99630  0.63750  0.65260  Biso   1.000  H
  C13      1.0000 0.94240  0.60900  0.54270  Biso   1.000  C
  C14      1.0000 0.96750  0.63130  0.46830  Biso   1.000  C
  H9       1.0000 0.93070  0.60290  0.42640  Biso   1.000  H
  C15      1.0000 0.04540  0.69440  0.45520  Biso   1.000  C
  H10      1.0000 0.06210  0.70770  0.40360  Biso   1.000  H
  C16      1.0000 0.60320  0.40950  0.46866  Biso   1.000  C
  C17      1.0000 0.55590  0.33520  0.47910  Biso   1.000  C
  H11      1.0000 0.58350  0.30680  0.52320  Biso   1.000  H
  C18      1.0000 0.46920  0.30160  0.42630  Biso   1.000  C
  H12      1.0000 0.43700  0.25080  0.43430  Biso   1.000  H
  C19      1.0000 0.43020  0.34280  0.36200  Biso   1.000  C
  C20      1.0000 0.47740  0.41650  0.34974  Biso   1.000  C
  H13      1.0000 0.45150  0.44410  0.30480  Biso   1.000  H
  C21      1.0000 0.56230  0.44960  0.40300  Biso   1.000  C
  H14      1.0000 0.59360  0.50060  0.39490  Biso   1.000  H
  C22      1.0000 0.34170  0.32600  0.23580  Biso   1.000  C
  C23      1.0000 0.22150  0.34150  0.19860  Biso   1.000  C
  H15      1.0000 0.14280  0.34170  0.22650  Biso   1.000  H
  C24      1.0000 0.21690  0.35650  0.12051  Biso   1.000  C
  C25      1.0000 0.33300  0.35590  0.08030  Biso   1.000  C
  H16      1.0000 0.33060  0.36630  0.02690  Biso   1.000  H
  C26      1.0000 0.45290  0.34020  0.11790  Biso   1.000  C
  C27      1.0000 0.45560  0.32440  0.19590  Biso   1.000  C
  H17      1.0000 0.53660  0.31240  0.22160  Biso   1.000  H
  C28      1.0000 0.08660  0.37090  0.08060  Biso   1.000  C
  C29      1.0000 0.58000  0.34070  0.07620  Biso   1.000  C
  O1       1.0000 0.08100  0.39176  0.01190  Biso   1.000  O
  O2       1.0000 0.98460  0.35884  0.11806  Biso   1.000  O
  O3       1.0000 0.58040  0.36262  0.00762  Biso   1.000  O
  O4       1.0000 0.68340  0.31975  0.11185  Biso   1.000  O
  O5       1.0000 0.33870  0.30758  0.31304  Biso   1.000  O
  Cd2      1.0000 0.17264  0.86320  0.48010  Biso   1.000  Cd
  N4       1.0000 0.18930  0.89705  0.60822  Biso   1.000  N
  N5       1.0000 0.13810  0.01903  0.86501  Biso   1.000  N
  N6       1.0000 0.90080  0.23816  0.98913  Biso   1.000  N
  C30      1.0000 0.28790  0.87120  0.65380  Biso   1.000  C
  H18      1.0000 0.35190  0.83810  0.63270  Biso   1.000  H
  C31      1.0000 0.30070  0.89050  0.73030  Biso   1.000  C
  H19      1.0000 0.37280  0.87120  0.76040  Biso   1.000  H
  C32      1.0000 0.20880  0.93800  0.76320  Biso   1.000  C
  C33      1.0000 0.10780  0.96550  0.71530  Biso   1.000  C
  H20      1.0000 0.04320  0.99930  0.73480  Biso   1.000  H
  C34      1.0000 0.10110  0.94390  0.63950  Biso   1.000  C
  H21      1.0000 0.03070  0.96320  0.60810  Biso   1.000  H
  C35      1.0000 0.21550  0.96040  0.84531  Biso   1.000  C
  C36      1.0000 0.29970  0.92200  0.89766  Biso   1.000  C
  H22      1.0000 0.35170  0.87980  0.88150  Biso   1.000  H
  C37      1.0000 0.30620  0.94670  0.97420  Biso   1.000  C
  C38      1.0000 0.22580  0.00820  0.99360  Biso   1.000  C
  H23      1.0000 0.22680  0.02670  0.04480  Biso   1.000  H
  C39      1.0000 0.14350  0.04270  0.93830  Biso   1.000  C
  C40      1.0000 0.91920  0.21480  0.91830  Biso   1.000  C
  H24      1.0000 0.87790  0.24330  0.87780  Biso   1.000  H
  C41      1.0000 0.99470  0.15170  0.89950  Biso   1.000  C
  H25      1.0000 0.00370  0.13750  0.84740  Biso   1.000  H
  C42      1.0000 0.05760  0.10900  0.95730  Biso   1.000  C
  C43      1.0000 0.03250  0.13130  0.03170  Biso   1.000  C
  H26      1.0000 0.06930  0.10290  0.07360  Biso   1.000  H
  C44      1.0000 0.95460  0.19440  0.04480  Biso   1.000  C
  H27      1.0000 0.93790  0.20770  0.09640  Biso   1.000  H
  C45      1.0000 0.39680  0.90950  0.03134  Biso   1.000  C
  C46      1.0000 0.44410  0.83520  0.02090  Biso   1.000  C
  H28      1.0000 0.41650  0.80680  0.97680  Biso   1.000  H
  C47      1.0000 0.53080  0.80160  0.07370  Biso   1.000  C
  H29      1.0000 0.56300  0.75080  0.06570  Biso   1.000  H
  C48      1.0000 0.56980  0.84280  0.13800  Biso   1.000  C
  C49      1.0000 0.52260  0.91650  0.15026  Biso   1.000  C
  H30      1.0000 0.54850  0.94410  0.19520  Biso   1.000  H
  C50      1.0000 0.43770  0.94960  0.09700  Biso   1.000  C
  H31      1.0000 0.40640  0.00060  0.10510  Biso   1.000  H
  C51      1.0000 0.65830  0.82600  0.26420  Biso   1.000  C
  C52      1.0000 0.77850  0.84150  0.30140  Biso   1.000  C
  H32      1.0000 0.85720  0.84170  0.27350  Biso   1.000  H
  C53      1.0000 0.78310  0.85650  0.37949  Biso   1.000  C
  C54      1.0000 0.66700  0.85590  0.41970  Biso   1.000  C
  H33      1.0000 0.66940  0.86630  0.47310  Biso   1.000  H
  C55      1.0000 0.54710  0.84020  0.38210  Biso   1.000  C
  C56      1.0000 0.54440  0.82440  0.30410  Biso   1.000  C
  H34      1.0000 0.46340  0.81240  0.27840  Biso   1.000  H
  C57      1.0000 0.91340  0.87090  0.41940  Biso   1.000  C
  C58      1.0000 0.42000  0.84070  0.42380  Biso   1.000  C
  O6       1.0000 0.91900  0.89176  0.48810  Biso   1.000  O
  O7       1.0000 0.01540  0.85884  0.38194  Biso   1.000  O
  O8       1.0000 0.41960  0.86262  0.49238  Biso   1.000  O
  O9       1.0000 0.31660  0.81975  0.38815  Biso   1.000  O
  O10      1.0000 0.66130  0.80758  0.18696  Biso   1.000  O
  Cd3      1.0000 0.17264  0.63680  0.98010  Biso   1.000  Cd
  N7       1.0000 0.18930  0.60295  0.10822  Biso   1.000  N
  N8       1.0000 0.13810  0.48097  0.36501  Biso   1.000  N
  N9       1.0000 0.90080  0.26184  0.48913  Biso   1.000  N
  C59      1.0000 0.28790  0.62880  0.15380  Biso   1.000  C
  H35      1.0000 0.35190  0.66190  0.13270  Biso   1.000  H
  C60      1.0000 0.30070  0.60950  0.23030  Biso   1.000  C
  H36      1.0000 0.37280  0.62880  0.26040  Biso   1.000  H
  C61      1.0000 0.20880  0.56200  0.26320  Biso   1.000  C
  C62      1.0000 0.10780  0.53450  0.21530  Biso   1.000  C
  H37      1.0000 0.04320  0.50070  0.23480  Biso   1.000  H
  C63      1.0000 0.10110  0.55610  0.13950  Biso   1.000  C
  H38      1.0000 0.03070  0.53680  0.10810  Biso   1.000  H
  C64      1.0000 0.21550  0.53960  0.34531  Biso   1.000  C
  C65      1.0000 0.29970  0.57800  0.39766  Biso   1.000  C
  H39      1.0000 0.35170  0.62020  0.38150  Biso   1.000  H
  C66      1.0000 0.30620  0.55330  0.47420  Biso   1.000  C
  C67      1.0000 0.22580  0.49180  0.49360  Biso   1.000  C
  H40      1.0000 0.22680  0.47330  0.54480  Biso   1.000  H
  C68      1.0000 0.14350  0.45730  0.43830  Biso   1.000  C
  C69      1.0000 0.91920  0.28520  0.41830  Biso   1.000  C
  H41      1.0000 0.87790  0.25670  0.37780  Biso   1.000  H
  C70      1.0000 0.99470  0.34830  0.39950  Biso   1.000  C
  H42      1.0000 0.00370  0.36250  0.34740  Biso   1.000  H
  C71      1.0000 0.05760  0.39100  0.45730  Biso   1.000  C
  C72      1.0000 0.03250  0.36870  0.53170  Biso   1.000  C
  H43      1.0000 0.06930  0.39710  0.57360  Biso   1.000  H
  C73      1.0000 0.95460  0.30560  0.54480  Biso   1.000  C
  H44      1.0000 0.93790  0.29230  0.59640  Biso   1.000  H
  C74      1.0000 0.39680  0.59050  0.53134  Biso   1.000  C
  C75      1.0000 0.44410  0.66480  0.52090  Biso   1.000  C
  H45      1.0000 0.41650  0.69320  0.47680  Biso   1.000  H
  C76      1.0000 0.53080  0.69840  0.57370  Biso   1.000  C
  H46      1.0000 0.56300  0.74920  0.56570  Biso   1.000  H
  C77      1.0000 0.56980  0.65720  0.63800  Biso   1.000  C
  C78      1.0000 0.52260  0.58350  0.65026  Biso   1.000  C
  H47      1.0000 0.54850  0.55590  0.69520  Biso   1.000  H
  C79      1.0000 0.43770  0.55040  0.59700  Biso   1.000  C
  H48      1.0000 0.40640  0.49940  0.60510  Biso   1.000  H
  C80      1.0000 0.65830  0.67400  0.76420  Biso   1.000  C
  C81      1.0000 0.77850  0.65850  0.80140  Biso   1.000  C
  H49      1.0000 0.85720  0.65830  0.77350  Biso   1.000  H
  C82      1.0000 0.78310  0.64350  0.87949  Biso   1.000  C
  C83      1.0000 0.66700  0.64410  0.91970  Biso   1.000  C
  H50      1.0000 0.66940  0.63370  0.97310  Biso   1.000  H
  C84      1.0000 0.54710  0.65980  0.88210  Biso   1.000  C
  C85      1.0000 0.54440  0.67560  0.80410  Biso   1.000  C
  H51      1.0000 0.46340  0.68760  0.77840  Biso   1.000  H
  C86      1.0000 0.91340  0.62910  0.91940  Biso   1.000  C
  C87      1.0000 0.42000  0.65930  0.92380  Biso   1.000  C
  O11      1.0000 0.91900  0.60824  0.98810  Biso   1.000  O
  O12      1.0000 0.01540  0.64116  0.88194  Biso   1.000  O
  O13      1.0000 0.41960  0.63738  0.99238  Biso   1.000  O
  O14      1.0000 0.31660  0.68025  0.88815  Biso   1.000  O
  O15      1.0000 0.66130  0.69242  0.68696  Biso   1.000  O
  Cd4      1.0000 0.82736  0.13680  0.51990  Biso   1.000  Cd
  N10      1.0000 0.81070  0.10295  0.39178  Biso   1.000  N
  N11      1.0000 0.86190  0.98097  0.13499  Biso   1.000  N
  N12      1.0000 0.09920  0.76184  0.01087  Biso   1.000  N
  C88      1.0000 0.71210  0.12880  0.34620  Biso   1.000  C
  H52      1.0000 0.64810  0.16190  0.36730  Biso   1.000  H
  C89      1.0000 0.69930  0.10950  0.26970  Biso   1.000  C
  H53      1.0000 0.62720  0.12880  0.23960  Biso   1.000  H
  C90      1.0000 0.79120  0.06200  0.23680  Biso   1.000  C
  C91      1.0000 0.89220  0.03450  0.28470  Biso   1.000  C
  H54      1.0000 0.95680  0.00070  0.26520  Biso   1.000  H
  C92      1.0000 0.89890  0.05610  0.36050  Biso   1.000  C
  H55      1.0000 0.96930  0.03680  0.39190  Biso   1.000  H
  C93      1.0000 0.78450  0.03960  0.15469  Biso   1.000  C
  C94      1.0000 0.70030  0.07800  0.10234  Biso   1.000  C
  H56      1.0000 0.64830  0.12020  0.11850  Biso   1.000  H
  C95      1.0000 0.69380  0.05330  0.02580  Biso   1.000  C
  C96      1.0000 0.77420  0.99180  0.00640  Biso   1.000  C
  H57      1.0000 0.77320  0.97330  0.95520  Biso   1.000  H
  C97      1.0000 0.85650  0.95730  0.06170  Biso   1.000  C
  C98      1.0000 0.08080  0.78520  0.08170  Biso   1.000  C
  H58      1.0000 0.12210  0.75670  0.12220  Biso   1.000  H
  C99      1.0000 0.00530  0.84830  0.10050  Biso   1.000  C
  H59      1.0000 0.99630  0.86250  0.15260  Biso   1.000  H
  C100     1.0000 0.94240  0.89100  0.04270  Biso   1.000  C
  C101     1.0000 0.96750  0.86870  0.96830  Biso   1.000  C
  H60      1.0000 0.93070  0.89710  0.92640  Biso   1.000  H
  C102     1.0000 0.04540  0.80560  0.95520  Biso   1.000  C
  H61      1.0000 0.06210  0.79230  0.90360  Biso   1.000  H
  C103     1.0000 0.60320  0.09050  0.96866  Biso   1.000  C
  C104     1.0000 0.55590  0.16480  0.97910  Biso   1.000  C
  H62      1.0000 0.58350  0.19320  0.02320  Biso   1.000  H
  C105     1.0000 0.46920  0.19840  0.92630  Biso   1.000  C
  H63      1.0000 0.43700  0.24920  0.93430  Biso   1.000  H
  C106     1.0000 0.43020  0.15720  0.86200  Biso   1.000  C
  C107     1.0000 0.47740  0.08350  0.84974  Biso   1.000  C
  H64      1.0000 0.45150  0.05590  0.80480  Biso   1.000  H
  C108     1.0000 0.56230  0.05040  0.90300  Biso   1.000  C
  H65      1.0000 0.59360  0.99940  0.89490  Biso   1.000  H
  C109     1.0000 0.34170  0.17400  0.73580  Biso   1.000  C
  C110     1.0000 0.22150  0.15850  0.69860  Biso   1.000  C
  H66      1.0000 0.14280  0.15830  0.72650  Biso   1.000  H
  C111     1.0000 0.21690  0.14350  0.62051  Biso   1.000  C
  C112     1.0000 0.33300  0.14410  0.58030  Biso   1.000  C
  H67      1.0000 0.33060  0.13370  0.52690  Biso   1.000  H
  C113     1.0000 0.45290  0.15980  0.61790  Biso   1.000  C
  C114     1.0000 0.45560  0.17560  0.69590  Biso   1.000  C
  H68      1.0000 0.53660  0.18760  0.72160  Biso   1.000  H
  C115     1.0000 0.08660  0.12910  0.58060  Biso   1.000  C
  C116     1.0000 0.58000  0.15930  0.57620  Biso   1.000  C
  O16      1.0000 0.08100  0.10824  0.51190  Biso   1.000  O
  O17      1.0000 0.98460  0.14116  0.61806  Biso   1.000  O
  O18      1.0000 0.58040  0.13738  0.50762  Biso   1.000  O
  O19      1.0000 0.68340  0.18025  0.61185  Biso   1.000  O
  O20      1.0000 0.33870  0.19242  0.81304  Biso   1.000  O
