data_image0
_cell_length_a       6.7883
_cell_length_b       14.484
_cell_length_c       28.9167
_cell_angle_alpha    90
_cell_angle_beta     93.295
_cell_angle_gamma    90

_symmetry_space_group_name_H-M    "P 1"
_symmetry_int_tables_number       1

loop_
  _symmetry_equiv_pos_as_xyz
  'x, y, z'

loop_
  _atom_site_label
  _atom_site_occupancy
  _atom_site_fract_x
  _atom_site_fract_y
  _atom_site_fract_z
  _atom_site_thermal_displace_type
  _atom_site_B_iso_or_equiv
  _atom_site_type_symbol
  Ni1      1.0000 0.99864  0.77426  0.25358  Biso   1.000  Ni
  Ni2      1.0000 0.50360  0.52446  0.24623  Biso   1.000  Ni
  N1       1.0000 0.80260  0.37310  0.26627  Biso   1.000  N
  N2       1.0000 0.86020  0.72700  0.68631  Biso   1.000  N
  N3       1.0000 0.79880  0.67430  0.27261  Biso   1.000  N
  N4       1.0000 0.13790  0.77300  0.32082  Biso   1.000  N
  C1       1.0000 0.68730  0.43200  0.26188  Biso   1.000  C
  N5       1.0000 0.19120  0.67190  0.23576  Biso   1.000  N
  N6       1.0000 0.19400  0.37710  0.22871  Biso   1.000  N
  C2       1.0000 0.33450  0.77450  0.32818  Biso   1.000  C
  H1       1.0000 0.41360  0.77900  0.30220  Biso   1.000  H
  C3       1.0000 0.66370  0.72450  0.67867  Biso   1.000  C
  H2       1.0000 0.58400  0.71970  0.70450  Biso   1.000  H
  C4       1.0000 0.31720  0.79030  0.49668  Biso   1.000  C
  H3       1.0000 0.19110  0.81850  0.49230  Biso   1.000  H
  C5       1.0000 0.40950  0.75600  0.45837  Biso   1.000  C
  C6       1.0000 0.68270  0.70750  0.51037  Biso   1.000  C
  H4       1.0000 0.80820  0.67880  0.51470  Biso   1.000  H
  C7       1.0000 0.59200  0.74190  0.54845  Biso   1.000  C
  C8       1.0000 0.31490  0.76200  0.41103  Biso   1.000  C
  C9       1.0000 0.57210  0.72880  0.63483  Biso   1.000  C
  H5       1.0000 0.43220  0.72710  0.63100  Biso   1.000  H
  C10      1.0000 0.68520  0.73550  0.59596  Biso   1.000  C
  C11      1.0000 0.03100  0.76660  0.35795  Biso   1.000  C
  H6       1.0000 0.89140  0.76590  0.35320  Biso   1.000  H
  C12      1.0000 0.42700  0.76980  0.37193  Biso   1.000  C
  H7       1.0000 0.56690  0.77180  0.37550  Biso   1.000  H
  C13      1.0000 0.96810  0.73300  0.64918  Biso   1.000  C
  H8       1.0000 0.10770  0.73460  0.65410  Biso   1.000  H
  C14      1.0000 0.40540  0.78390  0.54072  Biso   1.000  C
  H9       1.0000 0.33980  0.80820  0.56620  Biso   1.000  H
  C15      1.0000 0.59480  0.71390  0.46605  Biso   1.000  C
  H10      1.0000 0.66060  0.68960  0.44060  Biso   1.000  H
  C16      1.0000 0.88910  0.73680  0.60434  Biso   1.000  C
  H11      1.0000 0.97320  0.74020  0.57920  Biso   1.000  H
  C17      1.0000 0.11100  0.76090  0.40270  Biso   1.000  C
  H12      1.0000 0.02720  0.75630  0.42780  Biso   1.000  H
  C18      1.0000 0.31040  0.61500  0.23815  Biso   1.000  C
  C19      1.0000 0.68390  0.61590  0.26577  Biso   1.000  C
  C20      1.0000 0.31170  0.43410  0.23398  Biso   1.000  C
  Ni3      1.0000 0.00136  0.27426  0.24642  Biso   1.000  Ni
  Ni4      1.0000 0.49640  0.02446  0.25377  Biso   1.000  Ni
  N7       1.0000 0.19740  0.87310  0.23373  Biso   1.000  N
  N8       1.0000 0.13980  0.22700  0.81369  Biso   1.000  N
  N9       1.0000 0.20120  0.17430  0.22739  Biso   1.000  N
  N10      1.0000 0.86210  0.27300  0.17918  Biso   1.000  N
  C21      1.0000 0.31270  0.93200  0.23812  Biso   1.000  C
  N11      1.0000 0.80880  0.17190  0.26424  Biso   1.000  N
  N12      1.0000 0.80600  0.87710  0.27129  Biso   1.000  N
  C22      1.0000 0.66550  0.27450  0.17182  Biso   1.000  C
  H13      1.0000 0.58640  0.27900  0.19780  Biso   1.000  H
  C23      1.0000 0.33630  0.22450  0.82133  Biso   1.000  C
  H14      1.0000 0.41600  0.21970  0.79550  Biso   1.000  H
  C24      1.0000 0.68280  0.29030  0.00332  Biso   1.000  C
  H15      1.0000 0.80890  0.31850  0.00770  Biso   1.000  H
  C25      1.0000 0.59050  0.25600  0.04163  Biso   1.000  C
  C26      1.0000 0.31730  0.20750  0.98963  Biso   1.000  C
  H16      1.0000 0.19180  0.17880  0.98530  Biso   1.000  H
  C27      1.0000 0.40800  0.24190  0.95155  Biso   1.000  C
  C28      1.0000 0.68510  0.26200  0.08897  Biso   1.000  C
  C29      1.0000 0.42790  0.22880  0.86517  Biso   1.000  C
  H17      1.0000 0.56780  0.22710  0.86900  Biso   1.000  H
  C30      1.0000 0.31480  0.23550  0.90404  Biso   1.000  C
  C31      1.0000 0.96900  0.26660  0.14205  Biso   1.000  C
  H18      1.0000 0.10860  0.26590  0.14680  Biso   1.000  H
  C32      1.0000 0.57300  0.26980  0.12807  Biso   1.000  C
  H19      1.0000 0.43310  0.27180  0.12450  Biso   1.000  H
  C33      1.0000 0.03190  0.23300  0.85082  Biso   1.000  C
  H20      1.0000 0.89230  0.23460  0.84590  Biso   1.000  H
  C34      1.0000 0.59460  0.28390  0.95928  Biso   1.000  C
  H21      1.0000 0.66020  0.30820  0.93380  Biso   1.000  H
  C35      1.0000 0.40520  0.21390  0.03395  Biso   1.000  C
  H22      1.0000 0.33940  0.18960  0.05940  Biso   1.000  H
  C36      1.0000 0.11090  0.23680  0.89566  Biso   1.000  C
  H23      1.0000 0.02680  0.24020  0.92080  Biso   1.000  H
  C37      1.0000 0.88900  0.26090  0.09730  Biso   1.000  C
  H24      1.0000 0.97280  0.25630  0.07220  Biso   1.000  H
  C38      1.0000 0.68960  0.11500  0.26185  Biso   1.000  C
  C39      1.0000 0.31610  0.11590  0.23423  Biso   1.000  C
  C40      1.0000 0.68830  0.93410  0.26602  Biso   1.000  C
  Ni5      1.0000 0.00136  0.22574  0.74642  Biso   1.000  Ni
  Ni6      1.0000 0.49640  0.47554  0.75377  Biso   1.000  Ni
  N13      1.0000 0.19740  0.62690  0.73373  Biso   1.000  N
  N14      1.0000 0.13980  0.27300  0.31369  Biso   1.000  N
  N15      1.0000 0.20120  0.32570  0.72739  Biso   1.000  N
  N16      1.0000 0.86210  0.22700  0.67918  Biso   1.000  N
  C41      1.0000 0.31270  0.56800  0.73812  Biso   1.000  C
  N17      1.0000 0.80880  0.32810  0.76424  Biso   1.000  N
  N18      1.0000 0.80600  0.62290  0.77129  Biso   1.000  N
  C42      1.0000 0.66550  0.22550  0.67182  Biso   1.000  C
  H25      1.0000 0.58640  0.22100  0.69780  Biso   1.000  H
  C43      1.0000 0.33630  0.27550  0.32133  Biso   1.000  C
  H26      1.0000 0.41600  0.28030  0.29550  Biso   1.000  H
  C44      1.0000 0.68280  0.20970  0.50332  Biso   1.000  C
  H27      1.0000 0.80890  0.18150  0.50770  Biso   1.000  H
  C45      1.0000 0.59050  0.24400  0.54163  Biso   1.000  C
  C46      1.0000 0.31730  0.29250  0.48963  Biso   1.000  C
  H28      1.0000 0.19180  0.32120  0.48530  Biso   1.000  H
  C47      1.0000 0.40800  0.25810  0.45155  Biso   1.000  C
  C48      1.0000 0.68510  0.23800  0.58897  Biso   1.000  C
  C49      1.0000 0.42790  0.27120  0.36517  Biso   1.000  C
  H29      1.0000 0.56780  0.27290  0.36900  Biso   1.000  H
  C50      1.0000 0.31480  0.26450  0.40404  Biso   1.000  C
  C51      1.0000 0.96900  0.23340  0.64205  Biso   1.000  C
  H30      1.0000 0.10860  0.23410  0.64680  Biso   1.000  H
  C52      1.0000 0.57300  0.23020  0.62807  Biso   1.000  C
  H31      1.0000 0.43310  0.22820  0.62450  Biso   1.000  H
  C53      1.0000 0.03190  0.26700  0.35082  Biso   1.000  C
  H32      1.0000 0.89230  0.26540  0.34590  Biso   1.000  H
  C54      1.0000 0.59460  0.21610  0.45928  Biso   1.000  C
  H33      1.0000 0.66020  0.19180  0.43380  Biso   1.000  H
  C55      1.0000 0.40520  0.28610  0.53395  Biso   1.000  C
  H34      1.0000 0.33940  0.31040  0.55940  Biso   1.000  H
  C56      1.0000 0.11090  0.26320  0.39566  Biso   1.000  C
  H35      1.0000 0.02680  0.25980  0.42080  Biso   1.000  H
  C57      1.0000 0.88900  0.23910  0.59730  Biso   1.000  C
  H36      1.0000 0.97280  0.24370  0.57220  Biso   1.000  H
  C58      1.0000 0.68960  0.38500  0.76185  Biso   1.000  C
  C59      1.0000 0.31610  0.38410  0.73423  Biso   1.000  C
  C60      1.0000 0.68830  0.56590  0.76602  Biso   1.000  C
  Ni7      1.0000 0.99864  0.72574  0.75358  Biso   1.000  Ni
  Ni8      1.0000 0.50360  0.97554  0.74623  Biso   1.000  Ni
  N19      1.0000 0.80260  0.12690  0.76627  Biso   1.000  N
  N20      1.0000 0.86020  0.77300  0.18631  Biso   1.000  N
  N21      1.0000 0.79880  0.82570  0.77261  Biso   1.000  N
  N22      1.0000 0.13790  0.72700  0.82082  Biso   1.000  N
  C61      1.0000 0.68730  0.06800  0.76188  Biso   1.000  C
  N23      1.0000 0.19120  0.82810  0.73576  Biso   1.000  N
  N24      1.0000 0.19400  0.12290  0.72871  Biso   1.000  N
  C62      1.0000 0.33450  0.72550  0.82818  Biso   1.000  C
  H37      1.0000 0.41360  0.72100  0.80220  Biso   1.000  H
  C63      1.0000 0.66370  0.77550  0.17867  Biso   1.000  C
  H38      1.0000 0.58400  0.78030  0.20450  Biso   1.000  H
  C64      1.0000 0.31720  0.70970  0.99668  Biso   1.000  C
  H39      1.0000 0.19110  0.68150  0.99230  Biso   1.000  H
  C65      1.0000 0.40950  0.74400  0.95837  Biso   1.000  C
  C66      1.0000 0.68270  0.79250  0.01037  Biso   1.000  C
  H40      1.0000 0.80820  0.82120  0.01470  Biso   1.000  H
  C67      1.0000 0.59200  0.75810  0.04845  Biso   1.000  C
  C68      1.0000 0.31490  0.73800  0.91103  Biso   1.000  C
  C69      1.0000 0.57210  0.77120  0.13483  Biso   1.000  C
  H41      1.0000 0.43220  0.77290  0.13100  Biso   1.000  H
  C70      1.0000 0.68520  0.76450  0.09596  Biso   1.000  C
  C71      1.0000 0.03100  0.73340  0.85795  Biso   1.000  C
  H42      1.0000 0.89140  0.73410  0.85320  Biso   1.000  H
  C72      1.0000 0.42700  0.73020  0.87193  Biso   1.000  C
  H43      1.0000 0.56690  0.72820  0.87550  Biso   1.000  H
  C73      1.0000 0.96810  0.76700  0.14918  Biso   1.000  C
  H44      1.0000 0.10770  0.76540  0.15410  Biso   1.000  H
  C74      1.0000 0.40540  0.71610  0.04072  Biso   1.000  C
  H45      1.0000 0.33980  0.69180  0.06620  Biso   1.000  H
  C75      1.0000 0.59480  0.78610  0.96605  Biso   1.000  C
  H46      1.0000 0.66060  0.81040  0.94060  Biso   1.000  H
  C76      1.0000 0.88910  0.76320  0.10434  Biso   1.000  C
  H47      1.0000 0.97320  0.75980  0.07920  Biso   1.000  H
  C77      1.0000 0.11100  0.73910  0.90270  Biso   1.000  C
  H48      1.0000 0.02720  0.74370  0.92780  Biso   1.000  H
  C78      1.0000 0.31040  0.88500  0.73815  Biso   1.000  C
  C79      1.0000 0.68390  0.88410  0.76577  Biso   1.000  C
  C80      1.0000 0.31170  0.06590  0.73398  Biso   1.000  C
