data_CABQEB_clean
_audit_creation_date              2014-07-02
_audit_creation_method            'Materials Studio'
_symmetry_space_group_name_H-M    'P1'
_symmetry_Int_Tables_number       1
_symmetry_cell_setting            triclinic
loop_
_symmetry_equiv_pos_as_xyz
  x,y,z
_cell_length_a                    11.5650
_cell_length_b                    17.7233
_cell_length_c                    17.7233
_cell_angle_alpha                 83.8894
_cell_angle_beta                  70.9578
_cell_angle_gamma                 70.9577
loop_
_atom_site_label
_atom_site_type_symbol
_atom_site_fract_x
_atom_site_fract_y
_atom_site_fract_z
_atom_site_U_iso_or_equiv
_atom_site_adp_type
_atom_site_occupancy
Co1    Co    0.57740   0.22520   0.67080   0.01267  Uiso   1.00
Co2    Co    0.45770   0.41220   0.66760   0.01267  Uiso   1.00
Co3    Co    0.97340   0.27480   0.82920   0.01267  Uiso   1.00
Co4    Co    0.03750   0.08780   0.83240   0.01267  Uiso   1.00
Co5    Co    0.24820   0.32920   0.72520   0.01267  Uiso   1.00
Co6    Co    0.12530   0.33240   0.91220   0.01267  Uiso   1.00
Co7    Co    0.80260   0.17080   0.77480   0.01267  Uiso   1.00
Co8    Co    0.86990   0.16760   0.58780   0.01267  Uiso   1.00
Co9    Co    0.42260   0.77480   0.32920   0.01267  Uiso   1.00
Co10   Co    0.54230   0.58780   0.33240   0.01267  Uiso   1.00
Co11   Co    0.02660   0.72520   0.17080   0.01267  Uiso   1.00
Co12   Co    0.96250   0.91220   0.16760   0.01267  Uiso   1.00
Co13   Co    0.75180   0.67080   0.27480   0.01267  Uiso   1.00
Co14   Co    0.87470   0.66760   0.08780   0.01267  Uiso   1.00
Co15   Co    0.19740   0.82920   0.22520   0.01267  Uiso   1.00
Co16   Co    0.13010   0.83240   0.41220   0.01267  Uiso   1.00
Co17   Co    0.50000   0.50000   0.50000   0.01267  Uiso   1.00
Co18   Co    0.00000   0.00000   0.00000   0.01267  Uiso   1.00
Co19   Co    0.00000   0.50000  -0.00000   0.01267  Uiso   1.00
Co20   Co    0.00000   0.00000   0.50000   0.01267  Uiso   1.00
H1     H     0.42880   0.30700   0.60040   0.01267  Uiso   1.00
H2     H     0.48900   0.39020   0.90480   0.01267  Uiso   1.00
H3     H     0.61050   0.41260   0.84980   0.01267  Uiso   1.00
H4     H     0.48450   0.44000   0.82640   0.01267  Uiso   1.00
H5     H     0.11360   0.55360   0.55340   0.01267  Uiso   1.00
H6     H     0.23750   0.51150   0.48570   0.01267  Uiso   1.00
H7     H     0.13110   0.46950   0.52270   0.01267  Uiso   1.00
H8     H     0.85020   0.29650   0.43150   0.01267  Uiso   1.00
H9     H     0.73610   0.27610   0.41990   0.01267  Uiso   1.00
H10    H     0.73830   0.36470   0.41070   0.01267  Uiso   1.00
H11    H     0.60200   0.59960   0.71580   0.01267  Uiso   1.00
H12    H     0.47620   0.66260   0.70820   0.01267  Uiso   1.00
H13    H     0.60540   0.65160   0.63800   0.01267  Uiso   1.00
H14    H     0.83620   0.19300   0.89960   0.01267  Uiso   1.00
H15    H     0.28400   0.10980   0.59520   0.01267  Uiso   1.00
H16    H     0.37290   0.08740   0.65020   0.01267  Uiso   1.00
H17    H     0.25090   0.06000   0.67360   0.01267  Uiso   1.00
H18    H     0.72060   0.94640   0.94660   0.01267  Uiso   1.00
H19    H     0.73470   0.98850   0.01430   0.01267  Uiso   1.00
H20    H     0.62330   0.03050   0.97730   0.01267  Uiso   1.00
H21    H     0.07820   0.20350   0.06850   0.01267  Uiso   1.00
H22    H     0.93210   0.22390   0.08010   0.01267  Uiso   1.00
H23    H     0.01370   0.13530   0.08930   0.01267  Uiso   1.00
H24    H     0.41740   0.90040   0.78420   0.01267  Uiso   1.00
H25    H     0.34700   0.83740   0.79180   0.01267  Uiso   1.00
H26    H     0.39500   0.84840   0.86200   0.01267  Uiso   1.00
H27    H     0.02920   0.39960   0.80700   0.01267  Uiso   1.00
H28    H     0.39380   0.09520   0.89020   0.01267  Uiso   1.00
H29    H     0.46030   0.15020   0.91260   0.01267  Uiso   1.00
H30    H     0.31090   0.17360   0.94000   0.01267  Uiso   1.00
H31    H     0.66700   0.44660   0.05360   0.01267  Uiso   1.00
H32    H     0.72320   0.51430   0.01150   0.01267  Uiso   1.00
H33    H     0.65380   0.47730   0.96950   0.01267  Uiso   1.00
H34    H     0.28170   0.56850   0.79650   0.01267  Uiso   1.00
H35    H     0.15600   0.58010   0.77610   0.01267  Uiso   1.00
H36    H     0.14900   0.58930   0.86470   0.01267  Uiso   1.00
H37    H     0.31780   0.28420   0.09960   0.01267  Uiso   1.00
H38    H     0.18440   0.29180   0.16260   0.01267  Uiso   1.00
H39    H     0.24340   0.36200   0.15160   0.01267  Uiso   1.00
H40    H     0.73580   0.10040   0.69300   0.01267  Uiso   1.00
H41    H     0.87920   0.40480   0.60980   0.01267  Uiso   1.00
H42    H     0.02310   0.34980   0.58740   0.01267  Uiso   1.00
H43    H     0.92450   0.32640   0.56000   0.01267  Uiso   1.00
H44    H     0.66720   0.05340   0.44640   0.01267  Uiso   1.00
H45    H     0.74900   0.98570   0.48850   0.01267  Uiso   1.00
H46    H     0.60060   0.02270   0.53050   0.01267  Uiso   1.00
H47    H     0.14670   0.93150   0.70350   0.01267  Uiso   1.00
H48    H     0.01220   0.91990   0.72390   0.01267  Uiso   1.00
H49    H     0.10300   0.91070   0.63530   0.01267  Uiso   1.00
H50    H     0.20160   0.21580   0.40040   0.01267  Uiso   1.00
H51    H     0.13880   0.20820   0.33740   0.01267  Uiso   1.00
H52    H     0.25700   0.13800   0.34840   0.01267  Uiso   1.00
H53    H     0.57120   0.69300   0.39960   0.01267  Uiso   1.00
H54    H     0.51100   0.60980   0.09520   0.01267  Uiso   1.00
H55    H     0.38950   0.58740   0.15020   0.01267  Uiso   1.00
H56    H     0.51550   0.56000   0.17360   0.01267  Uiso   1.00
H57    H     0.88640   0.44640   0.44660   0.01267  Uiso   1.00
H58    H     0.76250   0.48850   0.51430   0.01267  Uiso   1.00
H59    H     0.86890   0.53050   0.47730   0.01267  Uiso   1.00
H60    H     0.14980   0.70350   0.56850   0.01267  Uiso   1.00
H61    H     0.26390   0.72390   0.58010   0.01267  Uiso   1.00
H62    H     0.26170   0.63530   0.58930   0.01267  Uiso   1.00
H63    H     0.39800   0.40040   0.28420   0.01267  Uiso   1.00
H64    H     0.52380   0.33740   0.29180   0.01267  Uiso   1.00
H65    H     0.39460   0.34840   0.36200   0.01267  Uiso   1.00
H66    H     0.16380   0.80700   0.10040   0.01267  Uiso   1.00
H67    H     0.71600   0.89020   0.40480   0.01267  Uiso   1.00
H68    H     0.62710   0.91260   0.34980   0.01267  Uiso   1.00
H69    H     0.74910   0.94000   0.32640   0.01267  Uiso   1.00
H70    H     0.27940   0.05360   0.05340   0.01267  Uiso   1.00
H71    H     0.26530   0.01150   0.98570   0.01267  Uiso   1.00
H72    H     0.37670   0.96950   0.02270   0.01267  Uiso   1.00
H73    H     0.92180   0.79650   0.93150   0.01267  Uiso   1.00
H74    H     0.06790   0.77610   0.91990   0.01267  Uiso   1.00
H75    H     0.98630   0.86470   0.91070   0.01267  Uiso   1.00
H76    H     0.58260   0.09960   0.21580   0.01267  Uiso   1.00
H77    H     0.65300   0.16260   0.20820   0.01267  Uiso   1.00
H78    H     0.60500   0.15160   0.13800   0.01267  Uiso   1.00
H79    H     0.97080   0.60040   0.19300   0.01267  Uiso   1.00
H80    H     0.60620   0.90480   0.10980   0.01267  Uiso   1.00
H81    H     0.53970   0.84980   0.08740   0.01267  Uiso   1.00
H82    H     0.68910   0.82640   0.06000   0.01267  Uiso   1.00
H83    H     0.33300   0.55340   0.94640   0.01267  Uiso   1.00
H84    H     0.27680   0.48570   0.98850   0.01267  Uiso   1.00
H85    H     0.34620   0.52270   0.03050   0.01267  Uiso   1.00
H86    H     0.71830   0.43150   0.20350   0.01267  Uiso   1.00
H87    H     0.84400   0.41990   0.22390   0.01267  Uiso   1.00
H88    H     0.85100   0.41070   0.13530   0.01267  Uiso   1.00
H89    H     0.68220   0.71580   0.90040   0.01267  Uiso   1.00
H90    H     0.81560   0.70820   0.83740   0.01267  Uiso   1.00
H91    H     0.75660   0.63800   0.84840   0.01267  Uiso   1.00
H92    H     0.26420   0.89960   0.30700   0.01267  Uiso   1.00
H93    H     0.12080   0.59520   0.39020   0.01267  Uiso   1.00
H94    H     0.97690   0.65020   0.41260   0.01267  Uiso   1.00
H95    H     0.07550   0.67360   0.44000   0.01267  Uiso   1.00
H96    H     0.33280   0.94660   0.55360   0.01267  Uiso   1.00
H97    H     0.25100   0.01430   0.51150   0.01267  Uiso   1.00
H98    H     0.39940   0.97730   0.46950   0.01267  Uiso   1.00
H99    H     0.85330   0.06850   0.29650   0.01267  Uiso   1.00
H100   H     0.98780   0.08010   0.27610   0.01267  Uiso   1.00
H101   H     0.89700   0.08930   0.36470   0.01267  Uiso   1.00
H102   H     0.79840   0.78420   0.59960   0.01267  Uiso   1.00
H103   H     0.86120   0.79180   0.66260   0.01267  Uiso   1.00
H104   H     0.74300   0.86200   0.65160   0.01267  Uiso   1.00
C1     C     0.58260   0.32190   0.80330   0.01267  Uiso   1.00
C2     C     0.53780   0.39780   0.85060   0.01267  Uiso   1.00
C3     C     0.23950   0.46200   0.59500   0.01267  Uiso   1.00
C4     C     0.17470   0.50270   0.53390   0.01267  Uiso   1.00
C5     C     0.68720   0.32820   0.52740   0.01267  Uiso   1.00
C6     C     0.75940   0.31580   0.43940   0.01267  Uiso   1.00
C7     C     0.52350   0.56320   0.64580   0.01267  Uiso   1.00
C8     C     0.55510   0.62470   0.67910   0.01267  Uiso   1.00
C9     C     0.20780   0.17810   0.69670   0.01267  Uiso   1.00
C10    C     0.28620   0.10220   0.64940   0.01267  Uiso   1.00
C11    C     0.79650   0.03800   0.90500   0.01267  Uiso   1.00
C12    C     0.71130   0.99730   0.96610   0.01267  Uiso   1.00
C13    C     0.04280   0.17180   0.97260   0.01267  Uiso   1.00
C14    C     0.01460   0.18420   0.06060   0.01267  Uiso   1.00
C15    C     0.23250   0.93680   0.85420   0.01267  Uiso   1.00
C16    C     0.35890   0.87530   0.82090   0.01267  Uiso   1.00
C17    C     0.38590   0.19670   0.82190   0.01267  Uiso   1.00
C18    C     0.38840   0.14940   0.89780   0.01267  Uiso   1.00
C19    C     0.83450   0.40500   0.96200   0.01267  Uiso   1.00
C20    C     0.70860   0.46610   0.00270   0.01267  Uiso   1.00
C21    C     0.21460   0.47260   0.82820   0.01267  Uiso   1.00
C22    C     0.19880   0.56060   0.81580   0.01267  Uiso   1.00
C23    C     0.16930   0.35420   0.06320   0.01267  Uiso   1.00
C24    C     0.23420   0.32090   0.12470   0.01267  Uiso   1.00
C25    C     0.90450   0.30330   0.67810   0.01267  Uiso   1.00
C26    C     0.93560   0.35060   0.60220   0.01267  Uiso   1.00
C27    C     0.70150   0.09500   0.53800   0.01267  Uiso   1.00
C28    C     0.67740   0.03390   0.49730   0.01267  Uiso   1.00
C29    C     0.01540   0.02740   0.67180   0.01267  Uiso   1.00
C30    C     0.07520   0.93940   0.68420   0.01267  Uiso   1.00
C31    C     0.08670   0.14580   0.43680   0.01267  Uiso   1.00
C32    C     0.17980   0.17910   0.37530   0.01267  Uiso   1.00
C33    C     0.41740   0.67810   0.19670   0.01267  Uiso   1.00
C34    C     0.46220   0.60220   0.14940   0.01267  Uiso   1.00
C35    C     0.76050   0.53800   0.40500   0.01267  Uiso   1.00
C36    C     0.82530   0.49730   0.46610   0.01267  Uiso   1.00
C37    C     0.31280   0.67180   0.47260   0.01267  Uiso   1.00
C38    C     0.24060   0.68420   0.56060   0.01267  Uiso   1.00
C39    C     0.47650   0.43680   0.35420   0.01267  Uiso   1.00
C40    C     0.44490   0.37530   0.32090   0.01267  Uiso   1.00
C41    C     0.79220   0.82190   0.30330   0.01267  Uiso   1.00
C42    C     0.71380   0.89780   0.35060   0.01267  Uiso   1.00
C43    C     0.20350   0.96200   0.09500   0.01267  Uiso   1.00
C44    C     0.28870   0.00270   0.03390   0.01267  Uiso   1.00
C45    C     0.95720   0.82820   0.02740   0.01267  Uiso   1.00
C46    C     0.98540   0.81580   0.93940   0.01267  Uiso   1.00
C47    C     0.76750   0.06320   0.14580   0.01267  Uiso   1.00
C48    C     0.64110   0.12470   0.17910   0.01267  Uiso   1.00
C49    C     0.61410   0.80330   0.17810   0.01267  Uiso   1.00
C50    C     0.61160   0.85060   0.10220   0.01267  Uiso   1.00
C51    C     0.16550   0.59500   0.03800   0.01267  Uiso   1.00
C52    C     0.29140   0.53390   0.99730   0.01267  Uiso   1.00
C53    C     0.78540   0.52740   0.17180   0.01267  Uiso   1.00
C54    C     0.80120   0.43940   0.18420   0.01267  Uiso   1.00
C55    C     0.83070   0.64580   0.93680   0.01267  Uiso   1.00
C56    C     0.76580   0.67910   0.87530   0.01267  Uiso   1.00
C57    C     0.09550   0.69670   0.32190   0.01267  Uiso   1.00
C58    C     0.06440   0.64940   0.39780   0.01267  Uiso   1.00
C59    C     0.29850   0.90500   0.46200   0.01267  Uiso   1.00
C60    C     0.32260   0.96610   0.50270   0.01267  Uiso   1.00
C61    C     0.98460   0.97260   0.32820   0.01267  Uiso   1.00
C62    C     0.92480   0.06060   0.31580   0.01267  Uiso   1.00
C63    C     0.91330   0.85420   0.56320   0.01267  Uiso   1.00
C64    C     0.82020   0.82090   0.62470   0.01267  Uiso   1.00
O1     O     0.42760   0.30960   0.64820   0.01267  Uiso   1.00
O2     O     0.56370   0.32610   0.73570   0.01267  Uiso   1.00
O3     O     0.18390   0.41850   0.64370   0.01267  Uiso   1.00
O4     O     0.34330   0.47480   0.59460   0.01267  Uiso   1.00
O5     O     0.71460   0.27100   0.57400   0.01267  Uiso   1.00
O6     O     0.60320   0.39420   0.55180   0.01267  Uiso   1.00
O7     O     0.50170   0.50640   0.69120   0.01267  Uiso   1.00
O8     O     0.52540   0.56900   0.57400   0.01267  Uiso   1.00
O9     O     0.63470   0.25790   0.83170   0.01267  Uiso   1.00
O10    O     0.88540   0.19040   0.85180   0.01267  Uiso   1.00
O11    O     0.12550   0.17390   0.76430   0.01267  Uiso   1.00
O12    O     0.74610   0.08150   0.85630   0.01267  Uiso   1.00
O13    O     0.91270   0.02520   0.90540   0.01267  Uiso   1.00
O14    O     0.05960   0.22900   0.92600   0.01267  Uiso   1.00
O15    O     0.04920   0.10580   0.94820   0.01267  Uiso   1.00
O16    O     0.19930   0.99360   0.80880   0.01267  Uiso   1.00
O17    O     0.16840   0.93100   0.92600   0.01267  Uiso   1.00
O18    O     0.22430   0.24210   0.66830   0.01267  Uiso   1.00
O19    O     0.07580   0.35180   0.80960   0.01267  Uiso   1.00
O20    O     0.29940   0.26430   0.82610   0.01267  Uiso   1.00
O21    O     0.82760   0.35630   0.91850   0.01267  Uiso   1.00
O22    O     0.93790   0.40540   0.97480   0.01267  Uiso   1.00
O23    O     0.28860   0.42600   0.77100   0.01267  Uiso   1.00
O24    O     0.15500   0.44820   0.89420   0.01267  Uiso   1.00
O25    O     0.19290   0.30880   0.00640   0.01267  Uiso   1.00
O26    O     0.09940   0.42600   0.06900   0.01267  Uiso   1.00
O27    O     0.46640   0.16830   0.75790   0.01267  Uiso   1.00
O28    O     0.73720   0.14820   0.69040   0.01267  Uiso   1.00
O29    O     0.88980   0.23570   0.67390   0.01267  Uiso   1.00
O30    O     0.60240   0.14370   0.58150   0.01267  Uiso   1.00
O31    O     0.81810   0.09460   0.52520   0.01267  Uiso   1.00
O32    O     0.98560   0.07400   0.72900   0.01267  Uiso   1.00
O33    O     0.99740   0.05180   0.60580   0.01267  Uiso   1.00
O34    O     0.00810   0.19120   0.49360   0.01267  Uiso   1.00
O35    O     0.09440   0.07400   0.43100   0.01267  Uiso   1.00
O36    O     0.89260   0.33170   0.74210   0.01267  Uiso   1.00
O37    O     0.57240   0.69040   0.35180   0.01267  Uiso   1.00
O38    O     0.43630   0.67390   0.26430   0.01267  Uiso   1.00
O39    O     0.81610   0.58150   0.35630   0.01267  Uiso   1.00
O40    O     0.65670   0.52520   0.40540   0.01267  Uiso   1.00
O41    O     0.28540   0.72900   0.42600   0.01267  Uiso   1.00
O42    O     0.39680   0.60580   0.44820   0.01267  Uiso   1.00
O43    O     0.49830   0.49360   0.30880   0.01267  Uiso   1.00
O44    O     0.47460   0.43100   0.42600   0.01267  Uiso   1.00
O45    O     0.36530   0.74210   0.16830   0.01267  Uiso   1.00
O46    O     0.11460   0.80960   0.14820   0.01267  Uiso   1.00
O47    O     0.87450   0.82610   0.23570   0.01267  Uiso   1.00
O48    O     0.25390   0.91850   0.14370   0.01267  Uiso   1.00
O49    O     0.08730   0.97480   0.09460   0.01267  Uiso   1.00
O50    O     0.94040   0.77100   0.07400   0.01267  Uiso   1.00
O51    O     0.95080   0.89420   0.05180   0.01267  Uiso   1.00
O52    O     0.80070   0.00640   0.19120   0.01267  Uiso   1.00
O53    O     0.83160   0.06900   0.07400   0.01267  Uiso   1.00
O54    O     0.77570   0.75790   0.33170   0.01267  Uiso   1.00
O55    O     0.92420   0.64820   0.19040   0.01267  Uiso   1.00
O56    O     0.70060   0.73570   0.17390   0.01267  Uiso   1.00
O57    O     0.17240   0.64370   0.08150   0.01267  Uiso   1.00
O58    O     0.06210   0.59460   0.02520   0.01267  Uiso   1.00
O59    O     0.71140   0.57400   0.22900   0.01267  Uiso   1.00
O60    O     0.84500   0.55180   0.10580   0.01267  Uiso   1.00
O61    O     0.80710   0.69120   0.99360   0.01267  Uiso   1.00
O62    O     0.90060   0.57400   0.93100   0.01267  Uiso   1.00
O63    O     0.53360   0.83170   0.24210   0.01267  Uiso   1.00
O64    O     0.26280   0.85180   0.30960   0.01267  Uiso   1.00
O65    O     0.11020   0.76430   0.32610   0.01267  Uiso   1.00
O66    O     0.39760   0.85630   0.41850   0.01267  Uiso   1.00
O67    O     0.18190   0.90540   0.47480   0.01267  Uiso   1.00
O68    O     0.01440   0.92600   0.27100   0.01267  Uiso   1.00
O69    O     0.00260   0.94820   0.39420   0.01267  Uiso   1.00
O70    O     0.99190   0.80880   0.50640   0.01267  Uiso   1.00
O71    O     0.90560   0.92600   0.56900   0.01267  Uiso   1.00
O72    O     0.10740   0.66830   0.25790   0.01267  Uiso   1.00
