data_image0
_cell_length_a       7.4083
_cell_length_b       10.89
_cell_length_c       13.632
_cell_angle_alpha    66.67
_cell_angle_beta     78.17
_cell_angle_gamma    71.78

_symmetry_space_group_name_H-M    "P 1"
_symmetry_int_tables_number       1

loop_
  _symmetry_equiv_pos_as_xyz
  'x, y, z'

loop_
  _atom_site_label
  _atom_site_occupancy
  _atom_site_fract_x
  _atom_site_fract_y
  _atom_site_fract_z
  _atom_site_thermal_displace_type
  _atom_site_B_iso_or_equiv
  _atom_site_type_symbol
  O1       1.0000 0.83510  0.70163  0.95828  Biso   1.000  O
  N1       1.0000 0.68910  0.47920  0.01587  Biso   1.000  N
  N2       1.0000 0.97560  0.48660  0.16161  Biso   1.000  N
  C1       1.0000 0.65930  0.72760  0.95287  Biso   1.000  C
  C2       1.0000 0.61390  0.37090  0.04385  Biso   1.000  C
  C3       1.0000 0.57640  0.60710  0.97337  Biso   1.000  C
  C4       1.0000 0.96360  0.37060  0.24480  Biso   1.000  C
  C5       1.0000 0.98660  0.59490  0.18300  Biso   1.000  C
  O2       1.0000 0.54020  0.84233  0.93736  Biso   1.000  O
  C6       1.0000 0.74670  0.22820  0.09390  Biso   1.000  C
  H1       1.0000 0.95410  0.29380  0.23130  Biso   1.000  H
  C7       1.0000 0.96430  0.35780  0.35020  Biso   1.000  C
  C8       1.0000 0.99080  0.59070  0.28510  Biso   1.000  C
  H2       1.0000 0.99180  0.67870  0.12450  Biso   1.000  H
  O3       1.0000 0.85960  0.18140  0.02686  Biso   1.000  O
  O4       1.0000 0.73600  0.17640  0.19354  Biso   1.000  O
  H3       1.0000 0.95260  0.27390  0.40700  Biso   1.000  H
  C9       1.0000 0.98210  0.46740  0.37330  Biso   1.000  C
  H4       1.0000 0.99950  0.66960  0.29590  Biso   1.000  H
  N3       1.0000 0.50090  0.85360  0.16128  Biso   1.000  N
  C10      1.0000 0.98940  0.45260  0.48400  Biso   1.000  C
  C11      1.0000 0.44090  0.73840  0.18920  Biso   1.000  C
  C12      1.0000 0.56000  0.87470  0.23870  Biso   1.000  C
  H5       1.0000 0.97780  0.36690  0.53830  Biso   1.000  H
  H6       1.0000 0.39570  0.72360  0.13550  Biso   1.000  H
  C13      1.0000 0.44160  0.64040  0.29210  Biso   1.000  C
  C14      1.0000 0.56000  0.78370  0.34420  Biso   1.000  C
  H7       1.0000 0.60350  0.95500  0.22040  Biso   1.000  H
  H8       1.0000 0.40120  0.55950  0.30750  Biso   1.000  H
  C15      1.0000 0.50260  0.66200  0.37320  Biso   1.000  C
  H9       1.0000 0.59900  0.80400  0.39710  Biso   1.000  H
  C16      1.0000 0.50720  0.56560  0.48390  Biso   1.000  C
  H10      1.0000 0.52140  0.59710  0.53700  Biso   1.000  H
  O5       1.0000 0.16490  0.29837  0.04172  Biso   1.000  O
  N4       1.0000 0.31090  0.52080  0.98413  Biso   1.000  N
  N5       1.0000 0.02440  0.51340  0.83839  Biso   1.000  N
  C17      1.0000 0.34070  0.27240  0.04713  Biso   1.000  C
  C18      1.0000 0.38610  0.62910  0.95615  Biso   1.000  C
  C19      1.0000 0.42360  0.39290  0.02663  Biso   1.000  C
  C20      1.0000 0.03640  0.62940  0.75520  Biso   1.000  C
  C21      1.0000 0.01340  0.40510  0.81700  Biso   1.000  C
  O6       1.0000 0.45980  0.15767  0.06264  Biso   1.000  O
  C22      1.0000 0.25330  0.77180  0.90610  Biso   1.000  C
  H11      1.0000 0.04590  0.70620  0.76870  Biso   1.000  H
  C23      1.0000 0.03570  0.64220  0.64980  Biso   1.000  C
  C24      1.0000 0.00920  0.40930  0.71490  Biso   1.000  C
  H12      1.0000 0.00820  0.32130  0.87550  Biso   1.000  H
  O7       1.0000 0.14040  0.81860  0.97314  Biso   1.000  O
  O8       1.0000 0.26400  0.82360  0.80646  Biso   1.000  O
  H13      1.0000 0.04740  0.72610  0.59300  Biso   1.000  H
  C25      1.0000 0.01790  0.53260  0.62670  Biso   1.000  C
  H14      1.0000 0.00050  0.33040  0.70410  Biso   1.000  H
  N6       1.0000 0.49910  0.14640  0.83872  Biso   1.000  N
  C26      1.0000 0.01060  0.54740  0.51600  Biso   1.000  C
  C27      1.0000 0.55910  0.26160  0.81080  Biso   1.000  C
  C28      1.0000 0.44000  0.12530  0.76130  Biso   1.000  C
  H15      1.0000 0.02220  0.63310  0.46170  Biso   1.000  H
  H16      1.0000 0.60430  0.27640  0.86450  Biso   1.000  H
  C29      1.0000 0.55840  0.35960  0.70790  Biso   1.000  C
  C30      1.0000 0.44000  0.21630  0.65580  Biso   1.000  C
  H17      1.0000 0.39650  0.04500  0.77960  Biso   1.000  H
  H18      1.0000 0.59880  0.44050  0.69250  Biso   1.000  H
  C31      1.0000 0.49740  0.33800  0.62680  Biso   1.000  C
  H19      1.0000 0.40100  0.19600  0.60290  Biso   1.000  H
  C32      1.0000 0.49280  0.43440  0.51610  Biso   1.000  C
  H20      1.0000 0.47860  0.40290  0.46300  Biso   1.000  H
  Zn1      1.0000 0.00000  0.50000  0.00000  Biso   1.000  Zn
  Zn2      1.0000 0.50000  0.00000  0.00000  Biso   1.000  Zn
