data_CADPII_clean
_audit_creation_date              2014-07-02
_audit_creation_method            'Materials Studio'
_symmetry_space_group_name_H-M    'P1'
_symmetry_Int_Tables_number       1
_symmetry_cell_setting            triclinic
loop_
_symmetry_equiv_pos_as_xyz
  x,y,z
_cell_length_a                    6.9280
_cell_length_b                    17.5648
_cell_length_c                    17.5648
_cell_angle_alpha                 61.7011
_cell_angle_beta                  82.4451
_cell_angle_gamma                 97.5549
loop_
_atom_site_label
_atom_site_type_symbol
_atom_site_fract_x
_atom_site_fract_y
_atom_site_fract_z
_atom_site_U_iso_or_equiv
_atom_site_adp_type
_atom_site_occupancy
Zn1    Zn    0.74487   0.00965   0.70910   0.01267  Uiso   1.00
Zn2    Zn    0.55830   0.12604   0.53554   0.01267  Uiso   1.00
Zn3    Zn    0.45397   0.70910   0.28125   0.01267  Uiso   1.00
Zn4    Zn    0.09384   0.53554   0.33842   0.01267  Uiso   1.00
Zn5    Zn    0.73522   0.28125   0.00965   0.01267  Uiso   1.00
Zn6    Zn    0.43226   0.33842   0.12604   0.01267  Uiso   1.00
Zn7    Zn    0.95397   0.71875   0.29090   0.01267  Uiso   1.00
Zn8    Zn    0.59384   0.66158   0.46446   0.01267  Uiso   1.00
Zn9    Zn    0.23522   0.99035   0.71875   0.01267  Uiso   1.00
Zn10   Zn    0.93226   0.87396   0.66158   0.01267  Uiso   1.00
Zn11   Zn    0.24487   0.29090   0.99035   0.01267  Uiso   1.00
Zn12   Zn    0.05830   0.46446   0.87396   0.01267  Uiso   1.00
H1     H     0.50450   0.95750   0.64330   0.01267  Uiso   1.00
H2     H     0.58840   0.29060   0.40910   0.01267  Uiso   1.00
H3     H     0.58300   0.79450   0.99510   0.01267  Uiso   1.00
H4     H     0.46880   0.67290   0.85520   0.01267  Uiso   1.00
H5     H     0.32720   0.53450   0.12240   0.01267  Uiso   1.00
H6     H     0.14780   0.64330   0.39920   0.01267  Uiso   1.00
H7     H     0.99750   0.40910   0.30030   0.01267  Uiso   1.00
H8     H     0.57810   0.99510   0.21040   0.01267  Uiso   1.00
H9     H     0.32400   0.85520   0.47190   0.01267  Uiso   1.00
H10    H     0.44960   0.12240   0.34310   0.01267  Uiso   1.00
H11    H     0.54700   0.39920   0.95750   0.01267  Uiso   1.00
H12    H     0.29780   0.30030   0.29060   0.01267  Uiso   1.00
H13    H     0.78850   0.21040   0.79450   0.01267  Uiso   1.00
H14    H     0.79590   0.47190   0.67290   0.01267  Uiso   1.00
H15    H     0.79270   0.34310   0.53450   0.01267  Uiso   1.00
H16    H     0.64780   0.60080   0.35670   0.01267  Uiso   1.00
H17    H     0.49750   0.69970   0.59090   0.01267  Uiso   1.00
H18    H     0.07810   0.78960   0.00490   0.01267  Uiso   1.00
H19    H     0.82400   0.52810   0.14480   0.01267  Uiso   1.00
H20    H     0.94960   0.65690   0.87760   0.01267  Uiso   1.00
H21    H     0.04700   0.04250   0.60080   0.01267  Uiso   1.00
H22    H     0.79780   0.70940   0.69970   0.01267  Uiso   1.00
H23    H     0.28850   0.20550   0.78960   0.01267  Uiso   1.00
H24    H     0.29590   0.32710   0.52810   0.01267  Uiso   1.00
H25    H     0.29270   0.46550   0.65690   0.01267  Uiso   1.00
H26    H     0.00450   0.35670   0.04250   0.01267  Uiso   1.00
H27    H     0.08840   0.59090   0.70940   0.01267  Uiso   1.00
H28    H     0.08300   0.00490   0.20550   0.01267  Uiso   1.00
H29    H     0.96880   0.14480   0.32710   0.01267  Uiso   1.00
H30    H     0.82720   0.87760   0.46550   0.01267  Uiso   1.00
C1     C     0.45304   0.66408   0.07156   0.01267  Uiso   1.00
C2     C     0.53992   0.74669   0.91243   0.01267  Uiso   1.00
C3     C     0.38649   0.59057   0.98830   0.01267  Uiso   1.00
C4     C     0.53357   0.74362   0.99351   0.01267  Uiso   1.00
C5     C     0.46559   0.67041   0.90944   0.01267  Uiso   1.00
C6     C     0.62881   0.83142   0.82649   0.01267  Uiso   1.00
C7     C     0.38016   0.58759   0.06971   0.01267  Uiso   1.00
C8     C     0.29836   0.50947   0.98619   0.01267  Uiso   1.00
C9     C     0.43673   0.65979   0.15970   0.01267  Uiso   1.00
C10    C     0.52460   0.07156   0.26436   0.01267  Uiso   1.00
C11    C     0.45235   0.91243   0.34088   0.01267  Uiso   1.00
C12    C     0.37479   0.98830   0.42113   0.01267  Uiso   1.00
C13    C     0.52708   0.99351   0.26287   0.01267  Uiso   1.00
C14    C     0.37503   0.90944   0.42015   0.01267  Uiso   1.00
C15    C     0.45530   0.82649   0.34209   0.01267  Uiso   1.00
C16    C     0.44987   0.06971   0.34270   0.01267  Uiso   1.00
C17    C     0.28455   0.98619   0.50434   0.01267  Uiso   1.00
C18    C     0.59643   0.15970   0.18051   0.01267  Uiso   1.00
C19    C     0.78896   0.26436   0.66408   0.01267  Uiso   1.00
C20    C     0.79323   0.34088   0.74669   0.01267  Uiso   1.00
C21    C     0.79592   0.42113   0.59057   0.01267  Uiso   1.00
C22    C     0.78995   0.26287   0.74362   0.01267  Uiso   1.00
C23    C     0.79518   0.42015   0.67041   0.01267  Uiso   1.00
C24    C     0.79739   0.34209   0.83142   0.01267  Uiso   1.00
C25    C     0.79257   0.34270   0.58759   0.01267  Uiso   1.00
C26    C     0.78889   0.50434   0.50947   0.01267  Uiso   1.00
C27    C     0.77694   0.18051   0.65979   0.01267  Uiso   1.00
C28    C     0.02460   0.73564   0.92844   0.01267  Uiso   1.00
C29    C     0.95235   0.65912   0.08757   0.01267  Uiso   1.00
C30    C     0.87479   0.57887   0.01170   0.01267  Uiso   1.00
C31    C     0.02708   0.73713   0.00649   0.01267  Uiso   1.00
C32    C     0.87503   0.57985   0.09056   0.01267  Uiso   1.00
C33    C     0.95530   0.65791   0.17351   0.01267  Uiso   1.00
C34    C     0.94987   0.65730   0.93029   0.01267  Uiso   1.00
C35    C     0.78455   0.49566   0.01381   0.01267  Uiso   1.00
C36    C     0.09643   0.81949   0.84030   0.01267  Uiso   1.00
C37    C     0.28896   0.33592   0.73564   0.01267  Uiso   1.00
C38    C     0.29323   0.25331   0.65912   0.01267  Uiso   1.00
C39    C     0.29592   0.40943   0.57887   0.01267  Uiso   1.00
C40    C     0.28995   0.25638   0.73713   0.01267  Uiso   1.00
C41    C     0.29518   0.32959   0.57985   0.01267  Uiso   1.00
C42    C     0.29739   0.16858   0.65791   0.01267  Uiso   1.00
C43    C     0.29257   0.41241   0.65730   0.01267  Uiso   1.00
C44    C     0.28889   0.49053   0.49566   0.01267  Uiso   1.00
C45    C     0.27694   0.34021   0.81949   0.01267  Uiso   1.00
C46    C     0.95304   0.92844   0.33592   0.01267  Uiso   1.00
C47    C     0.03992   0.08757   0.25331   0.01267  Uiso   1.00
C48    C     0.88649   0.01170   0.40943   0.01267  Uiso   1.00
C49    C     0.03357   0.00649   0.25638   0.01267  Uiso   1.00
C50    C     0.96559   0.09056   0.32959   0.01267  Uiso   1.00
C51    C     0.12881   0.17351   0.16858   0.01267  Uiso   1.00
C52    C     0.88016   0.93029   0.41241   0.01267  Uiso   1.00
C53    C     0.79836   0.01381   0.49053   0.01267  Uiso   1.00
C54    C     0.93673   0.84030   0.34021   0.01267  Uiso   1.00
O1     O     0.50707   0.00494   0.65783   0.01267  Uiso   1.00
O2     O     0.66981   0.90215   0.82972   0.01267  Uiso   1.00
O3     O     0.66069   0.82754   0.75637   0.01267  Uiso   1.00
O4     O     0.50667   0.73012   0.15971   0.01267  Uiso   1.00
O5     O     0.35667   0.58779   0.22888   0.01267  Uiso   1.00
O6     O     0.61120   0.24417   0.41307   0.01267  Uiso   1.00
O7     O     0.24239   0.43626   0.05659   0.01267  Uiso   1.00
O8     O     0.28322   0.52198   0.90882   0.01267  Uiso   1.00
O9     O     0.16490   0.65783   0.33723   0.01267  Uiso   1.00
O10    O     0.49953   0.82972   0.26813   0.01267  Uiso   1.00
O11    O     0.41706   0.75637   0.41609   0.01267  Uiso   1.00
O12    O     0.66638   0.15971   0.11017   0.01267  Uiso   1.00
O13    O     0.58555   0.22888   0.18333   0.01267  Uiso   1.00
O14    O     0.02427   0.41307   0.34276   0.01267  Uiso   1.00
O15    O     0.29898   0.05659   0.50715   0.01267  Uiso   1.00
O16    O     0.19204   0.90882   0.56920   0.01267  Uiso   1.00
O17    O     0.50213   0.33723   0.00494   0.01267  Uiso   1.00
O18    O     0.76766   0.26813   0.90215   0.01267  Uiso   1.00
O19    O     0.83315   0.41609   0.82754   0.01267  Uiso   1.00
O20    O     0.77655   0.11017   0.73012   0.01267  Uiso   1.00
O21    O     0.76888   0.18333   0.58779   0.01267  Uiso   1.00
O22    O     0.36703   0.34276   0.24417   0.01267  Uiso   1.00
O23    O     0.80613   0.50715   0.43626   0.01267  Uiso   1.00
O24    O     0.76124   0.56920   0.52198   0.01267  Uiso   1.00
O25    O     0.66490   0.66277   0.34217   0.01267  Uiso   1.00
O26    O     0.99953   0.73187   0.17028   0.01267  Uiso   1.00
O27    O     0.91706   0.58391   0.24363   0.01267  Uiso   1.00
O28    O     0.16638   0.88983   0.84029   0.01267  Uiso   1.00
O29    O     0.08555   0.81667   0.77112   0.01267  Uiso   1.00
O30    O     0.52427   0.65724   0.58693   0.01267  Uiso   1.00
O31    O     0.79898   0.49285   0.94341   0.01267  Uiso   1.00
O32    O     0.69204   0.43080   0.09118   0.01267  Uiso   1.00
O33    O     0.00213   0.99506   0.66277   0.01267  Uiso   1.00
O34    O     0.26766   0.09785   0.73187   0.01267  Uiso   1.00
O35    O     0.33315   0.17246   0.58391   0.01267  Uiso   1.00
O36    O     0.27655   0.26988   0.88983   0.01267  Uiso   1.00
O37    O     0.26888   0.41221   0.81667   0.01267  Uiso   1.00
O38    O     0.86703   0.75583   0.65724   0.01267  Uiso   1.00
O39    O     0.30613   0.56374   0.49285   0.01267  Uiso   1.00
O40    O     0.26124   0.47802   0.43080   0.01267  Uiso   1.00
O41    O     0.00707   0.34217   0.99506   0.01267  Uiso   1.00
O42    O     0.16981   0.17028   0.09785   0.01267  Uiso   1.00
O43    O     0.16069   0.24363   0.17246   0.01267  Uiso   1.00
O44    O     0.00667   0.84029   0.26988   0.01267  Uiso   1.00
O45    O     0.85667   0.77112   0.41221   0.01267  Uiso   1.00
O46    O     0.11120   0.58693   0.75583   0.01267  Uiso   1.00
O47    O     0.74239   0.94341   0.56374   0.01267  Uiso   1.00
O48    O     0.78322   0.09118   0.47802   0.01267  Uiso   1.00
