data_CADQAB_clean
_audit_creation_date              2014-07-02
_audit_creation_method            'Materials Studio'
_symmetry_space_group_name_H-M    'P1'
_symmetry_Int_Tables_number       1
_symmetry_cell_setting            triclinic
loop_
_symmetry_equiv_pos_as_xyz
  x,y,z
_cell_length_a                    10.4060
_cell_length_b                    11.0620
_cell_length_c                    12.4070
_cell_angle_alpha                 103.5800
_cell_angle_beta                  106.3400
_cell_angle_gamma                 98.7300
loop_
_atom_site_label
_atom_site_type_symbol
_atom_site_fract_x
_atom_site_fract_y
_atom_site_fract_z
_atom_site_U_iso_or_equiv
_atom_site_adp_type
_atom_site_occupancy
Pr1    Pr    0.09415   0.54426   0.68266   0.01267  Uiso   1.00
Pr2    Pr    0.90585   0.45574   0.31734   0.01267  Uiso   1.00
H1     H     0.27410   0.39430   0.24960   0.01267  Uiso   1.00
H2     H     0.07560   0.88180   0.71070   0.01267  Uiso   1.00
H3     H     0.00090   0.14760   0.66630   0.01267  Uiso   1.00
H4     H     0.56550   0.82630   0.89930   0.01267  Uiso   1.00
H5     H     0.38930   0.55760   0.63470   0.01267  Uiso   1.00
H6     H     0.17660   0.93960   0.94680   0.01267  Uiso   1.00
H7     H     0.72590   0.60570   0.75040   0.01267  Uiso   1.00
H8     H     0.92440   0.11820   0.28930   0.01267  Uiso   1.00
H9     H     0.99910   0.85240   0.33370   0.01267  Uiso   1.00
H10    H     0.43450   0.17370   0.10070   0.01267  Uiso   1.00
H11    H     0.61070   0.44240   0.36530   0.01267  Uiso   1.00
H12    H     0.82340   0.06040   0.05320   0.01267  Uiso   1.00
C1     C     0.00080   0.08810   0.59940   0.01267  Uiso   1.00
C2     C     0.29420   0.77120   0.85270   0.01267  Uiso   1.00
C3     C     0.35770   0.48150   0.46200   0.01267  Uiso   1.00
C4     C     0.05570   0.75340   0.50870   0.01267  Uiso   1.00
C5     C     0.53980   0.89560   0.93940   0.01267  Uiso   1.00
C6     C     0.20490   0.46030   0.42570   0.01267  Uiso   1.00
C7     C     0.40030   0.89030   0.92870   0.01267  Uiso   1.00
C8     C     0.43400   0.53410   0.58070   0.01267  Uiso   1.00
C9     C     0.02980   0.97230   0.60750   0.01267  Uiso   1.00
C10    C     0.36180   0.99400   0.98910   0.01267  Uiso   1.00
C11    C     0.42470   0.44820   0.38090   0.01267  Uiso   1.00
C12    C     0.02880   0.88190   0.50660   0.01267  Uiso   1.00
C13    C     0.99920   0.91190   0.40060   0.01267  Uiso   1.00
C14    C     0.70580   0.22880   0.14730   0.01267  Uiso   1.00
C15    C     0.64230   0.51850   0.53800   0.01267  Uiso   1.00
C16    C     0.94430   0.24660   0.49130   0.01267  Uiso   1.00
C17    C     0.46020   0.10440   0.06060   0.01267  Uiso   1.00
C18    C     0.79510   0.53970   0.57430   0.01267  Uiso   1.00
C19    C     0.59970   0.10970   0.07130   0.01267  Uiso   1.00
C20    C     0.56600   0.46590   0.41930   0.01267  Uiso   1.00
C21    C     0.97020   0.02770   0.39250   0.01267  Uiso   1.00
C22    C     0.63820   0.00600   0.01090   0.01267  Uiso   1.00
C23    C     0.57530   0.55180   0.61910   0.01267  Uiso   1.00
C24    C     0.97120   0.11810   0.49340   0.01267  Uiso   1.00
O1     O     0.17070   0.75910   0.85050   0.01267  Uiso   1.00
O2     O     0.35660   0.39750   0.26300   0.01267  Uiso   1.00
O3     O     0.05780   0.95210   0.71510   0.01267  Uiso   1.00
O4     O     0.13640   0.42260   0.31610   0.01267  Uiso   1.00
O5     O     0.14480   0.48060   0.50070   0.01267  Uiso   1.00
O6     O     0.09300   0.73310   0.60790   0.01267  Uiso   1.00
O7     O     0.33070   0.68220   0.79140   0.01267  Uiso   1.00
O8     O     0.03990   0.67320   0.41170   0.01267  Uiso   1.00
O9     O     0.23250   0.00740   0.98540   0.01267  Uiso   1.00
O10    O     0.82930   0.24090   0.14950   0.01267  Uiso   1.00
O11    O     0.64340   0.60250   0.73700   0.01267  Uiso   1.00
O12    O     0.94220   0.04790   0.28490   0.01267  Uiso   1.00
O13    O     0.86360   0.57740   0.68390   0.01267  Uiso   1.00
O14    O     0.85520   0.51940   0.49930   0.01267  Uiso   1.00
O15    O     0.90700   0.26690   0.39210   0.01267  Uiso   1.00
O16    O     0.66930   0.31780   0.20860   0.01267  Uiso   1.00
O17    O     0.96010   0.32680   0.58830   0.01267  Uiso   1.00
O18    O     0.76750   0.99260   0.01460   0.01267  Uiso   1.00
