data_image0
_cell_length_a       19.961
_cell_length_b       6.081
_cell_length_c       21.693
_cell_angle_alpha    90
_cell_angle_beta     92.694
_cell_angle_gamma    90

_symmetry_space_group_name_H-M    "P 1"
_symmetry_int_tables_number       1

loop_
  _symmetry_equiv_pos_as_xyz
  'x, y, z'

loop_
  _atom_site_label
  _atom_site_occupancy
  _atom_site_fract_x
  _atom_site_fract_y
  _atom_site_fract_z
  _atom_site_thermal_displace_type
  _atom_site_B_iso_or_equiv
  _atom_site_type_symbol
  C1       1.0000 0.18490  0.94270  0.38450  Biso   1.000  C
  H1       1.0000 0.15680  0.06370  0.38790  Biso   1.000  H
  C2       1.0000 0.17430  0.80340  0.33470  Biso   1.000  C
  H2       1.0000 0.14040  0.83300  0.30500  Biso   1.000  H
  C3       1.0000 0.21420  0.62030  0.32949  Biso   1.000  C
  C4       1.0000 0.26480  0.58690  0.37540  Biso   1.000  C
  H3       1.0000 0.29300  0.46560  0.37370  Biso   1.000  H
  C5       1.0000 0.27230  0.73480  0.42285  Biso   1.000  C
  H4       1.0000 0.30600  0.71080  0.45320  Biso   1.000  H
  C6       1.0000 0.20660  0.46480  0.27690  Biso   1.000  C
  C7       1.0000 0.15040  0.48630  0.23030  Biso   1.000  C
  H5       1.0000 0.12150  0.60420  0.24180  Biso   1.000  H
  H6       1.0000 0.12540  0.35150  0.22820  Biso   1.000  H
  H7       1.0000 0.16780  0.51730  0.19070  Biso   1.000  H
  C8       1.0000 0.12195  0.24840  0.51520  Biso   1.000  C
  C9       1.0000 0.05898  0.37750  0.50785  Biso   1.000  C
  C10      1.0000 0.05761  0.56930  0.47340  Biso   1.000  C
  H8       1.0000 0.09650  0.61690  0.45560  Biso   1.000  H
  C11      1.0000 0.99930  0.69180  0.46510  Biso   1.000  C
  N1       1.0000 0.23323  0.91200  0.42750  Biso   1.000  N
  N2       1.0000 0.25370  0.32290  0.27510  Biso   1.000  N
  O1       1.0000 0.17342  0.31950  0.49049  Biso   1.000  O
  O2       1.0000 0.12201  0.07430  0.54450  Biso   1.000  O
  O3       1.0000 0.00070  0.87740  0.43010  Biso   1.000  O
  H9       1.0000 0.96350  0.93490  0.42860  Biso   1.000  H
  C12      1.0000 0.68490  0.44270  0.88450  Biso   1.000  C
  H10      1.0000 0.65680  0.56370  0.88790  Biso   1.000  H
  C13      1.0000 0.67430  0.30340  0.83470  Biso   1.000  C
  H11      1.0000 0.64040  0.33300  0.80500  Biso   1.000  H
  C14      1.0000 0.71420  0.12030  0.82949  Biso   1.000  C
  C15      1.0000 0.76480  0.08690  0.87540  Biso   1.000  C
  H12      1.0000 0.79300  0.96560  0.87370  Biso   1.000  H
  C16      1.0000 0.77230  0.23480  0.92285  Biso   1.000  C
  H13      1.0000 0.80600  0.21080  0.95320  Biso   1.000  H
  C17      1.0000 0.70660  0.96480  0.77690  Biso   1.000  C
  C18      1.0000 0.65040  0.98630  0.73030  Biso   1.000  C
  H14      1.0000 0.62150  0.10420  0.74180  Biso   1.000  H
  H15      1.0000 0.62540  0.85150  0.72820  Biso   1.000  H
  H16      1.0000 0.66780  0.01730  0.69070  Biso   1.000  H
  C19      1.0000 0.62195  0.74840  0.01520  Biso   1.000  C
  C20      1.0000 0.55898  0.87750  0.00785  Biso   1.000  C
  C21      1.0000 0.55761  0.06930  0.97340  Biso   1.000  C
  H17      1.0000 0.59650  0.11690  0.95560  Biso   1.000  H
  C22      1.0000 0.49930  0.19180  0.96510  Biso   1.000  C
  N3       1.0000 0.73323  0.41200  0.92750  Biso   1.000  N
  N4       1.0000 0.75370  0.82290  0.77510  Biso   1.000  N
  O4       1.0000 0.67342  0.81950  0.99049  Biso   1.000  O
  O5       1.0000 0.62201  0.57430  0.04450  Biso   1.000  O
  O6       1.0000 0.50070  0.37740  0.93010  Biso   1.000  O
  H18      1.0000 0.46350  0.43490  0.92860  Biso   1.000  H
  C23      1.0000 0.31510  0.94270  0.61550  Biso   1.000  C
  H19      1.0000 0.34320  0.06370  0.61210  Biso   1.000  H
  C24      1.0000 0.32570  0.80340  0.66530  Biso   1.000  C
  H20      1.0000 0.35960  0.83300  0.69500  Biso   1.000  H
  C25      1.0000 0.28580  0.62030  0.67051  Biso   1.000  C
  C26      1.0000 0.23520  0.58690  0.62460  Biso   1.000  C
  H21      1.0000 0.20700  0.46560  0.62630  Biso   1.000  H
  C27      1.0000 0.22770  0.73480  0.57715  Biso   1.000  C
  H22      1.0000 0.19400  0.71080  0.54680  Biso   1.000  H
  C28      1.0000 0.29340  0.46480  0.72310  Biso   1.000  C
  C29      1.0000 0.34960  0.48630  0.76970  Biso   1.000  C
  H23      1.0000 0.37850  0.60420  0.75820  Biso   1.000  H
  H24      1.0000 0.37460  0.35150  0.77180  Biso   1.000  H
  H25      1.0000 0.33220  0.51730  0.80930  Biso   1.000  H
  C30      1.0000 0.37805  0.24840  0.48480  Biso   1.000  C
  C31      1.0000 0.44102  0.37750  0.49215  Biso   1.000  C
  C32      1.0000 0.44239  0.56930  0.52660  Biso   1.000  C
  H26      1.0000 0.40350  0.61690  0.54440  Biso   1.000  H
  C33      1.0000 0.50070  0.69180  0.53490  Biso   1.000  C
  N5       1.0000 0.26677  0.91200  0.57250  Biso   1.000  N
  N6       1.0000 0.24630  0.32290  0.72490  Biso   1.000  N
  O7       1.0000 0.32658  0.31950  0.50951  Biso   1.000  O
  O8       1.0000 0.37799  0.07430  0.45550  Biso   1.000  O
  O9       1.0000 0.49930  0.87740  0.56990  Biso   1.000  O
  H27      1.0000 0.53650  0.93490  0.57140  Biso   1.000  H
  C34      1.0000 0.81510  0.44270  0.11550  Biso   1.000  C
  H28      1.0000 0.84320  0.56370  0.11210  Biso   1.000  H
  C35      1.0000 0.82570  0.30340  0.16530  Biso   1.000  C
  H29      1.0000 0.85960  0.33300  0.19500  Biso   1.000  H
  C36      1.0000 0.78580  0.12030  0.17051  Biso   1.000  C
  C37      1.0000 0.73520  0.08690  0.12460  Biso   1.000  C
  H30      1.0000 0.70700  0.96560  0.12630  Biso   1.000  H
  C38      1.0000 0.72770  0.23480  0.07715  Biso   1.000  C
  H31      1.0000 0.69400  0.21080  0.04680  Biso   1.000  H
  C39      1.0000 0.79340  0.96480  0.22310  Biso   1.000  C
  C40      1.0000 0.84960  0.98630  0.26970  Biso   1.000  C
  H32      1.0000 0.87850  0.10420  0.25820  Biso   1.000  H
  H33      1.0000 0.87460  0.85150  0.27180  Biso   1.000  H
  H34      1.0000 0.83220  0.01730  0.30930  Biso   1.000  H
  C41      1.0000 0.87805  0.74840  0.98480  Biso   1.000  C
  C42      1.0000 0.94102  0.87750  0.99215  Biso   1.000  C
  C43      1.0000 0.94239  0.06930  0.02660  Biso   1.000  C
  H35      1.0000 0.90350  0.11690  0.04440  Biso   1.000  H
  C44      1.0000 0.00070  0.19180  0.03490  Biso   1.000  C
  N7       1.0000 0.76677  0.41200  0.07250  Biso   1.000  N
  N8       1.0000 0.74630  0.82290  0.22490  Biso   1.000  N
  O10      1.0000 0.82658  0.81950  0.00951  Biso   1.000  O
  O11      1.0000 0.87799  0.57430  0.95550  Biso   1.000  O
  O12      1.0000 0.99930  0.37740  0.06990  Biso   1.000  O
  H36      1.0000 0.03650  0.43490  0.07140  Biso   1.000  H
  C45      1.0000 0.81510  0.05730  0.61550  Biso   1.000  C
  H37      1.0000 0.84320  0.93630  0.61210  Biso   1.000  H
  C46      1.0000 0.82570  0.19660  0.66530  Biso   1.000  C
  H38      1.0000 0.85960  0.16700  0.69500  Biso   1.000  H
  C47      1.0000 0.78580  0.37970  0.67051  Biso   1.000  C
  C48      1.0000 0.73520  0.41310  0.62460  Biso   1.000  C
  H39      1.0000 0.70700  0.53440  0.62630  Biso   1.000  H
  C49      1.0000 0.72770  0.26520  0.57715  Biso   1.000  C
  H40      1.0000 0.69400  0.28920  0.54680  Biso   1.000  H
  C50      1.0000 0.79340  0.53520  0.72310  Biso   1.000  C
  C51      1.0000 0.84960  0.51370  0.76970  Biso   1.000  C
  H41      1.0000 0.87850  0.39580  0.75820  Biso   1.000  H
  H42      1.0000 0.87460  0.64850  0.77180  Biso   1.000  H
  H43      1.0000 0.83220  0.48270  0.80930  Biso   1.000  H
  C52      1.0000 0.87805  0.75160  0.48480  Biso   1.000  C
  C53      1.0000 0.94102  0.62250  0.49215  Biso   1.000  C
  C54      1.0000 0.94239  0.43070  0.52660  Biso   1.000  C
  H44      1.0000 0.90350  0.38310  0.54440  Biso   1.000  H
  C55      1.0000 0.00070  0.30820  0.53490  Biso   1.000  C
  N9       1.0000 0.76677  0.08800  0.57250  Biso   1.000  N
  N10      1.0000 0.74630  0.67710  0.72490  Biso   1.000  N
  O13      1.0000 0.82658  0.68050  0.50951  Biso   1.000  O
  O14      1.0000 0.87799  0.92570  0.45550  Biso   1.000  O
  O15      1.0000 0.99930  0.12260  0.56990  Biso   1.000  O
  H45      1.0000 0.03650  0.06510  0.57140  Biso   1.000  H
  C56      1.0000 0.31510  0.55730  0.11550  Biso   1.000  C
  H46      1.0000 0.34320  0.43630  0.11210  Biso   1.000  H
  C57      1.0000 0.32570  0.69660  0.16530  Biso   1.000  C
  H47      1.0000 0.35960  0.66700  0.19500  Biso   1.000  H
  C58      1.0000 0.28580  0.87970  0.17051  Biso   1.000  C
  C59      1.0000 0.23520  0.91310  0.12460  Biso   1.000  C
  H48      1.0000 0.20700  0.03440  0.12630  Biso   1.000  H
  C60      1.0000 0.22770  0.76520  0.07715  Biso   1.000  C
  H49      1.0000 0.19400  0.78920  0.04680  Biso   1.000  H
  C61      1.0000 0.29340  0.03520  0.22310  Biso   1.000  C
  C62      1.0000 0.34960  0.01370  0.26970  Biso   1.000  C
  H50      1.0000 0.37850  0.89580  0.25820  Biso   1.000  H
  H51      1.0000 0.37460  0.14850  0.27180  Biso   1.000  H
  H52      1.0000 0.33220  0.98270  0.30930  Biso   1.000  H
  C63      1.0000 0.37805  0.25160  0.98480  Biso   1.000  C
  C64      1.0000 0.44102  0.12250  0.99215  Biso   1.000  C
  C65      1.0000 0.44239  0.93070  0.02660  Biso   1.000  C
  H53      1.0000 0.40350  0.88310  0.04440  Biso   1.000  H
  C66      1.0000 0.50070  0.80820  0.03490  Biso   1.000  C
  N11      1.0000 0.26677  0.58800  0.07250  Biso   1.000  N
  N12      1.0000 0.24630  0.17710  0.22490  Biso   1.000  N
  O16      1.0000 0.32658  0.18050  0.00951  Biso   1.000  O
  O17      1.0000 0.37799  0.42570  0.95550  Biso   1.000  O
  O18      1.0000 0.49930  0.62260  0.06990  Biso   1.000  O
  H54      1.0000 0.53650  0.56510  0.07140  Biso   1.000  H
  C67      1.0000 0.68490  0.05730  0.38450  Biso   1.000  C
  H55      1.0000 0.65680  0.93630  0.38790  Biso   1.000  H
  C68      1.0000 0.67430  0.19660  0.33470  Biso   1.000  C
  H56      1.0000 0.64040  0.16700  0.30500  Biso   1.000  H
  C69      1.0000 0.71420  0.37970  0.32949  Biso   1.000  C
  C70      1.0000 0.76480  0.41310  0.37540  Biso   1.000  C
  H57      1.0000 0.79300  0.53440  0.37370  Biso   1.000  H
  C71      1.0000 0.77230  0.26520  0.42285  Biso   1.000  C
  H58      1.0000 0.80600  0.28920  0.45320  Biso   1.000  H
  C72      1.0000 0.70660  0.53520  0.27690  Biso   1.000  C
  C73      1.0000 0.65040  0.51370  0.23030  Biso   1.000  C
  H59      1.0000 0.62150  0.39580  0.24180  Biso   1.000  H
  H60      1.0000 0.62540  0.64850  0.22820  Biso   1.000  H
  H61      1.0000 0.66780  0.48270  0.19070  Biso   1.000  H
  C74      1.0000 0.62195  0.75160  0.51520  Biso   1.000  C
  C75      1.0000 0.55898  0.62250  0.50785  Biso   1.000  C
  C76      1.0000 0.55761  0.43070  0.47340  Biso   1.000  C
  H62      1.0000 0.59650  0.38310  0.45560  Biso   1.000  H
  C77      1.0000 0.49930  0.30820  0.46510  Biso   1.000  C
  N13      1.0000 0.73323  0.08800  0.42750  Biso   1.000  N
  N14      1.0000 0.75370  0.67710  0.27510  Biso   1.000  N
  O19      1.0000 0.67342  0.68050  0.49049  Biso   1.000  O
  O20      1.0000 0.62201  0.92570  0.54450  Biso   1.000  O
  O21      1.0000 0.50070  0.12260  0.43010  Biso   1.000  O
  H63      1.0000 0.46350  0.06510  0.42860  Biso   1.000  H
  C78      1.0000 0.18490  0.55730  0.88450  Biso   1.000  C
  H64      1.0000 0.15680  0.43630  0.88790  Biso   1.000  H
  C79      1.0000 0.17430  0.69660  0.83470  Biso   1.000  C
  H65      1.0000 0.14040  0.66700  0.80500  Biso   1.000  H
  C80      1.0000 0.21420  0.87970  0.82949  Biso   1.000  C
  C81      1.0000 0.26480  0.91310  0.87540  Biso   1.000  C
  H66      1.0000 0.29300  0.03440  0.87370  Biso   1.000  H
  C82      1.0000 0.27230  0.76520  0.92285  Biso   1.000  C
  H67      1.0000 0.30600  0.78920  0.95320  Biso   1.000  H
  C83      1.0000 0.20660  0.03520  0.77690  Biso   1.000  C
  C84      1.0000 0.15040  0.01370  0.73030  Biso   1.000  C
  H68      1.0000 0.12150  0.89580  0.74180  Biso   1.000  H
  H69      1.0000 0.12540  0.14850  0.72820  Biso   1.000  H
  H70      1.0000 0.16780  0.98270  0.69070  Biso   1.000  H
  C85      1.0000 0.12195  0.25160  0.01520  Biso   1.000  C
  C86      1.0000 0.05898  0.12250  0.00785  Biso   1.000  C
  C87      1.0000 0.05761  0.93070  0.97340  Biso   1.000  C
  H71      1.0000 0.09650  0.88310  0.95560  Biso   1.000  H
  C88      1.0000 0.99930  0.80820  0.96510  Biso   1.000  C
  N15      1.0000 0.23323  0.58800  0.92750  Biso   1.000  N
  N16      1.0000 0.25370  0.17710  0.77510  Biso   1.000  N
  O22      1.0000 0.17342  0.18050  0.99049  Biso   1.000  O
  O23      1.0000 0.12201  0.42570  0.04450  Biso   1.000  O
  O24      1.0000 0.00070  0.62260  0.93010  Biso   1.000  O
  H72      1.0000 0.96350  0.56510  0.92860  Biso   1.000  H
  Zn1      1.0000 0.25000  0.12138  0.50000  Biso   1.000  Zn
  Zn2      1.0000 0.75000  0.62138  0.00000  Biso   1.000  Zn
  Zn3      1.0000 0.75000  0.87862  0.50000  Biso   1.000  Zn
  Zn4      1.0000 0.25000  0.37862  0.00000  Biso   1.000  Zn
