data_image0
_cell_length_a       17.35
_cell_length_b       17.35
_cell_length_c       17.35
_cell_angle_alpha    90
_cell_angle_beta     90
_cell_angle_gamma    90

_symmetry_space_group_name_H-M    "P 1"
_symmetry_int_tables_number       1

loop_
  _symmetry_equiv_pos_as_xyz
  'x, y, z'

loop_
  _atom_site_label
  _atom_site_occupancy
  _atom_site_fract_x
  _atom_site_fract_y
  _atom_site_fract_z
  _atom_site_thermal_displace_type
  _atom_site_B_iso_or_equiv
  _atom_site_type_symbol
  C1       1.0000 0.63200  0.10790  0.77980  Biso   1.000  C
  C2       1.0000 0.67960  0.04350  0.77920  Biso   1.000  C
  H1       1.0000 0.71460  0.03640  0.73920  Biso   1.000  H
  C3       1.0000 0.67490  0.98970  0.83830  Biso   1.000  C
  H2       1.0000 0.70680  0.94660  0.83800  Biso   1.000  H
  C4       1.0000 0.62260  0.00020  0.89810  Biso   1.000  C
  H3       1.0000 0.61940  0.96420  0.93760  Biso   1.000  H
  C5       1.0000 0.57490  0.06460  0.89860  Biso   1.000  C
  H4       1.0000 0.53990  0.07170  0.93860  Biso   1.000  H
  C6       1.0000 0.57960  0.11850  0.83950  Biso   1.000  C
  H5       1.0000 0.54770  0.16150  0.83980  Biso   1.000  H
  S1       1.0000 0.63529  0.17992  0.70924  Biso   1.000  S
  H6       1.0000 0.67170  0.09040  0.61620  Biso   1.000  H
  C7       1.0000 0.86800  0.89210  0.27980  Biso   1.000  C
  C8       1.0000 0.82040  0.95650  0.27920  Biso   1.000  C
  H7       1.0000 0.78540  0.96360  0.23920  Biso   1.000  H
  C9       1.0000 0.82510  0.01030  0.33830  Biso   1.000  C
  H8       1.0000 0.79320  0.05340  0.33800  Biso   1.000  H
  C10      1.0000 0.87740  0.99980  0.39810  Biso   1.000  C
  H9       1.0000 0.88060  0.03580  0.43760  Biso   1.000  H
  C11      1.0000 0.92510  0.93540  0.39860  Biso   1.000  C
  H10      1.0000 0.96010  0.92830  0.43860  Biso   1.000  H
  C12      1.0000 0.92040  0.88150  0.33950  Biso   1.000  C
  H11      1.0000 0.95230  0.83850  0.33980  Biso   1.000  H
  S2       1.0000 0.86471  0.82008  0.20924  Biso   1.000  S
  H12      1.0000 0.82830  0.90960  0.11620  Biso   1.000  H
  C13      1.0000 0.36800  0.60790  0.72020  Biso   1.000  C
  C14      1.0000 0.32040  0.54350  0.72080  Biso   1.000  C
  H13      1.0000 0.28540  0.53640  0.76080  Biso   1.000  H
  C15      1.0000 0.32510  0.48970  0.66170  Biso   1.000  C
  H14      1.0000 0.29320  0.44660  0.66200  Biso   1.000  H
  C16      1.0000 0.37740  0.50020  0.60190  Biso   1.000  C
  H15      1.0000 0.38060  0.46420  0.56240  Biso   1.000  H
  C17      1.0000 0.42510  0.56460  0.60140  Biso   1.000  C
  H16      1.0000 0.46010  0.57170  0.56140  Biso   1.000  H
  C18      1.0000 0.42040  0.61850  0.66050  Biso   1.000  C
  H17      1.0000 0.45230  0.66150  0.66020  Biso   1.000  H
  S3       1.0000 0.36471  0.67992  0.79076  Biso   1.000  S
  H18      1.0000 0.32830  0.59040  0.88380  Biso   1.000  H
  C19      1.0000 0.13200  0.39210  0.22020  Biso   1.000  C
  C20      1.0000 0.17960  0.45650  0.22080  Biso   1.000  C
  H19      1.0000 0.21460  0.46360  0.26080  Biso   1.000  H
  C21      1.0000 0.17490  0.51030  0.16170  Biso   1.000  C
  H20      1.0000 0.20680  0.55340  0.16200  Biso   1.000  H
  C22      1.0000 0.12260  0.49980  0.10190  Biso   1.000  C
  H21      1.0000 0.11940  0.53580  0.06240  Biso   1.000  H
  C23      1.0000 0.07490  0.43540  0.10140  Biso   1.000  C
  H22      1.0000 0.03990  0.42830  0.06140  Biso   1.000  H
  C24      1.0000 0.07960  0.38150  0.16050  Biso   1.000  C
  H23      1.0000 0.04770  0.33850  0.16020  Biso   1.000  H
  S4       1.0000 0.13529  0.32008  0.29076  Biso   1.000  S
  H24      1.0000 0.17170  0.40960  0.38380  Biso   1.000  H
  C25      1.0000 0.77980  0.63200  0.10790  Biso   1.000  C
  C26      1.0000 0.77920  0.67960  0.04350  Biso   1.000  C
  H25      1.0000 0.73920  0.71460  0.03640  Biso   1.000  H
  C27      1.0000 0.83830  0.67490  0.98970  Biso   1.000  C
  H26      1.0000 0.83800  0.70680  0.94660  Biso   1.000  H
  C28      1.0000 0.89810  0.62260  0.00020  Biso   1.000  C
  H27      1.0000 0.93760  0.61940  0.96420  Biso   1.000  H
  C29      1.0000 0.89860  0.57490  0.06460  Biso   1.000  C
  H28      1.0000 0.93860  0.53990  0.07170  Biso   1.000  H
  C30      1.0000 0.83950  0.57960  0.11850  Biso   1.000  C
  H29      1.0000 0.83980  0.54770  0.16150  Biso   1.000  H
  S5       1.0000 0.70924  0.63529  0.17992  Biso   1.000  S
  H30      1.0000 0.61620  0.67170  0.09040  Biso   1.000  H
  C31      1.0000 0.27980  0.86800  0.89210  Biso   1.000  C
  C32      1.0000 0.27920  0.82040  0.95650  Biso   1.000  C
  H31      1.0000 0.23920  0.78540  0.96360  Biso   1.000  H
  C33      1.0000 0.33830  0.82510  0.01030  Biso   1.000  C
  H32      1.0000 0.33800  0.79320  0.05340  Biso   1.000  H
  C34      1.0000 0.39810  0.87740  0.99980  Biso   1.000  C
  H33      1.0000 0.43760  0.88060  0.03580  Biso   1.000  H
  C35      1.0000 0.39860  0.92510  0.93540  Biso   1.000  C
  H34      1.0000 0.43860  0.96010  0.92830  Biso   1.000  H
  C36      1.0000 0.33950  0.92040  0.88150  Biso   1.000  C
  H35      1.0000 0.33980  0.95230  0.83850  Biso   1.000  H
  S6       1.0000 0.20924  0.86471  0.82008  Biso   1.000  S
  H36      1.0000 0.11620  0.82830  0.90960  Biso   1.000  H
  C37      1.0000 0.72020  0.36800  0.60790  Biso   1.000  C
  C38      1.0000 0.72080  0.32040  0.54350  Biso   1.000  C
  H37      1.0000 0.76080  0.28540  0.53640  Biso   1.000  H
  C39      1.0000 0.66170  0.32510  0.48970  Biso   1.000  C
  H38      1.0000 0.66200  0.29320  0.44660  Biso   1.000  H
  C40      1.0000 0.60190  0.37740  0.50020  Biso   1.000  C
  H39      1.0000 0.56240  0.38060  0.46420  Biso   1.000  H
  C41      1.0000 0.60140  0.42510  0.56460  Biso   1.000  C
  H40      1.0000 0.56140  0.46010  0.57170  Biso   1.000  H
  C42      1.0000 0.66050  0.42040  0.61850  Biso   1.000  C
  H41      1.0000 0.66020  0.45230  0.66150  Biso   1.000  H
  S7       1.0000 0.79076  0.36471  0.67992  Biso   1.000  S
  H42      1.0000 0.88380  0.32830  0.59040  Biso   1.000  H
  C43      1.0000 0.22020  0.13200  0.39210  Biso   1.000  C
  C44      1.0000 0.22080  0.17960  0.45650  Biso   1.000  C
  H43      1.0000 0.26080  0.21460  0.46360  Biso   1.000  H
  C45      1.0000 0.16170  0.17490  0.51030  Biso   1.000  C
  H44      1.0000 0.16200  0.20680  0.55340  Biso   1.000  H
  C46      1.0000 0.10190  0.12260  0.49980  Biso   1.000  C
  H45      1.0000 0.06240  0.11940  0.53580  Biso   1.000  H
  C47      1.0000 0.10140  0.07490  0.43540  Biso   1.000  C
  H46      1.0000 0.06140  0.03990  0.42830  Biso   1.000  H
  C48      1.0000 0.16050  0.07960  0.38150  Biso   1.000  C
  H47      1.0000 0.16020  0.04770  0.33850  Biso   1.000  H
  S8       1.0000 0.29076  0.13529  0.32008  Biso   1.000  S
  H48      1.0000 0.38380  0.17170  0.40960  Biso   1.000  H
  C49      1.0000 0.10790  0.77980  0.63200  Biso   1.000  C
  C50      1.0000 0.04350  0.77920  0.67960  Biso   1.000  C
  H49      1.0000 0.03640  0.73920  0.71460  Biso   1.000  H
  C51      1.0000 0.98970  0.83830  0.67490  Biso   1.000  C
  H50      1.0000 0.94660  0.83800  0.70680  Biso   1.000  H
  C52      1.0000 0.00020  0.89810  0.62260  Biso   1.000  C
  H51      1.0000 0.96420  0.93760  0.61940  Biso   1.000  H
  C53      1.0000 0.06460  0.89860  0.57490  Biso   1.000  C
  H52      1.0000 0.07170  0.93860  0.53990  Biso   1.000  H
  C54      1.0000 0.11850  0.83950  0.57960  Biso   1.000  C
  H53      1.0000 0.16150  0.83980  0.54770  Biso   1.000  H
  S9       1.0000 0.17992  0.70924  0.63529  Biso   1.000  S
  H54      1.0000 0.09040  0.61620  0.67170  Biso   1.000  H
  C55      1.0000 0.89210  0.27980  0.86800  Biso   1.000  C
  C56      1.0000 0.95650  0.27920  0.82040  Biso   1.000  C
  H55      1.0000 0.96360  0.23920  0.78540  Biso   1.000  H
  C57      1.0000 0.01030  0.33830  0.82510  Biso   1.000  C
  H56      1.0000 0.05340  0.33800  0.79320  Biso   1.000  H
  C58      1.0000 0.99980  0.39810  0.87740  Biso   1.000  C
  H57      1.0000 0.03580  0.43760  0.88060  Biso   1.000  H
  C59      1.0000 0.93540  0.39860  0.92510  Biso   1.000  C
  H58      1.0000 0.92830  0.43860  0.96010  Biso   1.000  H
  C60      1.0000 0.88150  0.33950  0.92040  Biso   1.000  C
  H59      1.0000 0.83850  0.33980  0.95230  Biso   1.000  H
  S10      1.0000 0.82008  0.20924  0.86471  Biso   1.000  S
  H60      1.0000 0.90960  0.11620  0.82830  Biso   1.000  H
  C61      1.0000 0.60790  0.72020  0.36800  Biso   1.000  C
  C62      1.0000 0.54350  0.72080  0.32040  Biso   1.000  C
  H61      1.0000 0.53640  0.76080  0.28540  Biso   1.000  H
  C63      1.0000 0.48970  0.66170  0.32510  Biso   1.000  C
  H62      1.0000 0.44660  0.66200  0.29320  Biso   1.000  H
  C64      1.0000 0.50020  0.60190  0.37740  Biso   1.000  C
  H63      1.0000 0.46420  0.56240  0.38060  Biso   1.000  H
  C65      1.0000 0.56460  0.60140  0.42510  Biso   1.000  C
  H64      1.0000 0.57170  0.56140  0.46010  Biso   1.000  H
  C66      1.0000 0.61850  0.66050  0.42040  Biso   1.000  C
  H65      1.0000 0.66150  0.66020  0.45230  Biso   1.000  H
  S11      1.0000 0.67992  0.79076  0.36471  Biso   1.000  S
  H66      1.0000 0.59040  0.88380  0.32830  Biso   1.000  H
  C67      1.0000 0.39210  0.22020  0.13200  Biso   1.000  C
  C68      1.0000 0.45650  0.22080  0.17960  Biso   1.000  C
  H67      1.0000 0.46360  0.26080  0.21460  Biso   1.000  H
  C69      1.0000 0.51030  0.16170  0.17490  Biso   1.000  C
  H68      1.0000 0.55340  0.16200  0.20680  Biso   1.000  H
  C70      1.0000 0.49980  0.10190  0.12260  Biso   1.000  C
  H69      1.0000 0.53580  0.06240  0.11940  Biso   1.000  H
  C71      1.0000 0.43540  0.10140  0.07490  Biso   1.000  C
  H70      1.0000 0.42830  0.06140  0.03990  Biso   1.000  H
  C72      1.0000 0.38150  0.16050  0.07960  Biso   1.000  C
  H71      1.0000 0.33850  0.16020  0.04770  Biso   1.000  H
  S12      1.0000 0.32008  0.29076  0.13529  Biso   1.000  S
  H72      1.0000 0.40960  0.38380  0.17170  Biso   1.000  H
  C73      1.0000 0.35790  0.38200  0.97020  Biso   1.000  C
  C74      1.0000 0.29350  0.42960  0.97080  Biso   1.000  C
  H73      1.0000 0.28640  0.46460  0.01080  Biso   1.000  H
  C75      1.0000 0.23970  0.42490  0.91170  Biso   1.000  C
  H74      1.0000 0.19660  0.45680  0.91200  Biso   1.000  H
  C76      1.0000 0.25020  0.37260  0.85190  Biso   1.000  C
  H75      1.0000 0.21420  0.36940  0.81240  Biso   1.000  H
  C77      1.0000 0.31460  0.32490  0.85140  Biso   1.000  C
  H76      1.0000 0.32170  0.28990  0.81140  Biso   1.000  H
  C78      1.0000 0.36850  0.32960  0.91050  Biso   1.000  C
  H77      1.0000 0.41150  0.29770  0.91020  Biso   1.000  H
  S13      1.0000 0.42992  0.38529  0.04076  Biso   1.000  S
  H78      1.0000 0.34040  0.42170  0.13380  Biso   1.000  H
  C79      1.0000 0.14210  0.61800  0.47020  Biso   1.000  C
  C80      1.0000 0.20650  0.57040  0.47080  Biso   1.000  C
  H79      1.0000 0.21360  0.53540  0.51080  Biso   1.000  H
  C81      1.0000 0.26030  0.57510  0.41170  Biso   1.000  C
  H80      1.0000 0.30340  0.54320  0.41200  Biso   1.000  H
  C82      1.0000 0.24980  0.62740  0.35190  Biso   1.000  C
  H81      1.0000 0.28580  0.63060  0.31240  Biso   1.000  H
  C83      1.0000 0.18540  0.67510  0.35140  Biso   1.000  C
  H82      1.0000 0.17830  0.71010  0.31140  Biso   1.000  H
  C84      1.0000 0.13150  0.67040  0.41050  Biso   1.000  C
  H83      1.0000 0.08850  0.70230  0.41020  Biso   1.000  H
  S14      1.0000 0.07008  0.61471  0.54076  Biso   1.000  S
  H84      1.0000 0.15960  0.57830  0.63380  Biso   1.000  H
  C85      1.0000 0.85790  0.11800  0.02980  Biso   1.000  C
  C86      1.0000 0.79350  0.07040  0.02920  Biso   1.000  C
  H85      1.0000 0.78640  0.03540  0.98920  Biso   1.000  H
  C87      1.0000 0.73970  0.07510  0.08830  Biso   1.000  C
  H86      1.0000 0.69660  0.04320  0.08800  Biso   1.000  H
  C88      1.0000 0.75020  0.12740  0.14810  Biso   1.000  C
  H87      1.0000 0.71420  0.13060  0.18760  Biso   1.000  H
  C89      1.0000 0.81460  0.17510  0.14860  Biso   1.000  C
  H88      1.0000 0.82170  0.21010  0.18860  Biso   1.000  H
  C90      1.0000 0.86850  0.17040  0.08950  Biso   1.000  C
  H89      1.0000 0.91150  0.20230  0.08980  Biso   1.000  H
  S15      1.0000 0.92992  0.11471  0.95924  Biso   1.000  S
  H90      1.0000 0.84040  0.07830  0.86620  Biso   1.000  H
  C91      1.0000 0.64210  0.88200  0.52980  Biso   1.000  C
  C92      1.0000 0.70650  0.92960  0.52920  Biso   1.000  C
  H91      1.0000 0.71360  0.96460  0.48920  Biso   1.000  H
  C93      1.0000 0.76030  0.92490  0.58830  Biso   1.000  C
  H92      1.0000 0.80340  0.95680  0.58800  Biso   1.000  H
  C94      1.0000 0.74980  0.87260  0.64810  Biso   1.000  C
  H93      1.0000 0.78580  0.86940  0.68760  Biso   1.000  H
  C95      1.0000 0.68540  0.82490  0.64860  Biso   1.000  C
  H94      1.0000 0.67830  0.78990  0.68860  Biso   1.000  H
  C96      1.0000 0.63150  0.82960  0.58950  Biso   1.000  C
  H95      1.0000 0.58850  0.79770  0.58980  Biso   1.000  H
  S16      1.0000 0.57008  0.88529  0.45924  Biso   1.000  S
  H96      1.0000 0.65960  0.92170  0.36620  Biso   1.000  H
  C97      1.0000 0.88200  0.52980  0.64210  Biso   1.000  C
  C98      1.0000 0.92960  0.52920  0.70650  Biso   1.000  C
  H97      1.0000 0.96460  0.48920  0.71360  Biso   1.000  H
  C99      1.0000 0.92490  0.58830  0.76030  Biso   1.000  C
  H98      1.0000 0.95680  0.58800  0.80340  Biso   1.000  H
  C100     1.0000 0.87260  0.64810  0.74980  Biso   1.000  C
  H99      1.0000 0.86940  0.68760  0.78580  Biso   1.000  H
  C101     1.0000 0.82490  0.64860  0.68540  Biso   1.000  C
  H100     1.0000 0.78990  0.68860  0.67830  Biso   1.000  H
  C102     1.0000 0.82960  0.58950  0.63150  Biso   1.000  C
  H101     1.0000 0.79770  0.58980  0.58850  Biso   1.000  H
  S17      1.0000 0.88529  0.45924  0.57008  Biso   1.000  S
  H102     1.0000 0.92170  0.36620  0.65960  Biso   1.000  H
  C103     1.0000 0.11800  0.02980  0.85790  Biso   1.000  C
  C104     1.0000 0.07040  0.02920  0.79350  Biso   1.000  C
  H103     1.0000 0.03540  0.98920  0.78640  Biso   1.000  H
  C105     1.0000 0.07510  0.08830  0.73970  Biso   1.000  C
  H104     1.0000 0.04320  0.08800  0.69660  Biso   1.000  H
  C106     1.0000 0.12740  0.14810  0.75020  Biso   1.000  C
  H105     1.0000 0.13060  0.18760  0.71420  Biso   1.000  H
  C107     1.0000 0.17510  0.14860  0.81460  Biso   1.000  C
  H106     1.0000 0.21010  0.18860  0.82170  Biso   1.000  H
  C108     1.0000 0.17040  0.08950  0.86850  Biso   1.000  C
  H107     1.0000 0.20230  0.08980  0.91150  Biso   1.000  H
  S18      1.0000 0.11471  0.95924  0.92992  Biso   1.000  S
  H108     1.0000 0.07830  0.86620  0.84040  Biso   1.000  H
  C109     1.0000 0.61800  0.47020  0.14210  Biso   1.000  C
  C110     1.0000 0.57040  0.47080  0.20650  Biso   1.000  C
  H109     1.0000 0.53540  0.51080  0.21360  Biso   1.000  H
  C111     1.0000 0.57510  0.41170  0.26030  Biso   1.000  C
  H110     1.0000 0.54320  0.41200  0.30340  Biso   1.000  H
  C112     1.0000 0.62740  0.35190  0.24980  Biso   1.000  C
  H111     1.0000 0.63060  0.31240  0.28580  Biso   1.000  H
  C113     1.0000 0.67510  0.35140  0.18540  Biso   1.000  C
  H112     1.0000 0.71010  0.31140  0.17830  Biso   1.000  H
  C114     1.0000 0.67040  0.41050  0.13150  Biso   1.000  C
  H113     1.0000 0.70230  0.41020  0.08850  Biso   1.000  H
  S19      1.0000 0.61471  0.54076  0.07008  Biso   1.000  S
  H114     1.0000 0.57830  0.63380  0.15960  Biso   1.000  H
  C115     1.0000 0.38200  0.97020  0.35790  Biso   1.000  C
  C116     1.0000 0.42960  0.97080  0.29350  Biso   1.000  C
  H115     1.0000 0.46460  0.01080  0.28640  Biso   1.000  H
  C117     1.0000 0.42490  0.91170  0.23970  Biso   1.000  C
  H116     1.0000 0.45680  0.91200  0.19660  Biso   1.000  H
  C118     1.0000 0.37260  0.85190  0.25020  Biso   1.000  C
  H117     1.0000 0.36940  0.81240  0.21420  Biso   1.000  H
  C119     1.0000 0.32490  0.85140  0.31460  Biso   1.000  C
  H118     1.0000 0.28990  0.81140  0.32170  Biso   1.000  H
  C120     1.0000 0.32960  0.91050  0.36850  Biso   1.000  C
  H119     1.0000 0.29770  0.91020  0.41150  Biso   1.000  H
  S20      1.0000 0.38529  0.04076  0.42992  Biso   1.000  S
  H120     1.0000 0.42170  0.13380  0.34040  Biso   1.000  H
  C121     1.0000 0.02980  0.85790  0.11800  Biso   1.000  C
  C122     1.0000 0.02920  0.79350  0.07040  Biso   1.000  C
  H121     1.0000 0.98920  0.78640  0.03540  Biso   1.000  H
  C123     1.0000 0.08830  0.73970  0.07510  Biso   1.000  C
  H122     1.0000 0.08800  0.69660  0.04320  Biso   1.000  H
  C124     1.0000 0.14810  0.75020  0.12740  Biso   1.000  C
  H123     1.0000 0.18760  0.71420  0.13060  Biso   1.000  H
  C125     1.0000 0.14860  0.81460  0.17510  Biso   1.000  C
  H124     1.0000 0.18860  0.82170  0.21010  Biso   1.000  H
  C126     1.0000 0.08950  0.86850  0.17040  Biso   1.000  C
  H125     1.0000 0.08980  0.91150  0.20230  Biso   1.000  H
  S21      1.0000 0.95924  0.92992  0.11471  Biso   1.000  S
  H126     1.0000 0.86620  0.84040  0.07830  Biso   1.000  H
  C127     1.0000 0.52980  0.64210  0.88200  Biso   1.000  C
  C128     1.0000 0.52920  0.70650  0.92960  Biso   1.000  C
  H127     1.0000 0.48920  0.71360  0.96460  Biso   1.000  H
  C129     1.0000 0.58830  0.76030  0.92490  Biso   1.000  C
  H128     1.0000 0.58800  0.80340  0.95680  Biso   1.000  H
  C130     1.0000 0.64810  0.74980  0.87260  Biso   1.000  C
  H129     1.0000 0.68760  0.78580  0.86940  Biso   1.000  H
  C131     1.0000 0.64860  0.68540  0.82490  Biso   1.000  C
  H130     1.0000 0.68860  0.67830  0.78990  Biso   1.000  H
  C132     1.0000 0.58950  0.63150  0.82960  Biso   1.000  C
  H131     1.0000 0.58980  0.58850  0.79770  Biso   1.000  H
  S22      1.0000 0.45924  0.57008  0.88529  Biso   1.000  S
  H132     1.0000 0.36620  0.65960  0.92170  Biso   1.000  H
  C133     1.0000 0.97020  0.35790  0.38200  Biso   1.000  C
  C134     1.0000 0.97080  0.29350  0.42960  Biso   1.000  C
  H133     1.0000 0.01080  0.28640  0.46460  Biso   1.000  H
  C135     1.0000 0.91170  0.23970  0.42490  Biso   1.000  C
  H134     1.0000 0.91200  0.19660  0.45680  Biso   1.000  H
  C136     1.0000 0.85190  0.25020  0.37260  Biso   1.000  C
  H135     1.0000 0.81240  0.21420  0.36940  Biso   1.000  H
  C137     1.0000 0.85140  0.31460  0.32490  Biso   1.000  C
  H136     1.0000 0.81140  0.32170  0.28990  Biso   1.000  H
  C138     1.0000 0.91050  0.36850  0.32960  Biso   1.000  C
  H137     1.0000 0.91020  0.41150  0.29770  Biso   1.000  H
  S23      1.0000 0.04076  0.42992  0.38529  Biso   1.000  S
  H138     1.0000 0.13380  0.34040  0.42170  Biso   1.000  H
  C139     1.0000 0.47020  0.14210  0.61800  Biso   1.000  C
  C140     1.0000 0.47080  0.20650  0.57040  Biso   1.000  C
  H139     1.0000 0.51080  0.21360  0.53540  Biso   1.000  H
  C141     1.0000 0.41170  0.26030  0.57510  Biso   1.000  C
  H140     1.0000 0.41200  0.30340  0.54320  Biso   1.000  H
  C142     1.0000 0.35190  0.24980  0.62740  Biso   1.000  C
  H141     1.0000 0.31240  0.28580  0.63060  Biso   1.000  H
  C143     1.0000 0.35140  0.18540  0.67510  Biso   1.000  C
  H142     1.0000 0.31140  0.17830  0.71010  Biso   1.000  H
  C144     1.0000 0.41050  0.13150  0.67040  Biso   1.000  C
  H143     1.0000 0.41020  0.08850  0.70230  Biso   1.000  H
  S24      1.0000 0.54076  0.07008  0.61471  Biso   1.000  S
  H144     1.0000 0.63380  0.15960  0.57830  Biso   1.000  H
  Ag1      1.0000 0.77358  0.22642  0.72642  Biso   1.000  Ag
  Ag2      1.0000 0.72642  0.77358  0.22642  Biso   1.000  Ag
  Ag3      1.0000 0.22642  0.72642  0.77358  Biso   1.000  Ag
  Ag4      1.0000 0.27358  0.27358  0.27358  Biso   1.000  Ag
  Ag5      1.0000 0.47642  0.52358  0.02358  Biso   1.000  Ag
  Ag6      1.0000 0.02358  0.47642  0.52358  Biso   1.000  Ag
  Ag7      1.0000 0.97642  0.97642  0.97642  Biso   1.000  Ag
  Ag8      1.0000 0.52358  0.02358  0.47642  Biso   1.000  Ag
  C145     1.0000 0.62860  0.12500  0.62140  Biso   1.000  C
  C146     1.0000 0.87140  0.87500  0.12140  Biso   1.000  C
  C147     1.0000 0.37140  0.62500  0.87860  Biso   1.000  C
  C148     1.0000 0.12860  0.37500  0.37860  Biso   1.000  C
  C149     1.0000 0.62140  0.62860  0.12500  Biso   1.000  C
  C150     1.0000 0.12140  0.87140  0.87500  Biso   1.000  C
  C151     1.0000 0.87860  0.37140  0.62500  Biso   1.000  C
  C152     1.0000 0.37860  0.12860  0.37500  Biso   1.000  C
  C153     1.0000 0.12500  0.62140  0.62860  Biso   1.000  C
  C154     1.0000 0.87500  0.12140  0.87140  Biso   1.000  C
  C155     1.0000 0.62500  0.87860  0.37140  Biso   1.000  C
  C156     1.0000 0.37500  0.37860  0.12860  Biso   1.000  C
