data_image0
_cell_length_a       14.0652
_cell_length_b       5.8601
_cell_length_c       21.268
_cell_angle_alpha    90
_cell_angle_beta     95.213
_cell_angle_gamma    90

_symmetry_space_group_name_H-M    "P 1"
_symmetry_int_tables_number       1

loop_
  _symmetry_equiv_pos_as_xyz
  'x, y, z'

loop_
  _atom_site_label
  _atom_site_occupancy
  _atom_site_fract_x
  _atom_site_fract_y
  _atom_site_fract_z
  _atom_site_thermal_displace_type
  _atom_site_B_iso_or_equiv
  _atom_site_type_symbol
  Ba1      1.0000 0.12166  0.23277  0.75397  Biso   1.000  Ba
  S1       1.0000 0.58164  0.96610  0.87830  Biso   1.000  S
  O1       1.0000 0.97700  0.51160  0.77900  Biso   1.000  O
  O2       1.0000 0.70630  0.93710  0.19030  Biso   1.000  O
  O3       1.0000 0.51030  0.80410  0.85370  Biso   1.000  O
  O4       1.0000 0.02420  0.87660  0.78700  Biso   1.000  O
  O5       1.0000 0.69060  0.56490  0.17150  Biso   1.000  O
  O6       1.0000 0.56650  0.20600  0.86990  Biso   1.000  O
  C1       1.0000 0.96400  0.71810  0.78960  Biso   1.000  C
  C2       1.0000 0.86710  0.78120  0.81010  Biso   1.000  C
  C3       1.0000 0.85140  0.99660  0.83380  Biso   1.000  C
  H1       1.0000 0.90060  0.10310  0.83610  Biso   1.000  H
  C4       1.0000 0.76470  0.05710  0.85400  Biso   1.000  C
  H2       1.0000 0.75460  0.20100  0.87060  Biso   1.000  H
  C5       1.0000 0.79360  0.62610  0.80480  Biso   1.000  C
  H3       1.0000 0.80390  0.48210  0.78840  Biso   1.000  H
  C6       1.0000 0.70690  0.67840  0.82300  Biso   1.000  C
  H4       1.0000 0.65730  0.57300  0.81850  Biso   1.000  H
  C7       1.0000 0.69270  0.89340  0.84860  Biso   1.000  C
  C8       1.0000 0.68280  0.76590  0.15490  Biso   1.000  C
  C9       1.0000 0.65220  0.82190  0.08600  Biso   1.000  C
  C10      1.0000 0.66470  0.03910  0.06240  Biso   1.000  C
  H5       1.0000 0.68900  0.15470  0.08920  Biso   1.000  H
  C11      1.0000 0.64130  0.08400  0.00000  Biso   1.000  C
  H6       1.0000 0.65040  0.22940  0.98400  Biso   1.000  H
  C12      1.0000 0.60400  0.91110  0.96020  Biso   1.000  C
  C13      1.0000 0.59000  0.69360  0.98260  Biso   1.000  C
  H7       1.0000 0.56550  0.57830  0.95580  Biso   1.000  H
  C14      1.0000 0.61400  0.65250  0.04670  Biso   1.000  C
  H8       1.0000 0.60400  0.50830  0.06310  Biso   1.000  H
  Ba2      1.0000 0.37834  0.73277  0.74603  Biso   1.000  Ba
  S2       1.0000 0.91836  0.46610  0.62170  Biso   1.000  S
  O7       1.0000 0.52300  0.01160  0.72100  Biso   1.000  O
  O8       1.0000 0.79370  0.43710  0.30970  Biso   1.000  O
  O9       1.0000 0.98970  0.30410  0.64630  Biso   1.000  O
  O10      1.0000 0.47580  0.37660  0.71300  Biso   1.000  O
  O11      1.0000 0.80940  0.06490  0.32850  Biso   1.000  O
  O12      1.0000 0.93350  0.70600  0.63010  Biso   1.000  O
  C15      1.0000 0.53600  0.21810  0.71040  Biso   1.000  C
  C16      1.0000 0.63290  0.28120  0.68990  Biso   1.000  C
  C17      1.0000 0.64860  0.49660  0.66620  Biso   1.000  C
  H9       1.0000 0.59940  0.60310  0.66390  Biso   1.000  H
  C18      1.0000 0.73530  0.55710  0.64600  Biso   1.000  C
  H10      1.0000 0.74540  0.70100  0.62940  Biso   1.000  H
  C19      1.0000 0.70640  0.12610  0.69520  Biso   1.000  C
  H11      1.0000 0.69610  0.98210  0.71160  Biso   1.000  H
  C20      1.0000 0.79310  0.17840  0.67700  Biso   1.000  C
  H12      1.0000 0.84270  0.07300  0.68150  Biso   1.000  H
  C21      1.0000 0.80730  0.39340  0.65140  Biso   1.000  C
  C22      1.0000 0.81720  0.26590  0.34510  Biso   1.000  C
  C23      1.0000 0.84780  0.32190  0.41400  Biso   1.000  C
  C24      1.0000 0.83530  0.53910  0.43760  Biso   1.000  C
  H13      1.0000 0.81100  0.65470  0.41080  Biso   1.000  H
  C25      1.0000 0.85870  0.58400  0.50000  Biso   1.000  C
  H14      1.0000 0.84960  0.72940  0.51600  Biso   1.000  H
  C26      1.0000 0.89600  0.41110  0.53980  Biso   1.000  C
  C27      1.0000 0.91000  0.19360  0.51740  Biso   1.000  C
  H15      1.0000 0.93450  0.07830  0.54420  Biso   1.000  H
  C28      1.0000 0.88600  0.15250  0.45330  Biso   1.000  C
  H16      1.0000 0.89600  0.00830  0.43690  Biso   1.000  H
  Ba3      1.0000 0.87834  0.76723  0.24603  Biso   1.000  Ba
  S3       1.0000 0.41836  0.03390  0.12170  Biso   1.000  S
  O13      1.0000 0.02300  0.48840  0.22100  Biso   1.000  O
  O14      1.0000 0.29370  0.06290  0.80970  Biso   1.000  O
  O15      1.0000 0.48970  0.19590  0.14630  Biso   1.000  O
  O16      1.0000 0.97580  0.12340  0.21300  Biso   1.000  O
  O17      1.0000 0.30940  0.43510  0.82850  Biso   1.000  O
  O18      1.0000 0.43350  0.79400  0.13010  Biso   1.000  O
  C29      1.0000 0.03600  0.28190  0.21040  Biso   1.000  C
  C30      1.0000 0.13290  0.21880  0.18990  Biso   1.000  C
  C31      1.0000 0.14860  0.00340  0.16620  Biso   1.000  C
  H17      1.0000 0.09940  0.89690  0.16390  Biso   1.000  H
  C32      1.0000 0.23530  0.94290  0.14600  Biso   1.000  C
  H18      1.0000 0.24540  0.79900  0.12940  Biso   1.000  H
  C33      1.0000 0.20640  0.37390  0.19520  Biso   1.000  C
  H19      1.0000 0.19610  0.51790  0.21160  Biso   1.000  H
  C34      1.0000 0.29310  0.32160  0.17700  Biso   1.000  C
  H20      1.0000 0.34270  0.42700  0.18150  Biso   1.000  H
  C35      1.0000 0.30730  0.10660  0.15140  Biso   1.000  C
  C36      1.0000 0.31720  0.23410  0.84510  Biso   1.000  C
  C37      1.0000 0.34780  0.17810  0.91400  Biso   1.000  C
  C38      1.0000 0.33530  0.96090  0.93760  Biso   1.000  C
  H21      1.0000 0.31100  0.84530  0.91080  Biso   1.000  H
  C39      1.0000 0.35870  0.91600  0.00000  Biso   1.000  C
  H22      1.0000 0.34960  0.77060  0.01600  Biso   1.000  H
  C40      1.0000 0.39600  0.08890  0.03980  Biso   1.000  C
  C41      1.0000 0.41000  0.30640  0.01740  Biso   1.000  C
  H23      1.0000 0.43450  0.42170  0.04420  Biso   1.000  H
  C42      1.0000 0.38600  0.34750  0.95330  Biso   1.000  C
  H24      1.0000 0.39600  0.49170  0.93690  Biso   1.000  H
  Ba4      1.0000 0.62166  0.26723  0.25397  Biso   1.000  Ba
  S4       1.0000 0.08164  0.53390  0.37830  Biso   1.000  S
  O19      1.0000 0.47700  0.98840  0.27900  Biso   1.000  O
  O20      1.0000 0.20630  0.56290  0.69030  Biso   1.000  O
  O21      1.0000 0.01030  0.69590  0.35370  Biso   1.000  O
  O22      1.0000 0.52420  0.62340  0.28700  Biso   1.000  O
  O23      1.0000 0.19060  0.93510  0.67150  Biso   1.000  O
  O24      1.0000 0.06650  0.29400  0.36990  Biso   1.000  O
  C43      1.0000 0.46400  0.78190  0.28960  Biso   1.000  C
  C44      1.0000 0.36710  0.71880  0.31010  Biso   1.000  C
  C45      1.0000 0.35140  0.50340  0.33380  Biso   1.000  C
  H25      1.0000 0.40060  0.39690  0.33610  Biso   1.000  H
  C46      1.0000 0.26470  0.44290  0.35400  Biso   1.000  C
  H26      1.0000 0.25460  0.29900  0.37060  Biso   1.000  H
  C47      1.0000 0.29360  0.87390  0.30480  Biso   1.000  C
  H27      1.0000 0.30390  0.01790  0.28840  Biso   1.000  H
  C48      1.0000 0.20690  0.82160  0.32300  Biso   1.000  C
  H28      1.0000 0.15730  0.92700  0.31850  Biso   1.000  H
  C49      1.0000 0.19270  0.60660  0.34860  Biso   1.000  C
  C50      1.0000 0.18280  0.73410  0.65490  Biso   1.000  C
  C51      1.0000 0.15220  0.67810  0.58600  Biso   1.000  C
  C52      1.0000 0.16470  0.46090  0.56240  Biso   1.000  C
  H29      1.0000 0.18900  0.34530  0.58920  Biso   1.000  H
  C53      1.0000 0.14130  0.41600  0.50000  Biso   1.000  C
  H30      1.0000 0.15040  0.27060  0.48400  Biso   1.000  H
  C54      1.0000 0.10400  0.58890  0.46020  Biso   1.000  C
  C55      1.0000 0.09000  0.80640  0.48260  Biso   1.000  C
  H31      1.0000 0.06550  0.92170  0.45580  Biso   1.000  H
  C56      1.0000 0.11400  0.84750  0.54670  Biso   1.000  C
  H32      1.0000 0.10400  0.99170  0.56310  Biso   1.000  H
