data_CAHLEE_clean
_audit_creation_date              2014-07-02
_audit_creation_method            'Materials Studio'
_symmetry_space_group_name_H-M    'P1'
_symmetry_Int_Tables_number       1
_symmetry_cell_setting            triclinic
loop_
_symmetry_equiv_pos_as_xyz
  x,y,z
_cell_length_a                    7.0275
_cell_length_b                    18.1390
_cell_length_c                    24.7040
_cell_angle_alpha                 90.0000
_cell_angle_beta                  90.0000
_cell_angle_gamma                 99.8600
loop_
_atom_site_label
_atom_site_type_symbol
_atom_site_fract_x
_atom_site_fract_y
_atom_site_fract_z
_atom_site_U_iso_or_equiv
_atom_site_adp_type
_atom_site_occupancy
Nd1    Nd    0.27833   0.48400   0.59913   0.01267  Uiso   1.00
Nd2    Nd    0.72167   0.51600   0.09913   0.01267  Uiso   1.00
Nd3    Nd    0.72167   0.51600   0.40087   0.01267  Uiso   1.00
Nd4    Nd    0.27833   0.48400   0.90087   0.01267  Uiso   1.00
Cu1    Cu    0.12083   0.95596   0.50757   0.01267  Uiso   1.00
Cu2    Cu    0.67291   0.93955   0.58061   0.01267  Uiso   1.00
Cu3    Cu    0.74959   0.05335   0.68422   0.01267  Uiso   1.00
Cu4    Cu    0.87917   0.04404   0.00757   0.01267  Uiso   1.00
Cu5    Cu    0.32709   0.06045   0.08061   0.01267  Uiso   1.00
Cu6    Cu    0.25041   0.94665   0.18422   0.01267  Uiso   1.00
Cu7    Cu    0.87917   0.04404   0.49243   0.01267  Uiso   1.00
Cu8    Cu    0.32709   0.06045   0.41939   0.01267  Uiso   1.00
Cu9    Cu    0.25041   0.94665   0.31578   0.01267  Uiso   1.00
Cu10   Cu    0.12083   0.95596   0.99243   0.01267  Uiso   1.00
Cu11   Cu    0.67291   0.93955   0.91939   0.01267  Uiso   1.00
Cu12   Cu    0.74959   0.05335   0.81578   0.01267  Uiso   1.00
Cu13   Cu    0.72838   0.93434   0.75000   0.01267  Uiso   1.00
Cu14   Cu    0.27162   0.06566   0.25000   0.01267  Uiso   1.00
H1     H     0.08480   0.85820   0.60470   0.01267  Uiso   1.00
H2     H     0.10110   0.73620   0.62840   0.01267  Uiso   1.00
H3     H     0.20220   0.69510   0.47220   0.01267  Uiso   1.00
H4     H     0.17790   0.81700   0.45230   0.01267  Uiso   1.00
H5     H     0.60530   0.79250   0.63740   0.01267  Uiso   1.00
H6     H     0.59450   0.66760   0.62110   0.01267  Uiso   1.00
H7     H     0.69450   0.71800   0.46420   0.01267  Uiso   1.00
H8     H     0.69280   0.84130   0.48460   0.01267  Uiso   1.00
H9     H     0.39280   0.10520   0.65330   0.01267  Uiso   1.00
H10    H     0.27340   0.21360   0.63840   0.01267  Uiso   1.00
H11    H     0.80630   0.32960   0.66180   0.01267  Uiso   1.00
H12    H     0.90590   0.21810   0.67960   0.01267  Uiso   1.00
H13    H     0.91520   0.14180   0.10470   0.01267  Uiso   1.00
H14    H     0.89890   0.26380   0.12840   0.01267  Uiso   1.00
H15    H     0.79780   0.30490   0.97220   0.01267  Uiso   1.00
H16    H     0.82210   0.18300   0.95230   0.01267  Uiso   1.00
H17    H     0.39470   0.20750   0.13740   0.01267  Uiso   1.00
H18    H     0.40550   0.33240   0.12110   0.01267  Uiso   1.00
H19    H     0.30550   0.28200   0.96420   0.01267  Uiso   1.00
H20    H     0.30720   0.15870   0.98460   0.01267  Uiso   1.00
H21    H     0.60720   0.89480   0.15330   0.01267  Uiso   1.00
H22    H     0.72660   0.78640   0.13840   0.01267  Uiso   1.00
H23    H     0.19370   0.67040   0.16180   0.01267  Uiso   1.00
H24    H     0.09410   0.78190   0.17960   0.01267  Uiso   1.00
H25    H     0.91520   0.14180   0.39530   0.01267  Uiso   1.00
H26    H     0.89890   0.26380   0.37160   0.01267  Uiso   1.00
H27    H     0.79780   0.30490   0.52780   0.01267  Uiso   1.00
H28    H     0.82210   0.18300   0.54770   0.01267  Uiso   1.00
H29    H     0.39470   0.20750   0.36260   0.01267  Uiso   1.00
H30    H     0.40550   0.33240   0.37890   0.01267  Uiso   1.00
H31    H     0.30550   0.28200   0.53580   0.01267  Uiso   1.00
H32    H     0.30720   0.15870   0.51540   0.01267  Uiso   1.00
H33    H     0.60720   0.89480   0.34670   0.01267  Uiso   1.00
H34    H     0.72660   0.78640   0.36160   0.01267  Uiso   1.00
H35    H     0.19370   0.67040   0.33820   0.01267  Uiso   1.00
H36    H     0.09410   0.78190   0.32040   0.01267  Uiso   1.00
H37    H     0.08480   0.85820   0.89530   0.01267  Uiso   1.00
H38    H     0.10110   0.73620   0.87160   0.01267  Uiso   1.00
H39    H     0.20220   0.69510   0.02780   0.01267  Uiso   1.00
H40    H     0.17790   0.81700   0.04770   0.01267  Uiso   1.00
H41    H     0.60530   0.79250   0.86260   0.01267  Uiso   1.00
H42    H     0.59450   0.66760   0.87890   0.01267  Uiso   1.00
H43    H     0.69450   0.71800   0.03580   0.01267  Uiso   1.00
H44    H     0.69280   0.84130   0.01540   0.01267  Uiso   1.00
H45    H     0.39280   0.10520   0.84670   0.01267  Uiso   1.00
H46    H     0.27340   0.21360   0.86160   0.01267  Uiso   1.00
H47    H     0.80630   0.32960   0.83820   0.01267  Uiso   1.00
H48    H     0.90590   0.21810   0.82040   0.01267  Uiso   1.00
H49    H     0.11680   0.89420   0.75000   0.01267  Uiso   1.00
H50    H     0.27020   0.79170   0.75000   0.01267  Uiso   1.00
H51    H     0.75030   0.66000   0.75000   0.01267  Uiso   1.00
H52    H     0.61420   0.76570   0.75000   0.01267  Uiso   1.00
H53    H     0.88320   0.10580   0.25000   0.01267  Uiso   1.00
H54    H     0.72980   0.20830   0.25000   0.01267  Uiso   1.00
H55    H     0.24970   0.34000   0.25000   0.01267  Uiso   1.00
H56    H     0.38580   0.23430   0.25000   0.01267  Uiso   1.00
C1     C     0.10660   0.82460   0.57786   0.01267  Uiso   1.00
C2     C     0.11760   0.75160   0.59257   0.01267  Uiso   1.00
C3     C     0.15370   0.70220   0.55264   0.01267  Uiso   1.00
C4     C     0.17700   0.72730   0.49954   0.01267  Uiso   1.00
C5     C     0.16240   0.80030   0.48790   0.01267  Uiso   1.00
C6     C     0.17110   0.62330   0.56770   0.01267  Uiso   1.00
C7     C     0.62200   0.77690   0.60213   0.01267  Uiso   1.00
C8     C     0.61680   0.70190   0.59285   0.01267  Uiso   1.00
C9     C     0.64540   0.67830   0.54031   0.01267  Uiso   1.00
C10    C     0.67480   0.73190   0.49975   0.01267  Uiso   1.00
C11    C     0.67480   0.80610   0.51234   0.01267  Uiso   1.00
C12    C     0.64290   0.59670   0.52766   0.01267  Uiso   1.00
C13    C     0.47630   0.15080   0.65560   0.01267  Uiso   1.00
C14    C     0.40370   0.21590   0.64634   0.01267  Uiso   1.00
C15    C     0.52480   0.28450   0.64888   0.01267  Uiso   1.00
C16    C     0.71860   0.28500   0.66060   0.01267  Uiso   1.00
C17    C     0.77720   0.21720   0.67040   0.01267  Uiso   1.00
C18    C     0.44760   0.35560   0.63809   0.01267  Uiso   1.00
C19    C     0.89340   0.17540   0.07786   0.01267  Uiso   1.00
C20    C     0.88240   0.24840   0.09257   0.01267  Uiso   1.00
C21    C     0.84630   0.29780   0.05264   0.01267  Uiso   1.00
C22    C     0.82300   0.27270   0.99954   0.01267  Uiso   1.00
C23    C     0.83760   0.19970   0.98790   0.01267  Uiso   1.00
C24    C     0.82890   0.37670   0.06770   0.01267  Uiso   1.00
C25    C     0.37800   0.22310   0.10213   0.01267  Uiso   1.00
C26    C     0.38320   0.29810   0.09285   0.01267  Uiso   1.00
C27    C     0.35460   0.32170   0.04031   0.01267  Uiso   1.00
C28    C     0.32520   0.26810   0.99975   0.01267  Uiso   1.00
C29    C     0.32520   0.19390   0.01234   0.01267  Uiso   1.00
C30    C     0.35710   0.40330   0.02766   0.01267  Uiso   1.00
C31    C     0.52370   0.84920   0.15560   0.01267  Uiso   1.00
C32    C     0.59630   0.78410   0.14634   0.01267  Uiso   1.00
C33    C     0.47520   0.71550   0.14888   0.01267  Uiso   1.00
C34    C     0.28140   0.71500   0.16060   0.01267  Uiso   1.00
C35    C     0.22280   0.78280   0.17040   0.01267  Uiso   1.00
C36    C     0.55240   0.64440   0.13809   0.01267  Uiso   1.00
C37    C     0.89340   0.17540   0.42214   0.01267  Uiso   1.00
C38    C     0.88240   0.24840   0.40743   0.01267  Uiso   1.00
C39    C     0.84630   0.29780   0.44736   0.01267  Uiso   1.00
C40    C     0.82300   0.27270   0.50046   0.01267  Uiso   1.00
C41    C     0.83760   0.19970   0.51210   0.01267  Uiso   1.00
C42    C     0.82890   0.37670   0.43230   0.01267  Uiso   1.00
C43    C     0.37800   0.22310   0.39787   0.01267  Uiso   1.00
C44    C     0.38320   0.29810   0.40715   0.01267  Uiso   1.00
C45    C     0.35460   0.32170   0.45969   0.01267  Uiso   1.00
C46    C     0.32520   0.26810   0.50025   0.01267  Uiso   1.00
C47    C     0.32520   0.19390   0.48766   0.01267  Uiso   1.00
C48    C     0.35710   0.40330   0.47234   0.01267  Uiso   1.00
C49    C     0.52370   0.84920   0.34440   0.01267  Uiso   1.00
C50    C     0.59630   0.78410   0.35366   0.01267  Uiso   1.00
C51    C     0.47520   0.71550   0.35112   0.01267  Uiso   1.00
C52    C     0.28140   0.71500   0.33940   0.01267  Uiso   1.00
C53    C     0.22280   0.78280   0.32960   0.01267  Uiso   1.00
C54    C     0.55240   0.64440   0.36191   0.01267  Uiso   1.00
C55    C     0.10660   0.82460   0.92214   0.01267  Uiso   1.00
C56    C     0.11760   0.75160   0.90743   0.01267  Uiso   1.00
C57    C     0.15370   0.70220   0.94736   0.01267  Uiso   1.00
C58    C     0.17700   0.72730   0.00046   0.01267  Uiso   1.00
C59    C     0.16240   0.80030   0.01210   0.01267  Uiso   1.00
C60    C     0.17110   0.62330   0.93230   0.01267  Uiso   1.00
C61    C     0.62200   0.77690   0.89787   0.01267  Uiso   1.00
C62    C     0.61680   0.70190   0.90715   0.01267  Uiso   1.00
C63    C     0.64540   0.67830   0.95969   0.01267  Uiso   1.00
C64    C     0.67480   0.73190   0.00025   0.01267  Uiso   1.00
C65    C     0.67480   0.80610   0.98766   0.01267  Uiso   1.00
C66    C     0.64290   0.59670   0.97234   0.01267  Uiso   1.00
C67    C     0.47630   0.15080   0.84440   0.01267  Uiso   1.00
C68    C     0.40370   0.21590   0.85366   0.01267  Uiso   1.00
C69    C     0.52480   0.28450   0.85112   0.01267  Uiso   1.00
C70    C     0.71860   0.28500   0.83940   0.01267  Uiso   1.00
C71    C     0.77720   0.21720   0.82960   0.01267  Uiso   1.00
C72    C     0.44760   0.35560   0.86191   0.01267  Uiso   1.00
C73    C     0.04220   0.84660   0.75000   0.01267  Uiso   1.00
C74    C     0.13600   0.78480   0.75000   0.01267  Uiso   1.00
C75    C     0.02900   0.71300   0.75000   0.01267  Uiso   1.00
C76    C     0.82870   0.70680   0.75000   0.01267  Uiso   1.00
C77    C     0.74820   0.77110   0.75000   0.01267  Uiso   1.00
C78    C     0.13040   0.64530   0.75000   0.01267  Uiso   1.00
C79    C     0.95780   0.15340   0.25000   0.01267  Uiso   1.00
C80    C     0.86400   0.21520   0.25000   0.01267  Uiso   1.00
C81    C     0.97100   0.28700   0.25000   0.01267  Uiso   1.00
C82    C     0.17130   0.29320   0.25000   0.01267  Uiso   1.00
C83    C     0.25180   0.22890   0.25000   0.01267  Uiso   1.00
C84    C     0.86960   0.35470   0.25000   0.01267  Uiso   1.00
I1     I     0.01026   0.02946   0.58993   0.01267  Uiso   1.00
I2     I     0.47629   0.94268   0.67020   0.01267  Uiso   1.00
I3     I     0.98974   0.97054   0.08993   0.01267  Uiso   1.00
I4     I     0.52371   0.05732   0.17020   0.01267  Uiso   1.00
I5     I     0.98974   0.97054   0.41007   0.01267  Uiso   1.00
I6     I     0.52371   0.05732   0.32980   0.01267  Uiso   1.00
I7     I     0.01026   0.02946   0.91007   0.01267  Uiso   1.00
I8     I     0.47629   0.94268   0.82980   0.01267  Uiso   1.00
I9     I     0.50000   0.00000   0.50000   0.01267  Uiso   1.00
I10    I     0.50000   0.00000   0.00000   0.01267  Uiso   1.00
I11    I     0.03092   0.05825   0.75000   0.01267  Uiso   1.00
I12    I     0.96908   0.94175   0.25000   0.01267  Uiso   1.00
N1     N     0.12610   0.84864   0.52681   0.01267  Uiso   1.00
N2     N     0.65000   0.82927   0.56288   0.01267  Uiso   1.00
N3     N     0.66230   0.15070   0.66770   0.01267  Uiso   1.00
N4     N     0.87390   0.15136   0.02681   0.01267  Uiso   1.00
N5     N     0.35000   0.17073   0.06288   0.01267  Uiso   1.00
N6     N     0.33770   0.84930   0.16770   0.01267  Uiso   1.00
N7     N     0.87390   0.15136   0.47319   0.01267  Uiso   1.00
N8     N     0.35000   0.17073   0.43712   0.01267  Uiso   1.00
N9     N     0.33770   0.84930   0.33230   0.01267  Uiso   1.00
N10    N     0.12610   0.84864   0.97319   0.01267  Uiso   1.00
N11    N     0.65000   0.82927   0.93712   0.01267  Uiso   1.00
N12    N     0.66230   0.15070   0.83230   0.01267  Uiso   1.00
N13    N     0.85030   0.84060   0.75000   0.01267  Uiso   1.00
N14    N     0.14970   0.15940   0.25000   0.01267  Uiso   1.00
O1     O     0.19950   0.57836   0.53035   0.01267  Uiso   1.00
O2     O     0.16650   0.60512   0.61676   0.01267  Uiso   1.00
O3     O     0.57850   0.54937   0.56285   0.01267  Uiso   1.00
O4     O     0.71030   0.58309   0.48226   0.01267  Uiso   1.00
O5     O     0.56300   0.41606   0.63099   0.01267  Uiso   1.00
O6     O     0.26890   0.35246   0.63596   0.01267  Uiso   1.00
O7     O     0.80050   0.42164   0.03035   0.01267  Uiso   1.00
O8     O     0.83350   0.39488   0.11676   0.01267  Uiso   1.00
O9     O     0.42150   0.45063   0.06285   0.01267  Uiso   1.00
O10    O     0.28970   0.41691   0.98226   0.01267  Uiso   1.00
O11    O     0.43700   0.58394   0.13099   0.01267  Uiso   1.00
O12    O     0.73110   0.64754   0.13596   0.01267  Uiso   1.00
O13    O     0.80050   0.42164   0.46965   0.01267  Uiso   1.00
O14    O     0.83350   0.39488   0.38324   0.01267  Uiso   1.00
O15    O     0.42150   0.45063   0.43715   0.01267  Uiso   1.00
O16    O     0.28970   0.41691   0.51774   0.01267  Uiso   1.00
O17    O     0.43700   0.58394   0.36901   0.01267  Uiso   1.00
O18    O     0.73110   0.64754   0.36404   0.01267  Uiso   1.00
O19    O     0.19950   0.57836   0.96965   0.01267  Uiso   1.00
O20    O     0.16650   0.60512   0.88324   0.01267  Uiso   1.00
O21    O     0.57850   0.54937   0.93715   0.01267  Uiso   1.00
O22    O     0.71030   0.58309   0.01774   0.01267  Uiso   1.00
O23    O     0.56300   0.41606   0.86901   0.01267  Uiso   1.00
O24    O     0.26890   0.35246   0.86404   0.01267  Uiso   1.00
O25    O     0.31040   0.65620   0.75000   0.01267  Uiso   1.00
O26    O     0.02260   0.58170   0.75000   0.01267  Uiso   1.00
O27    O     0.68960   0.34380   0.25000   0.01267  Uiso   1.00
O28    O     0.97740   0.41830   0.25000   0.01267  Uiso   1.00
