data_image0
_cell_length_a       8.701
_cell_length_b       9.21
_cell_length_c       12.385
_cell_angle_alpha    111.11
_cell_angle_beta     101.42
_cell_angle_gamma    102.08

_symmetry_space_group_name_H-M    "P 1"
_symmetry_int_tables_number       1

loop_
  _symmetry_equiv_pos_as_xyz
  'x, y, z'

loop_
  _atom_site_label
  _atom_site_occupancy
  _atom_site_fract_x
  _atom_site_fract_y
  _atom_site_fract_z
  _atom_site_thermal_displace_type
  _atom_site_B_iso_or_equiv
  _atom_site_type_symbol
  Al1      1.0000 0.69850  0.20960  0.62410  Biso   1.000  Al
  Al2      1.0000 0.64940  0.78230  0.14430  Biso   1.000  Al
  Al3      1.0000 0.98020  0.66940  0.94280  Biso   1.000  Al
  Al4      1.0000 0.50510  0.20670  0.14620  Biso   1.000  Al
  P1       1.0000 0.59900  0.48400  0.80110  Biso   1.000  P
  P2       1.0000 0.55710  0.05490  0.34330  Biso   1.000  P
  P3       1.0000 0.77940  0.05170  0.06780  Biso   1.000  P
  P4       1.0000 0.03630  0.34320  0.81930  Biso   1.000  P
  O1       1.0000 0.67320  0.15990  0.47230  Biso   1.000  O
  O2       1.0000 0.51640  0.16430  0.28350  Biso   1.000  O
  O3       1.0000 0.90940  0.25940  0.69350  Biso   1.000  O
  O4       1.0000 0.51160  0.74810  0.99840  Biso   1.000  O
  O5       1.0000 0.63670  0.93480  0.27680  Biso   1.000  O
  O6       1.0000 0.50850  0.59500  0.77000  Biso   1.000  O
  O7       1.0000 0.51210  0.38620  0.85780  Biso   1.000  O
  O8       1.0000 0.39470  0.96010  0.35400  Biso   1.000  O
  O9       1.0000 0.62340  0.37120  0.68400  Biso   1.000  O
  O10      1.0000 0.07150  0.52840  0.86780  Biso   1.000  O
  O11      1.0000 0.76950  0.59180  0.89030  Biso   1.000  O
  O12      1.0000 0.19450  0.30430  0.81300  Biso   1.000  O
  O13      1.0000 0.69280  0.16520  0.13470  Biso   1.000  O
  O14      1.0000 0.95040  0.15570  0.07870  Biso   1.000  O
  O15      1.0000 0.80950  0.93440  0.12420  Biso   1.000  O
  O16      1.0000 0.68360  0.95820  0.93290  Biso   1.000  O
  O17      1.0000 0.95800  0.28310  0.90260  Biso   1.000  O
  Al5      1.0000 0.30150  0.79040  0.37590  Biso   1.000  Al
  Al6      1.0000 0.35060  0.21770  0.85570  Biso   1.000  Al
  Al7      1.0000 0.01980  0.33060  0.05720  Biso   1.000  Al
  Al8      1.0000 0.49490  0.79330  0.85380  Biso   1.000  Al
  P5       1.0000 0.40100  0.51600  0.19890  Biso   1.000  P
  P6       1.0000 0.44290  0.94510  0.65670  Biso   1.000  P
  P7       1.0000 0.22060  0.94830  0.93220  Biso   1.000  P
  P8       1.0000 0.96370  0.65680  0.18070  Biso   1.000  P
  O18      1.0000 0.32680  0.84010  0.52770  Biso   1.000  O
  O19      1.0000 0.48360  0.83570  0.71650  Biso   1.000  O
  O20      1.0000 0.09060  0.74060  0.30650  Biso   1.000  O
  O21      1.0000 0.48840  0.25190  0.00160  Biso   1.000  O
  O22      1.0000 0.36330  0.06520  0.72320  Biso   1.000  O
  O23      1.0000 0.49150  0.40500  0.23000  Biso   1.000  O
  O24      1.0000 0.48790  0.61380  0.14220  Biso   1.000  O
  O25      1.0000 0.60530  0.03990  0.64600  Biso   1.000  O
  O26      1.0000 0.37660  0.62880  0.31600  Biso   1.000  O
  O27      1.0000 0.92850  0.47160  0.13220  Biso   1.000  O
  O28      1.0000 0.23050  0.40820  0.10970  Biso   1.000  O
  O29      1.0000 0.80550  0.69570  0.18700  Biso   1.000  O
  O30      1.0000 0.30720  0.83480  0.86530  Biso   1.000  O
  O31      1.0000 0.04960  0.84430  0.92130  Biso   1.000  O
  O32      1.0000 0.19050  0.06560  0.87580  Biso   1.000  O
  O33      1.0000 0.31640  0.04180  0.06710  Biso   1.000  O
  O34      1.0000 0.04200  0.71690  0.09740  Biso   1.000  O
