data_image0
_cell_length_a       9.6448
_cell_length_b       8.877
_cell_length_c       14.813
_cell_angle_alpha    90
_cell_angle_beta     91.936
_cell_angle_gamma    90

_symmetry_space_group_name_H-M    "P 1"
_symmetry_int_tables_number       1

loop_
  _symmetry_equiv_pos_as_xyz
  'x, y, z'

loop_
  _atom_site_label
  _atom_site_occupancy
  _atom_site_fract_x
  _atom_site_fract_y
  _atom_site_fract_z
  _atom_site_thermal_displace_type
  _atom_site_B_iso_or_equiv
  _atom_site_type_symbol
  V1       1.0000 0.93550  0.99790  0.15130  Biso   1.000  V
  V2       1.0000 0.16850  0.49980  0.89320  Biso   1.000  V
  P1       1.0000 0.00800  0.74730  0.00470  Biso   1.000  P
  O1       1.0000 0.04690  0.83830  0.08820  Biso   1.000  O
  O2       1.0000 0.13570  0.64960  0.98330  Biso   1.000  O
  O3       1.0000 0.96510  0.84270  0.92220  Biso   1.000  O
  O4       1.0000 0.88180  0.84550  0.24370  Biso   1.000  O
  O5       1.0000 0.88030  0.16070  0.23830  Biso   1.000  O
  O6       1.0000 0.72900  0.65020  0.16540  Biso   1.000  O
  O7       1.0000 0.72030  0.35520  0.16620  Biso   1.000  O
  O8       1.0000 0.88140  0.64390  0.01980  Biso   1.000  O
  O9       1.0000 0.12140  0.01100  0.24010  Biso   1.000  O
  O10      1.0000 0.25940  0.21140  0.16590  Biso   1.000  O
  V3       1.0000 0.56450  0.99790  0.34870  Biso   1.000  V
  V4       1.0000 0.33150  0.49980  0.60680  Biso   1.000  V
  P2       1.0000 0.49200  0.74730  0.49530  Biso   1.000  P
  O11      1.0000 0.45310  0.83830  0.41180  Biso   1.000  O
  O12      1.0000 0.36430  0.64960  0.51670  Biso   1.000  O
  O13      1.0000 0.53490  0.84270  0.57780  Biso   1.000  O
  O14      1.0000 0.61820  0.84550  0.25630  Biso   1.000  O
  O15      1.0000 0.61970  0.16070  0.26170  Biso   1.000  O
  O16      1.0000 0.77100  0.65020  0.33460  Biso   1.000  O
  O17      1.0000 0.77970  0.35520  0.33380  Biso   1.000  O
  O18      1.0000 0.61860  0.64390  0.48020  Biso   1.000  O
  O19      1.0000 0.37860  0.01100  0.25990  Biso   1.000  O
  O20      1.0000 0.24060  0.21140  0.33410  Biso   1.000  O
  V5       1.0000 0.06450  0.00210  0.84870  Biso   1.000  V
  V6       1.0000 0.83150  0.50020  0.10680  Biso   1.000  V
  P3       1.0000 0.99200  0.25270  0.99530  Biso   1.000  P
  O21      1.0000 0.95310  0.16170  0.91180  Biso   1.000  O
  O22      1.0000 0.86430  0.35040  0.01670  Biso   1.000  O
  O23      1.0000 0.03490  0.15730  0.07780  Biso   1.000  O
  O24      1.0000 0.11820  0.15450  0.75630  Biso   1.000  O
  O25      1.0000 0.11970  0.83930  0.76170  Biso   1.000  O
  O26      1.0000 0.27100  0.34980  0.83460  Biso   1.000  O
  O27      1.0000 0.27970  0.64480  0.83380  Biso   1.000  O
  O28      1.0000 0.11860  0.35610  0.98020  Biso   1.000  O
  O29      1.0000 0.87860  0.98900  0.75990  Biso   1.000  O
  O30      1.0000 0.74060  0.78860  0.83410  Biso   1.000  O
  V7       1.0000 0.43550  0.00210  0.65130  Biso   1.000  V
  V8       1.0000 0.66850  0.50020  0.39320  Biso   1.000  V
  P4       1.0000 0.50800  0.25270  0.50470  Biso   1.000  P
  O31      1.0000 0.54690  0.16170  0.58820  Biso   1.000  O
  O32      1.0000 0.63570  0.35040  0.48330  Biso   1.000  O
  O33      1.0000 0.46510  0.15730  0.42220  Biso   1.000  O
  O34      1.0000 0.38180  0.15450  0.74370  Biso   1.000  O
  O35      1.0000 0.38030  0.83930  0.73830  Biso   1.000  O
  O36      1.0000 0.22900  0.34980  0.66540  Biso   1.000  O
  O37      1.0000 0.22030  0.64480  0.66620  Biso   1.000  O
  O38      1.0000 0.38140  0.35610  0.51980  Biso   1.000  O
  O39      1.0000 0.62140  0.98900  0.74010  Biso   1.000  O
  O40      1.0000 0.75940  0.78860  0.66590  Biso   1.000  O
  P5       1.0000 0.75000  0.25310  0.25000  Biso   1.000  P
  P6       1.0000 0.75000  0.75230  0.25000  Biso   1.000  P
  P7       1.0000 0.25000  0.74690  0.75000  Biso   1.000  P
  P8       1.0000 0.25000  0.24770  0.75000  Biso   1.000  P
  P9       1.0000 0.25000  0.10460  0.25000  Biso   1.000  P
  P10      1.0000 0.75000  0.89540  0.75000  Biso   1.000  P
