data_image0
_cell_length_a       16.0517
_cell_length_b       16.0517
_cell_length_c       42.8082
_cell_angle_alpha    90
_cell_angle_beta     90
_cell_angle_gamma    120

_symmetry_space_group_name_H-M    "P 1"
_symmetry_int_tables_number       1

loop_
  _symmetry_equiv_pos_as_xyz
  'x, y, z'

loop_
  _atom_site_label
  _atom_site_occupancy
  _atom_site_fract_x
  _atom_site_fract_y
  _atom_site_fract_z
  _atom_site_thermal_displace_type
  _atom_site_B_iso_or_equiv
  _atom_site_type_symbol
  Mo1      1.0000 0.55098  0.68363  0.03602  Biso   1.000  Mo
  O1       1.0000 0.40160  0.54680  0.05006  Biso   1.000  O
  O2       1.0000 0.58020  0.61720  0.07721  Biso   1.000  O
  O3       1.0000 0.49150  0.72270  0.06753  Biso   1.000  O
  O4       1.0000 0.58820  0.59310  0.02009  Biso   1.000  O
  P1       1.0000 0.38020  0.44340  0.05502  Biso   1.000  P
  Mo2      1.0000 0.60774  0.50958  0.04626  Biso   1.000  Mo
  O5       1.0000 0.44620  0.42210  0.03731  Biso   1.000  O
  O6       1.0000 0.27440  0.37130  0.04480  Biso   1.000  O
  O7       1.0000 0.61850  0.43470  0.01937  Biso   1.000  O
  C1       1.0000 0.22490  0.39790  0.02330  Biso   1.000  C
  C2       1.0000 0.11600  0.31750  0.02460  Biso   1.000  C
  H1       1.0000 0.25080  0.40280  0.00190  Biso   1.000  H
  H2       1.0000 0.23240  0.46100  0.02910  Biso   1.000  H
  O8       1.0000 0.10190  0.22590  0.01515  Biso   1.000  O
  C3       1.0000 0.07820  0.30640  0.05700  Biso   1.000  C
  H3       1.0000 0.07810  0.33580  0.01040  Biso   1.000  H
  C4       1.0000 0.05930  0.15630  0.03940  Biso   1.000  C
  O9       1.0000 0.97770  0.28340  0.05610  Biso   1.000  O
  C5       1.0000 0.08030  0.22130  0.06880  Biso   1.000  C
  H4       1.0000 0.11880  0.36480  0.06990  Biso   1.000  H
  N1       1.0000 0.10300  0.09680  0.03857  Biso   1.000  N
  H5       1.0000 0.98830  0.11620  0.03600  Biso   1.000  H
  H6       1.0000 0.96230  0.32360  0.04410  Biso   1.000  H
  O10      1.0000 0.01030  0.16930  0.09272  Biso   1.000  O
  H7       1.0000 0.14610  0.24130  0.07690  Biso   1.000  H
  C6       1.0000 0.19800  0.12730  0.03720  Biso   1.000  C
  C7       1.0000 0.05410  0.00030  0.04190  Biso   1.000  C
  H8       1.0000 0.02470  0.14420  0.11070  Biso   1.000  H
  N2       1.0000 0.21310  0.05750  0.03700  Biso   1.000  N
  H9       1.0000 0.24710  0.19290  0.03660  Biso   1.000  H
  N3       1.0000 0.95690  0.94160  0.04522  Biso   1.000  N
  C8       1.0000 0.12460  0.97370  0.04060  Biso   1.000  C
  H10      1.0000 0.26930  0.06100  0.03490  Biso   1.000  H
  C9       1.0000 0.93390  0.85120  0.04880  Biso   1.000  C
  C10      1.0000 0.10570  0.87680  0.04280  Biso   1.000  C
  N4       1.0000 0.00360  0.81480  0.04880  Biso   1.000  N
  N5       1.0000 0.83980  0.78370  0.05320  Biso   1.000  N
  O11      1.0000 0.15960  0.84370  0.04200  Biso   1.000  O
  H11      1.0000 0.98170  0.75340  0.05260  Biso   1.000  H
  H12      1.0000 0.79570  0.80100  0.05360  Biso   1.000  H
  H13      1.0000 0.82310  0.72290  0.05560  Biso   1.000  H
  O12      1.0000 0.18510  0.74980  0.99540  Biso   1.000  O
  Na1      1.0000 0.32590  0.72180  0.99840  Biso   1.000  Na
  Na2      1.0000 0.06400  0.68500  0.01480  Biso   1.000  Na
  Na3      1.0000 0.97600  0.45570  0.04090  Biso   1.000  Na
  Mo3      1.0000 0.31637  0.86735  0.70269  Biso   1.000  Mo
  O13      1.0000 0.45320  0.85480  0.71673  Biso   1.000  O
  O14      1.0000 0.38280  0.96300  0.74388  Biso   1.000  O
  O15      1.0000 0.27730  0.76880  0.73420  Biso   1.000  O
  O16      1.0000 0.40690  0.99510  0.68676  Biso   1.000  O
  P2       1.0000 0.55660  0.93680  0.72169  Biso   1.000  P
  Mo4      1.0000 0.49042  0.09816  0.71293  Biso   1.000  Mo
  O17      1.0000 0.57790  0.02410  0.70398  Biso   1.000  O
  O18      1.0000 0.62870  0.90310  0.71147  Biso   1.000  O
  O19      1.0000 0.56530  0.18380  0.68604  Biso   1.000  O
  C11      1.0000 0.60210  0.82700  0.68997  Biso   1.000  C
  C12      1.0000 0.68250  0.79850  0.69127  Biso   1.000  C
  H14      1.0000 0.59720  0.84800  0.66857  Biso   1.000  H
  H15      1.0000 0.53900  0.77140  0.69577  Biso   1.000  H
  O20      1.0000 0.77410  0.87600  0.68182  Biso   1.000  O
  C13      1.0000 0.69360  0.77180  0.72367  Biso   1.000  C
  H16      1.0000 0.66420  0.74230  0.67707  Biso   1.000  H
  C14      1.0000 0.84370  0.90300  0.70607  Biso   1.000  C
  O21      1.0000 0.71660  0.69430  0.72277  Biso   1.000  O
  C15      1.0000 0.77870  0.85900  0.73547  Biso   1.000  C
  H17      1.0000 0.63520  0.75400  0.73657  Biso   1.000  H
  N6       1.0000 0.90320  0.00620  0.70524  Biso   1.000  N
  H18      1.0000 0.88380  0.87210  0.70267  Biso   1.000  H
  H19      1.0000 0.67640  0.63870  0.71077  Biso   1.000  H
  O22      1.0000 0.83070  0.84100  0.75939  Biso   1.000  O
  H20      1.0000 0.75870  0.90480  0.74357  Biso   1.000  H
  C16      1.0000 0.87270  0.07070  0.70387  Biso   1.000  C
  C17      1.0000 0.99970  0.05380  0.70857  Biso   1.000  C
  H21      1.0000 0.85580  0.88050  0.77737  Biso   1.000  H
  N7       1.0000 0.94250  0.15560  0.70367  Biso   1.000  N
  H22      1.0000 0.80710  0.05420  0.70327  Biso   1.000  H
  N8       1.0000 0.05840  0.01530  0.71189  Biso   1.000  N
  C18      1.0000 0.02630  0.15090  0.70727  Biso   1.000  C
  H23      1.0000 0.93900  0.20830  0.70157  Biso   1.000  H
  C19      1.0000 0.14880  0.08270  0.71547  Biso   1.000  C
  C20      1.0000 0.12320  0.22890  0.70947  Biso   1.000  C
  N9       1.0000 0.18520  0.18880  0.71547  Biso   1.000  N
  N10      1.0000 0.21630  0.05610  0.71987  Biso   1.000  N
  O23      1.0000 0.15630  0.31590  0.70867  Biso   1.000  O
  H24      1.0000 0.24660  0.22830  0.71927  Biso   1.000  H
  H25      1.0000 0.19900  0.99470  0.72027  Biso   1.000  H
  H26      1.0000 0.27710  0.10020  0.72227  Biso   1.000  H
  O24      1.0000 0.25020  0.43530  0.66207  Biso   1.000  O
  Na4      1.0000 0.27820  0.60410  0.66507  Biso   1.000  Na
  Na5      1.0000 0.31500  0.37900  0.68147  Biso   1.000  Na
  Na6      1.0000 0.54430  0.52030  0.70757  Biso   1.000  Na
  Mo5      1.0000 0.13265  0.44902  0.36935  Biso   1.000  Mo
  O25      1.0000 0.14520  0.59840  0.38339  Biso   1.000  O
  O26      1.0000 0.03700  0.41980  0.41054  Biso   1.000  O
  O27      1.0000 0.23120  0.50850  0.40086  Biso   1.000  O
  O28      1.0000 0.00490  0.41180  0.35342  Biso   1.000  O
  P3       1.0000 0.06320  0.61980  0.38835  Biso   1.000  P
  Mo6      1.0000 0.90184  0.39226  0.37959  Biso   1.000  Mo
  O29      1.0000 0.97590  0.55380  0.37064  Biso   1.000  O
  O30      1.0000 0.09690  0.72560  0.37813  Biso   1.000  O
  O31      1.0000 0.81620  0.38150  0.35270  Biso   1.000  O
  C21      1.0000 0.17300  0.77510  0.35663  Biso   1.000  C
  C22      1.0000 0.20150  0.88400  0.35793  Biso   1.000  C
  H27      1.0000 0.15200  0.74920  0.33523  Biso   1.000  H
  H28      1.0000 0.22860  0.76760  0.36243  Biso   1.000  H
  O32      1.0000 0.12400  0.89810  0.34848  Biso   1.000  O
  C23      1.0000 0.22820  0.92180  0.39033  Biso   1.000  C
  H29      1.0000 0.25770  0.92190  0.34373  Biso   1.000  H
  C24      1.0000 0.09700  0.94070  0.37273  Biso   1.000  C
  O33      1.0000 0.30570  0.02230  0.38943  Biso   1.000  O
  C25      1.0000 0.14100  0.91970  0.40213  Biso   1.000  C
  H30      1.0000 0.24600  0.88120  0.40323  Biso   1.000  H
  N11      1.0000 0.99380  0.89700  0.37190  Biso   1.000  N
  H31      1.0000 0.12790  0.01170  0.36933  Biso   1.000  H
  H32      1.0000 0.36130  0.03770  0.37743  Biso   1.000  H
  O34      1.0000 0.15900  0.98970  0.42605  Biso   1.000  O
  H33      1.0000 0.09520  0.85390  0.41023  Biso   1.000  H
  C26      1.0000 0.92930  0.80200  0.37053  Biso   1.000  C
  C27      1.0000 0.94620  0.94590  0.37523  Biso   1.000  C
  H34      1.0000 0.11950  0.97530  0.44403  Biso   1.000  H
  N12      1.0000 0.84440  0.78690  0.37033  Biso   1.000  N
  H35      1.0000 0.94580  0.75290  0.36993  Biso   1.000  H
  N13      1.0000 0.98470  0.04310  0.37855  Biso   1.000  N
  C28      1.0000 0.84910  0.87540  0.37393  Biso   1.000  C
  H36      1.0000 0.79170  0.73070  0.36823  Biso   1.000  H
  C29      1.0000 0.91730  0.06610  0.38213  Biso   1.000  C
  C30      1.0000 0.77110  0.89430  0.37613  Biso   1.000  C
  N14      1.0000 0.81120  0.99640  0.38213  Biso   1.000  N
  N15      1.0000 0.94390  0.16020  0.38653  Biso   1.000  N
  O35      1.0000 0.68410  0.84040  0.37533  Biso   1.000  O
  H37      1.0000 0.77170  0.01830  0.38593  Biso   1.000  H
  H38      1.0000 0.00530  0.20430  0.38693  Biso   1.000  H
  H39      1.0000 0.89980  0.17690  0.38893  Biso   1.000  H
  O36      1.0000 0.56470  0.81490  0.32873  Biso   1.000  O
  Na7      1.0000 0.39590  0.67410  0.33173  Biso   1.000  Na
  Na8      1.0000 0.62100  0.93600  0.34813  Biso   1.000  Na
  Na9      1.0000 0.47970  0.02400  0.37423  Biso   1.000  Na
  Mo7      1.0000 0.44902  0.31637  0.53602  Biso   1.000  Mo
  O37      1.0000 0.59840  0.45320  0.55006  Biso   1.000  O
  O38      1.0000 0.41980  0.38280  0.57721  Biso   1.000  O
  O39      1.0000 0.50850  0.27730  0.56753  Biso   1.000  O
  O40      1.0000 0.41180  0.40690  0.52009  Biso   1.000  O
  P4       1.0000 0.61980  0.55660  0.55502  Biso   1.000  P
  Mo8      1.0000 0.39226  0.49042  0.54626  Biso   1.000  Mo
  O41      1.0000 0.55380  0.57790  0.53731  Biso   1.000  O
  O42      1.0000 0.72560  0.62870  0.54480  Biso   1.000  O
  O43      1.0000 0.38150  0.56530  0.51937  Biso   1.000  O
  C31      1.0000 0.77510  0.60210  0.52330  Biso   1.000  C
  C32      1.0000 0.88400  0.68250  0.52460  Biso   1.000  C
  H40      1.0000 0.74920  0.59720  0.50190  Biso   1.000  H
  H41      1.0000 0.76760  0.53900  0.52910  Biso   1.000  H
  O44      1.0000 0.89810  0.77410  0.51515  Biso   1.000  O
  C33      1.0000 0.92180  0.69360  0.55700  Biso   1.000  C
  H42      1.0000 0.92190  0.66420  0.51040  Biso   1.000  H
  C34      1.0000 0.94070  0.84370  0.53940  Biso   1.000  C
  O45      1.0000 0.02230  0.71660  0.55610  Biso   1.000  O
  C35      1.0000 0.91970  0.77870  0.56880  Biso   1.000  C
  H43      1.0000 0.88120  0.63520  0.56990  Biso   1.000  H
  N16      1.0000 0.89700  0.90320  0.53857  Biso   1.000  N
  H44      1.0000 0.01170  0.88380  0.53600  Biso   1.000  H
  H45      1.0000 0.03770  0.67640  0.54410  Biso   1.000  H
  O46      1.0000 0.98970  0.83070  0.59272  Biso   1.000  O
  H46      1.0000 0.85390  0.75870  0.57690  Biso   1.000  H
  C36      1.0000 0.80200  0.87270  0.53720  Biso   1.000  C
  C37      1.0000 0.94590  0.99970  0.54190  Biso   1.000  C
  H47      1.0000 0.97530  0.85580  0.61070  Biso   1.000  H
  N17      1.0000 0.78690  0.94250  0.53700  Biso   1.000  N
  H48      1.0000 0.75290  0.80710  0.53660  Biso   1.000  H
  N18      1.0000 0.04310  0.05840  0.54522  Biso   1.000  N
  C38      1.0000 0.87540  0.02630  0.54060  Biso   1.000  C
  H49      1.0000 0.73070  0.93900  0.53490  Biso   1.000  H
  C39      1.0000 0.06610  0.14880  0.54880  Biso   1.000  C
  C40      1.0000 0.89430  0.12320  0.54280  Biso   1.000  C
  N19      1.0000 0.99640  0.18520  0.54880  Biso   1.000  N
  N20      1.0000 0.16020  0.21630  0.55320  Biso   1.000  N
  O47      1.0000 0.84040  0.15630  0.54200  Biso   1.000  O
  H50      1.0000 0.01830  0.24660  0.55260  Biso   1.000  H
  H51      1.0000 0.20430  0.19900  0.55360  Biso   1.000  H
  H52      1.0000 0.17690  0.27710  0.55560  Biso   1.000  H
  O48      1.0000 0.81490  0.25020  0.49540  Biso   1.000  O
  Na10     1.0000 0.67410  0.27820  0.49840  Biso   1.000  Na
  Na11     1.0000 0.93600  0.31500  0.51480  Biso   1.000  Na
  Na12     1.0000 0.02400  0.54430  0.54090  Biso   1.000  Na
  Mo9      1.0000 0.68363  0.13265  0.20269  Biso   1.000  Mo
  O49      1.0000 0.54680  0.14520  0.21673  Biso   1.000  O
  O50      1.0000 0.61720  0.03700  0.24388  Biso   1.000  O
  O51      1.0000 0.72270  0.23120  0.23420  Biso   1.000  O
  O52      1.0000 0.59310  0.00490  0.18676  Biso   1.000  O
  P5       1.0000 0.44340  0.06320  0.22169  Biso   1.000  P
  Mo10     1.0000 0.50958  0.90184  0.21293  Biso   1.000  Mo
  O53      1.0000 0.42210  0.97590  0.20398  Biso   1.000  O
  O54      1.0000 0.37130  0.09690  0.21147  Biso   1.000  O
  O55      1.0000 0.43470  0.81620  0.18604  Biso   1.000  O
  C41      1.0000 0.39790  0.17300  0.18997  Biso   1.000  C
  C42      1.0000 0.31750  0.20150  0.19127  Biso   1.000  C
  H53      1.0000 0.40280  0.15200  0.16857  Biso   1.000  H
  H54      1.0000 0.46100  0.22860  0.19577  Biso   1.000  H
  O56      1.0000 0.22590  0.12400  0.18182  Biso   1.000  O
  C43      1.0000 0.30640  0.22820  0.22367  Biso   1.000  C
  H55      1.0000 0.33580  0.25770  0.17707  Biso   1.000  H
  C44      1.0000 0.15630  0.09700  0.20607  Biso   1.000  C
  O57      1.0000 0.28340  0.30570  0.22277  Biso   1.000  O
  C45      1.0000 0.22130  0.14100  0.23547  Biso   1.000  C
  H56      1.0000 0.36480  0.24600  0.23657  Biso   1.000  H
  N21      1.0000 0.09680  0.99380  0.20524  Biso   1.000  N
  H57      1.0000 0.11620  0.12790  0.20267  Biso   1.000  H
  H58      1.0000 0.32360  0.36130  0.21077  Biso   1.000  H
  O58      1.0000 0.16930  0.15900  0.25939  Biso   1.000  O
  H59      1.0000 0.24130  0.09520  0.24357  Biso   1.000  H
  C46      1.0000 0.12730  0.92930  0.20387  Biso   1.000  C
  C47      1.0000 0.00030  0.94620  0.20857  Biso   1.000  C
  H60      1.0000 0.14420  0.11950  0.27737  Biso   1.000  H
  N22      1.0000 0.05750  0.84440  0.20367  Biso   1.000  N
  H61      1.0000 0.19290  0.94580  0.20327  Biso   1.000  H
  N23      1.0000 0.94160  0.98470  0.21189  Biso   1.000  N
  C48      1.0000 0.97370  0.84910  0.20727  Biso   1.000  C
  H62      1.0000 0.06100  0.79170  0.20157  Biso   1.000  H
  C49      1.0000 0.85120  0.91730  0.21547  Biso   1.000  C
  C50      1.0000 0.87680  0.77110  0.20947  Biso   1.000  C
  N24      1.0000 0.81480  0.81120  0.21547  Biso   1.000  N
  N25      1.0000 0.78370  0.94390  0.21987  Biso   1.000  N
  O59      1.0000 0.84370  0.68410  0.20867  Biso   1.000  O
  H63      1.0000 0.75340  0.77170  0.21927  Biso   1.000  H
  H64      1.0000 0.80100  0.00530  0.22027  Biso   1.000  H
  H65      1.0000 0.72290  0.89980  0.22227  Biso   1.000  H
  O60      1.0000 0.74980  0.56470  0.16207  Biso   1.000  O
  Na13     1.0000 0.72180  0.39590  0.16507  Biso   1.000  Na
  Na14     1.0000 0.68500  0.62100  0.18147  Biso   1.000  Na
  Na15     1.0000 0.45570  0.47970  0.20757  Biso   1.000  Na
  Mo11     1.0000 0.86735  0.55098  0.86935  Biso   1.000  Mo
  O61      1.0000 0.85480  0.40160  0.88339  Biso   1.000  O
  O62      1.0000 0.96300  0.58020  0.91054  Biso   1.000  O
  O63      1.0000 0.76880  0.49150  0.90086  Biso   1.000  O
  O64      1.0000 0.99510  0.58820  0.85342  Biso   1.000  O
  P6       1.0000 0.93680  0.38020  0.88835  Biso   1.000  P
  Mo12     1.0000 0.09816  0.60774  0.87959  Biso   1.000  Mo
  O65      1.0000 0.02410  0.44620  0.87064  Biso   1.000  O
  O66      1.0000 0.90310  0.27440  0.87813  Biso   1.000  O
  O67      1.0000 0.18380  0.61850  0.85270  Biso   1.000  O
  C51      1.0000 0.82700  0.22490  0.85663  Biso   1.000  C
  C52      1.0000 0.79850  0.11600  0.85793  Biso   1.000  C
  H66      1.0000 0.84800  0.25080  0.83523  Biso   1.000  H
  H67      1.0000 0.77140  0.23240  0.86243  Biso   1.000  H
  O68      1.0000 0.87600  0.10190  0.84848  Biso   1.000  O
  C53      1.0000 0.77180  0.07820  0.89033  Biso   1.000  C
  H68      1.0000 0.74230  0.07810  0.84373  Biso   1.000  H
  C54      1.0000 0.90300  0.05930  0.87273  Biso   1.000  C
  O69      1.0000 0.69430  0.97770  0.88943  Biso   1.000  O
  C55      1.0000 0.85900  0.08030  0.90213  Biso   1.000  C
  H69      1.0000 0.75400  0.11880  0.90323  Biso   1.000  H
  N26      1.0000 0.00620  0.10300  0.87190  Biso   1.000  N
  H70      1.0000 0.87210  0.98830  0.86933  Biso   1.000  H
  H71      1.0000 0.63870  0.96230  0.87743  Biso   1.000  H
  O70      1.0000 0.84100  0.01030  0.92605  Biso   1.000  O
  H72      1.0000 0.90480  0.14610  0.91023  Biso   1.000  H
  C56      1.0000 0.07070  0.19800  0.87053  Biso   1.000  C
  C57      1.0000 0.05380  0.05410  0.87523  Biso   1.000  C
  H73      1.0000 0.88050  0.02470  0.94403  Biso   1.000  H
  N27      1.0000 0.15560  0.21310  0.87033  Biso   1.000  N
  H74      1.0000 0.05420  0.24710  0.86993  Biso   1.000  H
  N28      1.0000 0.01530  0.95690  0.87855  Biso   1.000  N
  C58      1.0000 0.15090  0.12460  0.87393  Biso   1.000  C
  H75      1.0000 0.20830  0.26930  0.86823  Biso   1.000  H
  C59      1.0000 0.08270  0.93390  0.88213  Biso   1.000  C
  C60      1.0000 0.22890  0.10570  0.87613  Biso   1.000  C
  N29      1.0000 0.18880  0.00360  0.88213  Biso   1.000  N
  N30      1.0000 0.05610  0.83980  0.88653  Biso   1.000  N
  O71      1.0000 0.31590  0.15960  0.87533  Biso   1.000  O
  H76      1.0000 0.22830  0.98170  0.88593  Biso   1.000  H
  H77      1.0000 0.99470  0.79570  0.88693  Biso   1.000  H
  H78      1.0000 0.10020  0.82310  0.88893  Biso   1.000  H
  O72      1.0000 0.43530  0.18510  0.82873  Biso   1.000  O
  Na16     1.0000 0.60410  0.32590  0.83173  Biso   1.000  Na
  Na17     1.0000 0.37900  0.06400  0.84813  Biso   1.000  Na
  Na18     1.0000 0.52030  0.97600  0.87423  Biso   1.000  Na
  Mo13     1.0000 0.68363  0.55098  0.63065  Biso   1.000  Mo
  O73      1.0000 0.54680  0.40160  0.61661  Biso   1.000  O
  O74      1.0000 0.61720  0.58020  0.58946  Biso   1.000  O
  O75      1.0000 0.72270  0.49150  0.59914  Biso   1.000  O
  O76      1.0000 0.59310  0.58820  0.64658  Biso   1.000  O
  P7       1.0000 0.44340  0.38020  0.61165  Biso   1.000  P
  Mo14     1.0000 0.50958  0.60774  0.62041  Biso   1.000  Mo
  O77      1.0000 0.42210  0.44620  0.62936  Biso   1.000  O
  O78      1.0000 0.37130  0.27440  0.62187  Biso   1.000  O
  O79      1.0000 0.43470  0.61850  0.64730  Biso   1.000  O
  C61      1.0000 0.39790  0.22490  0.64337  Biso   1.000  C
  C62      1.0000 0.31750  0.11600  0.64207  Biso   1.000  C
  H79      1.0000 0.40280  0.25080  0.66477  Biso   1.000  H
  H80      1.0000 0.46100  0.23240  0.63757  Biso   1.000  H
  O80      1.0000 0.22590  0.10190  0.65152  Biso   1.000  O
  C63      1.0000 0.30640  0.07820  0.60967  Biso   1.000  C
  H81      1.0000 0.33580  0.07810  0.65627  Biso   1.000  H
  C64      1.0000 0.15630  0.05930  0.62727  Biso   1.000  C
  O81      1.0000 0.28340  0.97770  0.61057  Biso   1.000  O
  C65      1.0000 0.22130  0.08030  0.59787  Biso   1.000  C
  H82      1.0000 0.36480  0.11880  0.59677  Biso   1.000  H
  N31      1.0000 0.09680  0.10300  0.62810  Biso   1.000  N
  H83      1.0000 0.11620  0.98830  0.63067  Biso   1.000  H
  H84      1.0000 0.32360  0.96230  0.62257  Biso   1.000  H
  O82      1.0000 0.16930  0.01030  0.57395  Biso   1.000  O
  H85      1.0000 0.24130  0.14610  0.58977  Biso   1.000  H
  C66      1.0000 0.12730  0.19800  0.62947  Biso   1.000  C
  C67      1.0000 0.00030  0.05410  0.62477  Biso   1.000  C
  H86      1.0000 0.14420  0.02470  0.55597  Biso   1.000  H
  N32      1.0000 0.05750  0.21310  0.62967  Biso   1.000  N
  H87      1.0000 0.19290  0.24710  0.63007  Biso   1.000  H
  N33      1.0000 0.94160  0.95690  0.62145  Biso   1.000  N
  C68      1.0000 0.97370  0.12460  0.62607  Biso   1.000  C
  H88      1.0000 0.06100  0.26930  0.63177  Biso   1.000  H
  C69      1.0000 0.85120  0.93390  0.61787  Biso   1.000  C
  C70      1.0000 0.87680  0.10570  0.62387  Biso   1.000  C
  N34      1.0000 0.81480  0.00360  0.61787  Biso   1.000  N
  N35      1.0000 0.78370  0.83980  0.61347  Biso   1.000  N
  O83      1.0000 0.84370  0.15960  0.62467  Biso   1.000  O
  H89      1.0000 0.75340  0.98170  0.61407  Biso   1.000  H
  H90      1.0000 0.80100  0.79570  0.61307  Biso   1.000  H
  H91      1.0000 0.72290  0.82310  0.61107  Biso   1.000  H
  O84      1.0000 0.74980  0.18510  0.67127  Biso   1.000  O
  Na19     1.0000 0.72180  0.32590  0.66827  Biso   1.000  Na
  Na20     1.0000 0.68500  0.06400  0.65187  Biso   1.000  Na
  Na21     1.0000 0.45570  0.97600  0.62577  Biso   1.000  Na
  Mo15     1.0000 0.86735  0.31637  0.96398  Biso   1.000  Mo
  O85      1.0000 0.85480  0.45320  0.94994  Biso   1.000  O
  O86      1.0000 0.96300  0.38280  0.92279  Biso   1.000  O
  O87      1.0000 0.76880  0.27730  0.93247  Biso   1.000  O
  O88      1.0000 0.99510  0.40690  0.97991  Biso   1.000  O
  P8       1.0000 0.93680  0.55660  0.94498  Biso   1.000  P
  Mo16     1.0000 0.09816  0.49042  0.95374  Biso   1.000  Mo
  O89      1.0000 0.02410  0.57790  0.96269  Biso   1.000  O
  O90      1.0000 0.90310  0.62870  0.95520  Biso   1.000  O
  O91      1.0000 0.18380  0.56530  0.98063  Biso   1.000  O
  C71      1.0000 0.82700  0.60210  0.97670  Biso   1.000  C
  C72      1.0000 0.79850  0.68250  0.97540  Biso   1.000  C
  H92      1.0000 0.84800  0.59720  0.99810  Biso   1.000  H
  H93      1.0000 0.77140  0.53900  0.97090  Biso   1.000  H
  O92      1.0000 0.87600  0.77410  0.98485  Biso   1.000  O
  C73      1.0000 0.77180  0.69360  0.94300  Biso   1.000  C
  H94      1.0000 0.74230  0.66420  0.98960  Biso   1.000  H
  C74      1.0000 0.90300  0.84370  0.96060  Biso   1.000  C
  O93      1.0000 0.69430  0.71660  0.94390  Biso   1.000  O
  C75      1.0000 0.85900  0.77870  0.93120  Biso   1.000  C
  H95      1.0000 0.75400  0.63520  0.93010  Biso   1.000  H
  N36      1.0000 0.00620  0.90320  0.96143  Biso   1.000  N
  H96      1.0000 0.87210  0.88380  0.96400  Biso   1.000  H
  H97      1.0000 0.63870  0.67640  0.95590  Biso   1.000  H
  O94      1.0000 0.84100  0.83070  0.90728  Biso   1.000  O
  H98      1.0000 0.90480  0.75870  0.92310  Biso   1.000  H
  C76      1.0000 0.07070  0.87270  0.96280  Biso   1.000  C
  C77      1.0000 0.05380  0.99970  0.95810  Biso   1.000  C
  H99      1.0000 0.88050  0.85580  0.88930  Biso   1.000  H
  N37      1.0000 0.15560  0.94250  0.96300  Biso   1.000  N
  H100     1.0000 0.05420  0.80710  0.96340  Biso   1.000  H
  N38      1.0000 0.01530  0.05840  0.95478  Biso   1.000  N
  C78      1.0000 0.15090  0.02630  0.95940  Biso   1.000  C
  H101     1.0000 0.20830  0.93900  0.96510  Biso   1.000  H
  C79      1.0000 0.08270  0.14880  0.95120  Biso   1.000  C
  C80      1.0000 0.22890  0.12320  0.95720  Biso   1.000  C
  N39      1.0000 0.18880  0.18520  0.95120  Biso   1.000  N
  N40      1.0000 0.05610  0.21630  0.94680  Biso   1.000  N
  O95      1.0000 0.31590  0.15630  0.95800  Biso   1.000  O
  H102     1.0000 0.22830  0.24660  0.94740  Biso   1.000  H
  H103     1.0000 0.99470  0.19900  0.94640  Biso   1.000  H
  H104     1.0000 0.10020  0.27710  0.94440  Biso   1.000  H
  O96      1.0000 0.43530  0.25020  0.00460  Biso   1.000  O
  Na22     1.0000 0.60410  0.27820  0.00160  Biso   1.000  Na
  Na23     1.0000 0.37900  0.31500  0.98520  Biso   1.000  Na
  Na24     1.0000 0.52030  0.54430  0.95910  Biso   1.000  Na
  Mo17     1.0000 0.44902  0.13265  0.29731  Biso   1.000  Mo
  O97      1.0000 0.59840  0.14520  0.28327  Biso   1.000  O
  O98      1.0000 0.41980  0.03700  0.25612  Biso   1.000  O
  O99      1.0000 0.50850  0.23120  0.26580  Biso   1.000  O
  O100     1.0000 0.41180  0.00490  0.31324  Biso   1.000  O
  P9       1.0000 0.61980  0.06320  0.27831  Biso   1.000  P
  Mo18     1.0000 0.39226  0.90184  0.28707  Biso   1.000  Mo
  O101     1.0000 0.55380  0.97590  0.29602  Biso   1.000  O
  O102     1.0000 0.72560  0.09690  0.28853  Biso   1.000  O
  O103     1.0000 0.38150  0.81620  0.31396  Biso   1.000  O
  C81      1.0000 0.77510  0.17300  0.31003  Biso   1.000  C
  C82      1.0000 0.88400  0.20150  0.30873  Biso   1.000  C
  H105     1.0000 0.74920  0.15200  0.33143  Biso   1.000  H
  H106     1.0000 0.76760  0.22860  0.30423  Biso   1.000  H
  O104     1.0000 0.89810  0.12400  0.31818  Biso   1.000  O
  C83      1.0000 0.92180  0.22820  0.27633  Biso   1.000  C
  H107     1.0000 0.92190  0.25770  0.32293  Biso   1.000  H
  C84      1.0000 0.94070  0.09700  0.29393  Biso   1.000  C
  O105     1.0000 0.02230  0.30570  0.27723  Biso   1.000  O
  C85      1.0000 0.91970  0.14100  0.26453  Biso   1.000  C
  H108     1.0000 0.88120  0.24600  0.26343  Biso   1.000  H
  N41      1.0000 0.89700  0.99380  0.29476  Biso   1.000  N
  H109     1.0000 0.01170  0.12790  0.29733  Biso   1.000  H
  H110     1.0000 0.03770  0.36130  0.28923  Biso   1.000  H
  O106     1.0000 0.98970  0.15900  0.24061  Biso   1.000  O
  H111     1.0000 0.85390  0.09520  0.25643  Biso   1.000  H
  C86      1.0000 0.80200  0.92930  0.29613  Biso   1.000  C
  C87      1.0000 0.94590  0.94620  0.29143  Biso   1.000  C
  H112     1.0000 0.97530  0.11950  0.22263  Biso   1.000  H
  N42      1.0000 0.78690  0.84440  0.29633  Biso   1.000  N
  H113     1.0000 0.75290  0.94580  0.29673  Biso   1.000  H
  N43      1.0000 0.04310  0.98470  0.28811  Biso   1.000  N
  C88      1.0000 0.87540  0.84910  0.29273  Biso   1.000  C
  H114     1.0000 0.73070  0.79170  0.29843  Biso   1.000  H
  C89      1.0000 0.06610  0.91730  0.28453  Biso   1.000  C
  C90      1.0000 0.89430  0.77110  0.29053  Biso   1.000  C
  N44      1.0000 0.99640  0.81120  0.28453  Biso   1.000  N
  N45      1.0000 0.16020  0.94390  0.28013  Biso   1.000  N
  O107     1.0000 0.84040  0.68410  0.29133  Biso   1.000  O
  H115     1.0000 0.01830  0.77170  0.28073  Biso   1.000  H
  H116     1.0000 0.20430  0.00530  0.27973  Biso   1.000  H
  H117     1.0000 0.17690  0.89980  0.27773  Biso   1.000  H
  O108     1.0000 0.81490  0.56470  0.33793  Biso   1.000  O
  Na25     1.0000 0.67410  0.39590  0.33493  Biso   1.000  Na
  Na26     1.0000 0.93600  0.62100  0.31853  Biso   1.000  Na
  Na27     1.0000 0.02400  0.47970  0.29243  Biso   1.000  Na
  Mo19     1.0000 0.31637  0.44902  0.13065  Biso   1.000  Mo
  O109     1.0000 0.45320  0.59840  0.11661  Biso   1.000  O
  O110     1.0000 0.38280  0.41980  0.08946  Biso   1.000  O
  O111     1.0000 0.27730  0.50850  0.09914  Biso   1.000  O
  O112     1.0000 0.40690  0.41180  0.14658  Biso   1.000  O
  P10      1.0000 0.55660  0.61980  0.11165  Biso   1.000  P
  Mo20     1.0000 0.49042  0.39226  0.12041  Biso   1.000  Mo
  O113     1.0000 0.57790  0.55380  0.12936  Biso   1.000  O
  O114     1.0000 0.62870  0.72560  0.12187  Biso   1.000  O
  O115     1.0000 0.56530  0.38150  0.14730  Biso   1.000  O
  C91      1.0000 0.60210  0.77510  0.14337  Biso   1.000  C
  C92      1.0000 0.68250  0.88400  0.14207  Biso   1.000  C
  H118     1.0000 0.59720  0.74920  0.16477  Biso   1.000  H
  H119     1.0000 0.53900  0.76760  0.13757  Biso   1.000  H
  O116     1.0000 0.77410  0.89810  0.15152  Biso   1.000  O
  C93      1.0000 0.69360  0.92180  0.10967  Biso   1.000  C
  H120     1.0000 0.66420  0.92190  0.15627  Biso   1.000  H
  C94      1.0000 0.84370  0.94070  0.12727  Biso   1.000  C
  O117     1.0000 0.71660  0.02230  0.11057  Biso   1.000  O
  C95      1.0000 0.77870  0.91970  0.09787  Biso   1.000  C
  H121     1.0000 0.63520  0.88120  0.09677  Biso   1.000  H
  N46      1.0000 0.90320  0.89700  0.12810  Biso   1.000  N
  H122     1.0000 0.88380  0.01170  0.13067  Biso   1.000  H
  H123     1.0000 0.67640  0.03770  0.12257  Biso   1.000  H
  O118     1.0000 0.83070  0.98970  0.07395  Biso   1.000  O
  H124     1.0000 0.75870  0.85390  0.08977  Biso   1.000  H
  C96      1.0000 0.87270  0.80200  0.12947  Biso   1.000  C
  C97      1.0000 0.99970  0.94590  0.12477  Biso   1.000  C
  H125     1.0000 0.85580  0.97530  0.05597  Biso   1.000  H
  N47      1.0000 0.94250  0.78690  0.12967  Biso   1.000  N
  H126     1.0000 0.80710  0.75290  0.13007  Biso   1.000  H
  N48      1.0000 0.05840  0.04310  0.12145  Biso   1.000  N
  C98      1.0000 0.02630  0.87540  0.12607  Biso   1.000  C
  H127     1.0000 0.93900  0.73070  0.13177  Biso   1.000  H
  C99      1.0000 0.14880  0.06610  0.11787  Biso   1.000  C
  C100     1.0000 0.12320  0.89430  0.12387  Biso   1.000  C
  N49      1.0000 0.18520  0.99640  0.11787  Biso   1.000  N
  N50      1.0000 0.21630  0.16020  0.11347  Biso   1.000  N
  O119     1.0000 0.15630  0.84040  0.12467  Biso   1.000  O
  H128     1.0000 0.24660  0.01830  0.11407  Biso   1.000  H
  H129     1.0000 0.19900  0.20430  0.11307  Biso   1.000  H
  H130     1.0000 0.27710  0.17690  0.11107  Biso   1.000  H
  O120     1.0000 0.25020  0.81490  0.17127  Biso   1.000  O
  Na28     1.0000 0.27820  0.67410  0.16827  Biso   1.000  Na
  Na29     1.0000 0.31500  0.93600  0.15187  Biso   1.000  Na
  Na30     1.0000 0.54430  0.02400  0.12577  Biso   1.000  Na
  Mo21     1.0000 0.13265  0.68363  0.46398  Biso   1.000  Mo
  O121     1.0000 0.14520  0.54680  0.44994  Biso   1.000  O
  O122     1.0000 0.03700  0.61720  0.42279  Biso   1.000  O
  O123     1.0000 0.23120  0.72270  0.43247  Biso   1.000  O
  O124     1.0000 0.00490  0.59310  0.47991  Biso   1.000  O
  P11      1.0000 0.06320  0.44340  0.44498  Biso   1.000  P
  Mo22     1.0000 0.90184  0.50958  0.45374  Biso   1.000  Mo
  O125     1.0000 0.97590  0.42210  0.46269  Biso   1.000  O
  O126     1.0000 0.09690  0.37130  0.45520  Biso   1.000  O
  O127     1.0000 0.81620  0.43470  0.48063  Biso   1.000  O
  C101     1.0000 0.17300  0.39790  0.47670  Biso   1.000  C
  C102     1.0000 0.20150  0.31750  0.47540  Biso   1.000  C
  H131     1.0000 0.15200  0.40280  0.49810  Biso   1.000  H
  H132     1.0000 0.22860  0.46100  0.47090  Biso   1.000  H
  O128     1.0000 0.12400  0.22590  0.48485  Biso   1.000  O
  C103     1.0000 0.22820  0.30640  0.44300  Biso   1.000  C
  H133     1.0000 0.25770  0.33580  0.48960  Biso   1.000  H
  C104     1.0000 0.09700  0.15630  0.46060  Biso   1.000  C
  O129     1.0000 0.30570  0.28340  0.44390  Biso   1.000  O
  C105     1.0000 0.14100  0.22130  0.43120  Biso   1.000  C
  H134     1.0000 0.24600  0.36480  0.43010  Biso   1.000  H
  N51      1.0000 0.99380  0.09680  0.46143  Biso   1.000  N
  H135     1.0000 0.12790  0.11620  0.46400  Biso   1.000  H
  H136     1.0000 0.36130  0.32360  0.45590  Biso   1.000  H
  O130     1.0000 0.15900  0.16930  0.40728  Biso   1.000  O
  H137     1.0000 0.09520  0.24130  0.42310  Biso   1.000  H
  C106     1.0000 0.92930  0.12730  0.46280  Biso   1.000  C
  C107     1.0000 0.94620  0.00030  0.45810  Biso   1.000  C
  H138     1.0000 0.11950  0.14420  0.38930  Biso   1.000  H
  N52      1.0000 0.84440  0.05750  0.46300  Biso   1.000  N
  H139     1.0000 0.94580  0.19290  0.46340  Biso   1.000  H
  N53      1.0000 0.98470  0.94160  0.45478  Biso   1.000  N
  C108     1.0000 0.84910  0.97370  0.45940  Biso   1.000  C
  H140     1.0000 0.79170  0.06100  0.46510  Biso   1.000  H
  C109     1.0000 0.91730  0.85120  0.45120  Biso   1.000  C
  C110     1.0000 0.77110  0.87680  0.45720  Biso   1.000  C
  N54      1.0000 0.81120  0.81480  0.45120  Biso   1.000  N
  N55      1.0000 0.94390  0.78370  0.44680  Biso   1.000  N
  O131     1.0000 0.68410  0.84370  0.45800  Biso   1.000  O
  H141     1.0000 0.77170  0.75340  0.44740  Biso   1.000  H
  H142     1.0000 0.00530  0.80100  0.44640  Biso   1.000  H
  H143     1.0000 0.89980  0.72290  0.44440  Biso   1.000  H
  O132     1.0000 0.56470  0.74980  0.50460  Biso   1.000  O
  Na31     1.0000 0.39590  0.72180  0.50160  Biso   1.000  Na
  Na32     1.0000 0.62100  0.68500  0.48520  Biso   1.000  Na
  Na33     1.0000 0.47970  0.45570  0.45910  Biso   1.000  Na
  Mo23     1.0000 0.55098  0.86735  0.79731  Biso   1.000  Mo
  O133     1.0000 0.40160  0.85480  0.78327  Biso   1.000  O
  O134     1.0000 0.58020  0.96300  0.75612  Biso   1.000  O
  O135     1.0000 0.49150  0.76880  0.76580  Biso   1.000  O
  O136     1.0000 0.58820  0.99510  0.81324  Biso   1.000  O
  P12      1.0000 0.38020  0.93680  0.77831  Biso   1.000  P
  Mo24     1.0000 0.60774  0.09816  0.78707  Biso   1.000  Mo
  O137     1.0000 0.44620  0.02410  0.79602  Biso   1.000  O
  O138     1.0000 0.27440  0.90310  0.78853  Biso   1.000  O
  O139     1.0000 0.61850  0.18380  0.81396  Biso   1.000  O
  C111     1.0000 0.22490  0.82700  0.81003  Biso   1.000  C
  C112     1.0000 0.11600  0.79850  0.80873  Biso   1.000  C
  H144     1.0000 0.25080  0.84800  0.83143  Biso   1.000  H
  H145     1.0000 0.23240  0.77140  0.80423  Biso   1.000  H
  O140     1.0000 0.10190  0.87600  0.81818  Biso   1.000  O
  C113     1.0000 0.07820  0.77180  0.77633  Biso   1.000  C
  H146     1.0000 0.07810  0.74230  0.82293  Biso   1.000  H
  C114     1.0000 0.05930  0.90300  0.79393  Biso   1.000  C
  O141     1.0000 0.97770  0.69430  0.77723  Biso   1.000  O
  C115     1.0000 0.08030  0.85900  0.76453  Biso   1.000  C
  H147     1.0000 0.11880  0.75400  0.76343  Biso   1.000  H
  N56      1.0000 0.10300  0.00620  0.79476  Biso   1.000  N
  H148     1.0000 0.98830  0.87210  0.79733  Biso   1.000  H
  H149     1.0000 0.96230  0.63870  0.78923  Biso   1.000  H
  O142     1.0000 0.01030  0.84100  0.74061  Biso   1.000  O
  H150     1.0000 0.14610  0.90480  0.75643  Biso   1.000  H
  C116     1.0000 0.19800  0.07070  0.79613  Biso   1.000  C
  C117     1.0000 0.05410  0.05380  0.79143  Biso   1.000  C
  H151     1.0000 0.02470  0.88050  0.72263  Biso   1.000  H
  N57      1.0000 0.21310  0.15560  0.79633  Biso   1.000  N
  H152     1.0000 0.24710  0.05420  0.79673  Biso   1.000  H
  N58      1.0000 0.95690  0.01530  0.78811  Biso   1.000  N
  C118     1.0000 0.12460  0.15090  0.79273  Biso   1.000  C
  H153     1.0000 0.26930  0.20830  0.79843  Biso   1.000  H
  C119     1.0000 0.93390  0.08270  0.78453  Biso   1.000  C
  C120     1.0000 0.10570  0.22890  0.79053  Biso   1.000  C
  N59      1.0000 0.00360  0.18880  0.78453  Biso   1.000  N
  N60      1.0000 0.83980  0.05610  0.78013  Biso   1.000  N
  O143     1.0000 0.15960  0.31590  0.79133  Biso   1.000  O
  H154     1.0000 0.98170  0.22830  0.78073  Biso   1.000  H
  H155     1.0000 0.79570  0.99470  0.77973  Biso   1.000  H
  H156     1.0000 0.82310  0.10020  0.77773  Biso   1.000  H
  O144     1.0000 0.18510  0.43530  0.83793  Biso   1.000  O
  Na34     1.0000 0.32590  0.60410  0.83493  Biso   1.000  Na
  Na35     1.0000 0.06400  0.37900  0.81853  Biso   1.000  Na
  Na36     1.0000 0.97600  0.52030  0.79243  Biso   1.000  Na
  Mo25     1.0000 0.36552  0.63448  0.08333  Biso   1.000  Mo
  O145     1.0000 0.56800  0.43200  0.08333  Biso   1.000  O
  Mo26     1.0000 0.36552  0.73104  0.75000  Biso   1.000  Mo
  O146     1.0000 0.56800  0.13600  0.75000  Biso   1.000  O
  Mo27     1.0000 0.26896  0.63448  0.41667  Biso   1.000  Mo
  O147     1.0000 0.86400  0.43200  0.41667  Biso   1.000  O
  Mo28     1.0000 0.63448  0.36552  0.58333  Biso   1.000  Mo
  O148     1.0000 0.43200  0.56800  0.58333  Biso   1.000  O
  Mo29     1.0000 0.63448  0.26896  0.25000  Biso   1.000  Mo
  O149     1.0000 0.43200  0.86400  0.25000  Biso   1.000  O
  Mo30     1.0000 0.73104  0.36552  0.91667  Biso   1.000  Mo
  O150     1.0000 0.13600  0.56800  0.91667  Biso   1.000  O
  Na37     1.0000 0.84990  0.15010  0.08333  Biso   1.000  Na
  Na38     1.0000 0.84990  0.69980  0.75000  Biso   1.000  Na
  Na39     1.0000 0.30020  0.15010  0.41667  Biso   1.000  Na
  Na40     1.0000 0.15010  0.84990  0.58333  Biso   1.000  Na
  Na41     1.0000 0.15010  0.30020  0.25000  Biso   1.000  Na
  Na42     1.0000 0.69980  0.84990  0.91667  Biso   1.000  Na
