data_image0
_cell_length_a       9.0356
_cell_length_b       16.6644
_cell_length_c       17.2419
_cell_angle_alpha    117.194
_cell_angle_beta     98.948
_cell_angle_gamma    93.947

_symmetry_space_group_name_H-M    "P 1"
_symmetry_int_tables_number       1

loop_
  _symmetry_equiv_pos_as_xyz
  'x, y, z'

loop_
  _atom_site_label
  _atom_site_occupancy
  _atom_site_fract_x
  _atom_site_fract_y
  _atom_site_fract_z
  _atom_site_thermal_displace_type
  _atom_site_B_iso_or_equiv
  _atom_site_type_symbol
  Cd1      1.0000 0.86865  0.01431  0.30462  Biso   1.000  Cd
  Cd2      1.0000 0.30956  0.67030  0.68215  Biso   1.000  Cd
  Cd3      1.0000 0.94560  0.28648  0.93772  Biso   1.000  Cd
  C1       1.0000 0.60670  0.85210  0.27250  Biso   1.000  C
  H1       1.0000 0.56160  0.84570  0.21720  Biso   1.000  H
  C2       1.0000 0.75370  0.88920  0.39340  Biso   1.000  C
  H2       1.0000 0.83720  0.91710  0.44070  Biso   1.000  H
  C3       1.0000 0.40760  0.75060  0.28550  Biso   1.000  C
  H3       1.0000 0.34280  0.75310  0.23650  Biso   1.000  H
  H4       1.0000 0.35500  0.76860  0.33440  Biso   1.000  H
  C4       1.0000 0.50990  0.53520  0.17610  Biso   1.000  C
  C5       1.0000 0.57920  0.47010  0.10640  Biso   1.000  C
  C6       1.0000 0.57490  0.38100  0.08950  Biso   1.000  C
  H5       1.0000 0.51960  0.35890  0.11890  Biso   1.000  H
  C7       1.0000 0.65240  0.32480  0.02910  Biso   1.000  C
  H6       1.0000 0.64780  0.26450  0.01820  Biso   1.000  H
  C8       1.0000 0.73340  0.43860  0.99970  Biso   1.000  C
  H7       1.0000 0.78580  0.45860  0.96780  Biso   1.000  H
  C9       1.0000 0.65880  0.49920  0.05950  Biso   1.000  C
  H8       1.0000 0.66220  0.55870  0.06820  Biso   1.000  H
  C10      1.0000 0.42410  0.60150  0.29320  Biso   1.000  C
  C11      1.0000 0.37720  0.62470  0.37870  Biso   1.000  C
  C12      1.0000 0.45330  0.70050  0.45610  Biso   1.000  C
  H9       1.0000 0.52520  0.74220  0.45460  Biso   1.000  H
  C13      1.0000 0.41990  0.71270  0.53530  Biso   1.000  C
  H10      1.0000 0.47270  0.76320  0.58750  Biso   1.000  H
  C14      1.0000 0.24080  0.58520  0.46660  Biso   1.000  C
  H11      1.0000 0.16640  0.54590  0.46940  Biso   1.000  H
  C15      1.0000 0.26900  0.56770  0.38430  Biso   1.000  C
  H12      1.0000 0.21410  0.51710  0.33290  Biso   1.000  H
  C16      1.0000 0.79400  0.98310  0.13220  Biso   1.000  C
  C17      1.0000 0.47520  0.82770  0.82290  Biso   1.000  C
  C18      1.0000 0.81670  0.12670  0.93490  Biso   1.000  C
  C19      1.0000 0.74240  0.98160  0.04410  Biso   1.000  C
  C20      1.0000 0.63350  0.90940  0.97680  Biso   1.000  C
  H13      1.0000 0.59340  0.86260  0.98640  Biso   1.000  H
  C21      1.0000 0.58590  0.90830  0.89520  Biso   1.000  C
  C22      1.0000 0.64570  0.97810  0.88160  Biso   1.000  C
  H14      1.0000 0.61390  0.97700  0.82710  Biso   1.000  H
  C23      1.0000 0.75320  0.05010  0.94850  Biso   1.000  C
  C24      1.0000 0.79960  0.05100  0.02910  Biso   1.000  C
  H15      1.0000 0.87060  0.09930  0.07410  Biso   1.000  H
  C25      1.0000 0.97180  0.16240  0.47320  Biso   1.000  C
  C26      1.0000 0.98170  0.32890  0.80090  Biso   1.000  C
  C27      1.0000 0.18390  0.49620  0.64950  Biso   1.000  C
  C28      1.0000 0.01270  0.24920  0.56070  Biso   1.000  C
  C29      1.0000 0.98230  0.25020  0.63740  Biso   1.000  C
  H16      1.0000 0.93840  0.19660  0.63460  Biso   1.000  H
  C30      1.0000 0.01610  0.33010  0.71830  Biso   1.000  C
  C31      1.0000 0.08180  0.40980  0.72250  Biso   1.000  C
  H17      1.0000 0.10330  0.46370  0.77650  Biso   1.000  H
  C32      1.0000 0.11630  0.41010  0.64630  Biso   1.000  C
  C33      1.0000 0.08000  0.32940  0.56620  Biso   1.000  C
  H18      1.0000 0.10130  0.32910  0.51500  Biso   1.000  H
  N1       1.0000 0.73920  0.90270  0.32080  Biso   1.000  N
  N2       1.0000 0.64250  0.83450  0.39180  Biso   1.000  N
  N3       1.0000 0.54810  0.81230  0.31350  Biso   1.000  N
  N4       1.0000 0.43860  0.65850  0.25740  Biso   1.000  N
  N5       1.0000 0.49510  0.61600  0.18230  Biso   1.000  N
  N6       1.0000 0.46520  0.52270  0.24240  Biso   1.000  N
  N7       1.0000 0.73480  0.35270  0.98480  Biso   1.000  N
  N8       1.0000 0.31710  0.65690  0.54220  Biso   1.000  N
  O1       1.0000 0.74960  0.91740  0.14280  Biso   1.000  O
  O2       1.0000 0.87830  0.05360  0.19440  Biso   1.000  O
  O3       1.0000 0.90410  0.19390  0.99980  Biso   1.000  O
  O4       1.0000 0.77900  0.12560  0.86050  Biso   1.000  O
  O5       1.0000 0.45650  0.81680  0.74390  Biso   1.000  O
  O6       1.0000 0.40990  0.77140  0.83910  Biso   1.000  O
  O7       1.0000 0.99110  0.16570  0.40330  Biso   1.000  O
  O8       1.0000 0.92060  0.09060  0.47130  Biso   1.000  O
  O9       1.0000 0.95230  0.25160  0.79690  Biso   1.000  O
  O10      1.0000 0.98210  0.40120  0.86930  Biso   1.000  O
  O11      1.0000 0.20010  0.57060  0.72040  Biso   1.000  O
  O12      1.0000 0.22380  0.49240  0.58220  Biso   1.000  O
  Cd4      1.0000 0.13135  0.98569  0.69538  Biso   1.000  Cd
  Cd5      1.0000 0.69044  0.32970  0.31785  Biso   1.000  Cd
  Cd6      1.0000 0.05440  0.71352  0.06228  Biso   1.000  Cd
  C34      1.0000 0.39330  0.14790  0.72750  Biso   1.000  C
  H19      1.0000 0.43840  0.15430  0.78280  Biso   1.000  H
  C35      1.0000 0.24630  0.11080  0.60660  Biso   1.000  C
  H20      1.0000 0.16280  0.08290  0.55930  Biso   1.000  H
  C36      1.0000 0.59240  0.24940  0.71450  Biso   1.000  C
  H21      1.0000 0.65720  0.24690  0.76350  Biso   1.000  H
  H22      1.0000 0.64500  0.23140  0.66560  Biso   1.000  H
  C37      1.0000 0.49010  0.46480  0.82390  Biso   1.000  C
  C38      1.0000 0.42080  0.52990  0.89360  Biso   1.000  C
  C39      1.0000 0.42510  0.61900  0.91050  Biso   1.000  C
  H23      1.0000 0.48040  0.64110  0.88110  Biso   1.000  H
  C40      1.0000 0.34760  0.67520  0.97090  Biso   1.000  C
  H24      1.0000 0.35220  0.73550  0.98180  Biso   1.000  H
  C41      1.0000 0.26660  0.56140  0.00030  Biso   1.000  C
  H25      1.0000 0.21420  0.54140  0.03220  Biso   1.000  H
  C42      1.0000 0.34120  0.50080  0.94050  Biso   1.000  C
  H26      1.0000 0.33780  0.44130  0.93180  Biso   1.000  H
  C43      1.0000 0.57590  0.39850  0.70680  Biso   1.000  C
  C44      1.0000 0.62280  0.37530  0.62130  Biso   1.000  C
  C45      1.0000 0.54670  0.29950  0.54390  Biso   1.000  C
  H27      1.0000 0.47480  0.25780  0.54540  Biso   1.000  H
  C46      1.0000 0.58010  0.28730  0.46470  Biso   1.000  C
  H28      1.0000 0.52730  0.23680  0.41250  Biso   1.000  H
  C47      1.0000 0.75920  0.41480  0.53340  Biso   1.000  C
  H29      1.0000 0.83360  0.45410  0.53060  Biso   1.000  H
  C48      1.0000 0.73100  0.43230  0.61570  Biso   1.000  C
  H30      1.0000 0.78590  0.48290  0.66710  Biso   1.000  H
  C49      1.0000 0.20600  0.01690  0.86780  Biso   1.000  C
  C50      1.0000 0.52480  0.17230  0.17710  Biso   1.000  C
  C51      1.0000 0.18330  0.87330  0.06510  Biso   1.000  C
  C52      1.0000 0.25760  0.01840  0.95590  Biso   1.000  C
  C53      1.0000 0.36650  0.09060  0.02320  Biso   1.000  C
  H31      1.0000 0.40660  0.13740  0.01360  Biso   1.000  H
  C54      1.0000 0.41410  0.09170  0.10480  Biso   1.000  C
  C55      1.0000 0.35430  0.02190  0.11840  Biso   1.000  C
  H32      1.0000 0.38610  0.02300  0.17290  Biso   1.000  H
  C56      1.0000 0.24680  0.94990  0.05150  Biso   1.000  C
  C57      1.0000 0.20040  0.94900  0.97090  Biso   1.000  C
  H33      1.0000 0.12940  0.90070  0.92590  Biso   1.000  H
  C58      1.0000 0.02820  0.83760  0.52680  Biso   1.000  C
  C59      1.0000 0.01830  0.67110  0.19910  Biso   1.000  C
  C60      1.0000 0.81610  0.50380  0.35050  Biso   1.000  C
  C61      1.0000 0.98730  0.75080  0.43930  Biso   1.000  C
  C62      1.0000 0.01770  0.74980  0.36260  Biso   1.000  C
  H34      1.0000 0.06160  0.80340  0.36540  Biso   1.000  H
  C63      1.0000 0.98390  0.66990  0.28170  Biso   1.000  C
  C64      1.0000 0.91820  0.59020  0.27750  Biso   1.000  C
  H35      1.0000 0.89670  0.53630  0.22350  Biso   1.000  H
  C65      1.0000 0.88370  0.58990  0.35370  Biso   1.000  C
  C66      1.0000 0.92000  0.67060  0.43380  Biso   1.000  C
  H36      1.0000 0.89870  0.67090  0.48500  Biso   1.000  H
  N9       1.0000 0.26080  0.09730  0.67920  Biso   1.000  N
  N10      1.0000 0.35750  0.16550  0.60820  Biso   1.000  N
  N11      1.0000 0.45190  0.18770  0.68650  Biso   1.000  N
  N12      1.0000 0.56140  0.34150  0.74260  Biso   1.000  N
  N13      1.0000 0.50490  0.38400  0.81770  Biso   1.000  N
  N14      1.0000 0.53480  0.47730  0.75760  Biso   1.000  N
  N15      1.0000 0.26520  0.64730  0.01520  Biso   1.000  N
  N16      1.0000 0.68290  0.34310  0.45780  Biso   1.000  N
  O13      1.0000 0.25040  0.08260  0.85720  Biso   1.000  O
  O14      1.0000 0.12170  0.94640  0.80560  Biso   1.000  O
  O15      1.0000 0.09590  0.80610  0.00020  Biso   1.000  O
  O16      1.0000 0.22100  0.87440  0.13950  Biso   1.000  O
  O17      1.0000 0.54350  0.18320  0.25610  Biso   1.000  O
  O18      1.0000 0.59010  0.22860  0.16090  Biso   1.000  O
  O19      1.0000 0.00890  0.83430  0.59670  Biso   1.000  O
  O20      1.0000 0.07940  0.90940  0.52870  Biso   1.000  O
  O21      1.0000 0.04770  0.74840  0.20310  Biso   1.000  O
  O22      1.0000 0.01790  0.59880  0.13070  Biso   1.000  O
  O23      1.0000 0.79990  0.42940  0.27960  Biso   1.000  O
  O24      1.0000 0.77620  0.50760  0.41780  Biso   1.000  O
