data_CAJQIP_clean
_audit_creation_date              2014-07-02
_audit_creation_method            'Materials Studio'
_symmetry_space_group_name_H-M    'P1'
_symmetry_Int_Tables_number       1
_symmetry_cell_setting            triclinic
loop_
_symmetry_equiv_pos_as_xyz
  x,y,z
_cell_length_a                    18.1626
_cell_length_b                    18.1626
_cell_length_c                    30.8536
_cell_angle_alpha                 103.3510
_cell_angle_beta                  103.3510
_cell_angle_gamma                 102.4420
loop_
_atom_site_label
_atom_site_type_symbol
_atom_site_fract_x
_atom_site_fract_y
_atom_site_fract_z
_atom_site_U_iso_or_equiv
_atom_site_adp_type
_atom_site_occupancy
Cu1    Cu    0.04855   0.48539   0.53394   0.01267  Uiso   1.00
Cu2    Cu    0.48539   0.04855   0.53394   0.01267  Uiso   1.00
Cu3    Cu    0.51461   0.95145   0.46606   0.01267  Uiso   1.00
Cu4    Cu    0.95145   0.51461   0.46606   0.01267  Uiso   1.00
Cu5    Cu    0.52869   0.52869   0.46944   0.01267  Uiso   1.00
Cu6    Cu    0.94075   0.94075   0.46944   0.01267  Uiso   1.00
Cu7    Cu    0.47131   0.47131   0.53056   0.01267  Uiso   1.00
Cu8    Cu    0.05925   0.05925   0.53056   0.01267  Uiso   1.00
H1     H     0.75840   0.50760   0.52000   0.01267  Uiso   1.00
H2     H     0.91200   0.48920   0.62900   0.01267  Uiso   1.00
H3     H     0.68900   0.49660   0.63120   0.01267  Uiso   1.00
H4     H     0.02500   0.50820   0.75660   0.01267  Uiso   1.00
H5     H     0.05990   0.51410   0.83600   0.01267  Uiso   1.00
H6     H     0.84250   0.51870   0.84140   0.01267  Uiso   1.00
H7     H     0.80180   0.50620   0.76040   0.01267  Uiso   1.00
H8     H     0.90860   0.57340   0.92080   0.01267  Uiso   1.00
H9     H     0.87150   0.47910   0.89660   0.01267  Uiso   1.00
H10    H     0.76160   0.01240   0.52000   0.01267  Uiso   1.00
H11    H     0.71700   0.13980   0.62900   0.01267  Uiso   1.00
H12    H     0.94220   0.13460   0.63120   0.01267  Uiso   1.00
H13    H     0.73160   0.24840   0.75660   0.01267  Uiso   1.00
H14    H     0.77610   0.32190   0.83600   0.01267  Uiso   1.00
H15    H     0.99890   0.32270   0.84140   0.01267  Uiso   1.00
H16    H     0.95860   0.25420   0.76040   0.01267  Uiso   1.00
H17    H     0.01220   0.34740   0.92080   0.01267  Uiso   1.00
H18    H     0.02510   0.41750   0.89660   0.01267  Uiso   1.00
H19    H     0.49240   0.24160   0.48000   0.01267  Uiso   1.00
H20    H     0.51080   0.08800   0.37100   0.01267  Uiso   1.00
H21    H     0.50340   0.31100   0.36880   0.01267  Uiso   1.00
H22    H     0.49180   0.97500   0.24340   0.01267  Uiso   1.00
H23    H     0.48590   0.94010   0.16400   0.01267  Uiso   1.00
H24    H     0.48130   0.15750   0.15860   0.01267  Uiso   1.00
H25    H     0.49380   0.19820   0.23960   0.01267  Uiso   1.00
H26    H     0.42660   0.09140   0.07920   0.01267  Uiso   1.00
H27    H     0.52090   0.12850   0.10340   0.01267  Uiso   1.00
H28    H     0.98760   0.23840   0.48000   0.01267  Uiso   1.00
H29    H     0.86020   0.28300   0.37100   0.01267  Uiso   1.00
H30    H     0.86540   0.05780   0.36880   0.01267  Uiso   1.00
H31    H     0.75160   0.26840   0.24340   0.01267  Uiso   1.00
H32    H     0.67810   0.22390   0.16400   0.01267  Uiso   1.00
H33    H     0.67730   0.00110   0.15860   0.01267  Uiso   1.00
H34    H     0.74580   0.04140   0.23960   0.01267  Uiso   1.00
H35    H     0.65260   0.98780   0.07920   0.01267  Uiso   1.00
H36    H     0.58250   0.97490   0.10340   0.01267  Uiso   1.00
H37    H     0.24160   0.49240   0.48000   0.01267  Uiso   1.00
H38    H     0.08800   0.51080   0.37100   0.01267  Uiso   1.00
H39    H     0.31100   0.50340   0.36880   0.01267  Uiso   1.00
H40    H     0.97500   0.49180   0.24340   0.01267  Uiso   1.00
H41    H     0.94010   0.48590   0.16400   0.01267  Uiso   1.00
H42    H     0.15750   0.48130   0.15860   0.01267  Uiso   1.00
H43    H     0.19820   0.49380   0.23960   0.01267  Uiso   1.00
H44    H     0.09140   0.42660   0.07920   0.01267  Uiso   1.00
H45    H     0.12850   0.52090   0.10340   0.01267  Uiso   1.00
H46    H     0.23840   0.98760   0.48000   0.01267  Uiso   1.00
H47    H     0.28300   0.86020   0.37100   0.01267  Uiso   1.00
H48    H     0.05780   0.86540   0.36880   0.01267  Uiso   1.00
H49    H     0.26840   0.75160   0.24340   0.01267  Uiso   1.00
H50    H     0.22390   0.67810   0.16400   0.01267  Uiso   1.00
H51    H     0.00110   0.67730   0.15860   0.01267  Uiso   1.00
H52    H     0.04140   0.74580   0.23960   0.01267  Uiso   1.00
H53    H     0.98780   0.65260   0.07920   0.01267  Uiso   1.00
H54    H     0.97490   0.58250   0.10340   0.01267  Uiso   1.00
H55    H     0.50760   0.75840   0.52000   0.01267  Uiso   1.00
H56    H     0.48920   0.91200   0.62900   0.01267  Uiso   1.00
H57    H     0.49660   0.68900   0.63120   0.01267  Uiso   1.00
H58    H     0.50820   0.02500   0.75660   0.01267  Uiso   1.00
H59    H     0.51410   0.05990   0.83600   0.01267  Uiso   1.00
H60    H     0.51870   0.84250   0.84140   0.01267  Uiso   1.00
H61    H     0.50620   0.80180   0.76040   0.01267  Uiso   1.00
H62    H     0.57340   0.90860   0.92080   0.01267  Uiso   1.00
H63    H     0.47910   0.87150   0.89660   0.01267  Uiso   1.00
H64    H     0.01240   0.76160   0.52000   0.01267  Uiso   1.00
H65    H     0.13980   0.71700   0.62900   0.01267  Uiso   1.00
H66    H     0.13460   0.94220   0.63120   0.01267  Uiso   1.00
H67    H     0.24840   0.73160   0.75660   0.01267  Uiso   1.00
H68    H     0.32190   0.77610   0.83600   0.01267  Uiso   1.00
H69    H     0.32270   0.99890   0.84140   0.01267  Uiso   1.00
H70    H     0.25420   0.95860   0.76040   0.01267  Uiso   1.00
H71    H     0.34740   0.01220   0.92080   0.01267  Uiso   1.00
H72    H     0.41750   0.02510   0.89660   0.01267  Uiso   1.00
H73    H     0.93620   0.59900  -0.00000   0.01267  Uiso   1.00
H74    H     0.06380   0.40100   0.00000   0.01267  Uiso   1.00
H75    H     0.40100   0.06380   0.00000   0.01267  Uiso   1.00
H76    H     0.59900   0.93620   0.00000   0.01267  Uiso   1.00
C1     C     0.89770   0.49010   0.54240   0.01267  Uiso   1.00
C2     C     0.63100   0.50420   0.54740   0.01267  Uiso   1.00
C3     C     0.76798   0.50058   0.55016   0.01267  Uiso   1.00
C4     C     0.84040   0.49280   0.56920   0.01267  Uiso   1.00
C5     C     0.86054   0.49114   0.61448   0.01267  Uiso   1.00
C6     C     0.80410   0.49210   0.63940   0.01267  Uiso   1.00
C7     C     0.72808   0.49608   0.61536   0.01267  Uiso   1.00
C8     C     0.70954   0.49954   0.56928   0.01267  Uiso   1.00
C9     C     0.91020   0.50520   0.75360   0.01267  Uiso   1.00
C10    C     0.98770   0.50870   0.77360   0.01267  Uiso   1.00
C11    C     0.00750   0.51330   0.82120   0.01267  Uiso   1.00
C12    C     0.95650   0.51690   0.84780   0.01267  Uiso   1.00
C13    C     0.87930   0.51510   0.82400   0.01267  Uiso   1.00
C14    C     0.85430   0.50830   0.77600   0.01267  Uiso   1.00
C15    C     0.92030   0.52190   0.91500   0.01267  Uiso   1.00
C16    C     0.96067   0.50767   0.95814   0.01267  Uiso   1.00
C17    C     0.64470   0.05230   0.54240   0.01267  Uiso   1.00
C18    C     0.91640   0.04320   0.54740   0.01267  Uiso   1.00
C19    C     0.78218   0.04958   0.55016   0.01267  Uiso   1.00
C20    C     0.72880   0.07640   0.56920   0.01267  Uiso   1.00
C21    C     0.75394   0.12334   0.61448   0.01267  Uiso   1.00
C22    C     0.83530   0.14730   0.63940   0.01267  Uiso   1.00
C23    C     0.88728   0.11928   0.61536   0.01267  Uiso   1.00
C24    C     0.85974   0.06974   0.56928   0.01267  Uiso   1.00
C25    C     0.84340   0.24840   0.75360   0.01267  Uiso   1.00
C26    C     0.78590   0.26490   0.77360   0.01267  Uiso   1.00
C27    C     0.81370   0.30790   0.82120   0.01267  Uiso   1.00
C28    C     0.89130   0.33090   0.84780   0.01267  Uiso   1.00
C29    C     0.94470   0.30890   0.82400   0.01267  Uiso   1.00
C30    C     0.92170   0.26770   0.77600   0.01267  Uiso   1.00
C31    C     0.99470   0.39310   0.91500   0.01267  Uiso   1.00
C32    C     0.99747   0.45047   0.95814   0.01267  Uiso   1.00
C33    C     0.50990   0.10230   0.45760   0.01267  Uiso   1.00
C34    C     0.49580   0.36900   0.45260   0.01267  Uiso   1.00
C35    C     0.49942   0.23202   0.44984   0.01267  Uiso   1.00
C36    C     0.50720   0.15960   0.43080   0.01267  Uiso   1.00
C37    C     0.50886   0.13946   0.38552   0.01267  Uiso   1.00
C38    C     0.50790   0.19590   0.36060   0.01267  Uiso   1.00
C39    C     0.50392   0.27192   0.38464   0.01267  Uiso   1.00
C40    C     0.50046   0.29046   0.43072   0.01267  Uiso   1.00
C41    C     0.49480   0.08980   0.24640   0.01267  Uiso   1.00
C42    C     0.49130   0.01230   0.22640   0.01267  Uiso   1.00
C43    C     0.48670   0.99250   0.17880   0.01267  Uiso   1.00
C44    C     0.48310   0.04350   0.15220   0.01267  Uiso   1.00
C45    C     0.48490   0.12070   0.17600   0.01267  Uiso   1.00
C46    C     0.49170   0.14570   0.22400   0.01267  Uiso   1.00
C47    C     0.47810   0.07970   0.08500   0.01267  Uiso   1.00
C48    C     0.49233   0.03933   0.04186   0.01267  Uiso   1.00
C49    C     0.94770   0.35530   0.45760   0.01267  Uiso   1.00
C50    C     0.95680   0.08360   0.45260   0.01267  Uiso   1.00
C51    C     0.95042   0.21782   0.44984   0.01267  Uiso   1.00
C52    C     0.92360   0.27120   0.43080   0.01267  Uiso   1.00
C53    C     0.87666   0.24606   0.38552   0.01267  Uiso   1.00
C54    C     0.85270   0.16470   0.36060   0.01267  Uiso   1.00
C55    C     0.88072   0.11272   0.38464   0.01267  Uiso   1.00
C56    C     0.93026   0.14026   0.43072   0.01267  Uiso   1.00
C57    C     0.75160   0.15660   0.24640   0.01267  Uiso   1.00
C58    C     0.73510   0.21410   0.22640   0.01267  Uiso   1.00
C59    C     0.69210   0.18630   0.17880   0.01267  Uiso   1.00
C60    C     0.66910   0.10870   0.15220   0.01267  Uiso   1.00
C61    C     0.69110   0.05530   0.17600   0.01267  Uiso   1.00
C62    C     0.73230   0.07830   0.22400   0.01267  Uiso   1.00
C63    C     0.60690   0.00530   0.08500   0.01267  Uiso   1.00
C64    C     0.54953   0.00253   0.04186   0.01267  Uiso   1.00
C65    C     0.10230   0.50990   0.45760   0.01267  Uiso   1.00
C66    C     0.36900   0.49580   0.45260   0.01267  Uiso   1.00
C67    C     0.23202   0.49942   0.44984   0.01267  Uiso   1.00
C68    C     0.15960   0.50720   0.43080   0.01267  Uiso   1.00
C69    C     0.13946   0.50886   0.38552   0.01267  Uiso   1.00
C70    C     0.19590   0.50790   0.36060   0.01267  Uiso   1.00
C71    C     0.27192   0.50392   0.38464   0.01267  Uiso   1.00
C72    C     0.29046   0.50046   0.43072   0.01267  Uiso   1.00
C73    C     0.08980   0.49480   0.24640   0.01267  Uiso   1.00
C74    C     0.01230   0.49130   0.22640   0.01267  Uiso   1.00
C75    C     0.99250   0.48670   0.17880   0.01267  Uiso   1.00
C76    C     0.04350   0.48310   0.15220   0.01267  Uiso   1.00
C77    C     0.12070   0.48490   0.17600   0.01267  Uiso   1.00
C78    C     0.14570   0.49170   0.22400   0.01267  Uiso   1.00
C79    C     0.07970   0.47810   0.08500   0.01267  Uiso   1.00
C80    C     0.03933   0.49233   0.04186   0.01267  Uiso   1.00
C81    C     0.35530   0.94770   0.45760   0.01267  Uiso   1.00
C82    C     0.08360   0.95680   0.45260   0.01267  Uiso   1.00
C83    C     0.21782   0.95042   0.44984   0.01267  Uiso   1.00
C84    C     0.27120   0.92360   0.43080   0.01267  Uiso   1.00
C85    C     0.24606   0.87666   0.38552   0.01267  Uiso   1.00
C86    C     0.16470   0.85270   0.36060   0.01267  Uiso   1.00
C87    C     0.11272   0.88072   0.38464   0.01267  Uiso   1.00
C88    C     0.14026   0.93026   0.43072   0.01267  Uiso   1.00
C89    C     0.15660   0.75160   0.24640   0.01267  Uiso   1.00
C90    C     0.21410   0.73510   0.22640   0.01267  Uiso   1.00
C91    C     0.18630   0.69210   0.17880   0.01267  Uiso   1.00
C92    C     0.10870   0.66910   0.15220   0.01267  Uiso   1.00
C93    C     0.05530   0.69110   0.17600   0.01267  Uiso   1.00
C94    C     0.07830   0.73230   0.22400   0.01267  Uiso   1.00
C95    C     0.00530   0.60690   0.08500   0.01267  Uiso   1.00
C96    C     0.00253   0.54953   0.04186   0.01267  Uiso   1.00
C97    C     0.49010   0.89770   0.54240   0.01267  Uiso   1.00
C98    C     0.50420   0.63100   0.54740   0.01267  Uiso   1.00
C99    C     0.50058   0.76798   0.55016   0.01267  Uiso   1.00
C100   C     0.49280   0.84040   0.56920   0.01267  Uiso   1.00
C101   C     0.49114   0.86054   0.61448   0.01267  Uiso   1.00
C102   C     0.49210   0.80410   0.63940   0.01267  Uiso   1.00
C103   C     0.49608   0.72808   0.61536   0.01267  Uiso   1.00
C104   C     0.49954   0.70954   0.56928   0.01267  Uiso   1.00
C105   C     0.50520   0.91020   0.75360   0.01267  Uiso   1.00
C106   C     0.50870   0.98770   0.77360   0.01267  Uiso   1.00
C107   C     0.51330   0.00750   0.82120   0.01267  Uiso   1.00
C108   C     0.51690   0.95650   0.84780   0.01267  Uiso   1.00
C109   C     0.51510   0.87930   0.82400   0.01267  Uiso   1.00
C110   C     0.50830   0.85430   0.77600   0.01267  Uiso   1.00
C111   C     0.52190   0.92030   0.91500   0.01267  Uiso   1.00
C112   C     0.50767   0.96067   0.95814   0.01267  Uiso   1.00
C113   C     0.05230   0.64470   0.54240   0.01267  Uiso   1.00
C114   C     0.04320   0.91640   0.54740   0.01267  Uiso   1.00
C115   C     0.04958   0.78218   0.55016   0.01267  Uiso   1.00
C116   C     0.07640   0.72880   0.56920   0.01267  Uiso   1.00
C117   C     0.12334   0.75394   0.61448   0.01267  Uiso   1.00
C118   C     0.14730   0.83530   0.63940   0.01267  Uiso   1.00
C119   C     0.11928   0.88728   0.61536   0.01267  Uiso   1.00
C120   C     0.06974   0.85974   0.56928   0.01267  Uiso   1.00
C121   C     0.24840   0.84340   0.75360   0.01267  Uiso   1.00
C122   C     0.26490   0.78590   0.77360   0.01267  Uiso   1.00
C123   C     0.30790   0.81370   0.82120   0.01267  Uiso   1.00
C124   C     0.33090   0.89130   0.84780   0.01267  Uiso   1.00
C125   C     0.30890   0.94470   0.82400   0.01267  Uiso   1.00
C126   C     0.26770   0.92170   0.77600   0.01267  Uiso   1.00
C127   C     0.39310   0.99470   0.91500   0.01267  Uiso   1.00
C128   C     0.45047   0.99747   0.95814   0.01267  Uiso   1.00
C129   C     0.96220   0.55880  -0.00000   0.01267  Uiso   1.00
C130   C     0.03780   0.44120  -0.00000   0.01267  Uiso   1.00
C131   C     0.44120   0.03780  -0.00000   0.01267  Uiso   1.00
C132   C     0.55880   0.96220  -0.00000   0.01267  Uiso   1.00
N1     N     0.81350   0.48970   0.68720   0.01267  Uiso   1.00
N2     N     0.88460   0.49800   0.70420   0.01267  Uiso   1.00
N3     N     0.87370   0.19750   0.68720   0.01267  Uiso   1.00
N4     N     0.81960   0.20620   0.70420   0.01267  Uiso   1.00
N5     N     0.51030   0.18650   0.31280   0.01267  Uiso   1.00
N6     N     0.50200   0.11540   0.29580   0.01267  Uiso   1.00
N7     N     0.80250   0.12630   0.31280   0.01267  Uiso   1.00
N8     N     0.79380   0.18040   0.29580   0.01267  Uiso   1.00
N9     N     0.18650   0.51030   0.31280   0.01267  Uiso   1.00
N10    N     0.11540   0.50200   0.29580   0.01267  Uiso   1.00
N11    N     0.12630   0.80250   0.31280   0.01267  Uiso   1.00
N12    N     0.18040   0.79380   0.29580   0.01267  Uiso   1.00
N13    N     0.48970   0.81350   0.68720   0.01267  Uiso   1.00
N14    N     0.49800   0.88460   0.70420   0.01267  Uiso   1.00
N15    N     0.19750   0.87370   0.68720   0.01267  Uiso   1.00
N16    N     0.20620   0.81960   0.70420   0.01267  Uiso   1.00
O1     O     0.96539   0.48133   0.56412   0.01267  Uiso   1.00
O2     O     0.99829   0.37679   0.49488   0.01267  Uiso   1.00
O3     O     0.62759   0.52733   0.51132   0.01267  Uiso   1.00
O4     O     0.57647   0.48093   0.56420   0.01267  Uiso   1.00
O5     O     0.98420   0.52100   0.89360   0.01267  Uiso   1.00
O6     O     0.59873   0.08279   0.56412   0.01267  Uiso   1.00
O7     O     0.49659   0.11809   0.49488   0.01267  Uiso   1.00
O8     O     0.88373   0.98399   0.51132   0.01267  Uiso   1.00
O9     O     0.98773   0.08327   0.56420   0.01267  Uiso   1.00
O10    O     0.90940   0.37260   0.89360   0.01267  Uiso   1.00
O11    O     0.51867   0.03461   0.43588   0.01267  Uiso   1.00
O12    O     0.62321   0.00171   0.50512   0.01267  Uiso   1.00
O13    O     0.47267   0.37241   0.48868   0.01267  Uiso   1.00
O14    O     0.51907   0.42353   0.43580   0.01267  Uiso   1.00
O15    O     0.47900   0.01580   0.10640   0.01267  Uiso   1.00
O16    O     0.91721   0.40127   0.43588   0.01267  Uiso   1.00
O17    O     0.88191   0.50341   0.50512   0.01267  Uiso   1.00
O18    O     0.01601   0.11627   0.48868   0.01267  Uiso   1.00
O19    O     0.91673   0.01227   0.43580   0.01267  Uiso   1.00
O20    O     0.62740   0.09060   0.10640   0.01267  Uiso   1.00
O21    O     0.03461   0.51867   0.43588   0.01267  Uiso   1.00
O22    O     0.00171   0.62321   0.50512   0.01267  Uiso   1.00
O23    O     0.37241   0.47267   0.48868   0.01267  Uiso   1.00
O24    O     0.42353   0.51907   0.43580   0.01267  Uiso   1.00
O25    O     0.01580   0.47900   0.10640   0.01267  Uiso   1.00
O26    O     0.40127   0.91721   0.43588   0.01267  Uiso   1.00
O27    O     0.50341   0.88191   0.50512   0.01267  Uiso   1.00
O28    O     0.11627   0.01601   0.48868   0.01267  Uiso   1.00
O29    O     0.01227   0.91673   0.43580   0.01267  Uiso   1.00
O30    O     0.09060   0.62740   0.10640   0.01267  Uiso   1.00
O31    O     0.48133   0.96539   0.56412   0.01267  Uiso   1.00
O32    O     0.37679   0.99829   0.49488   0.01267  Uiso   1.00
O33    O     0.52733   0.62759   0.51132   0.01267  Uiso   1.00
O34    O     0.48093   0.57647   0.56420   0.01267  Uiso   1.00
O35    O     0.52100   0.98420   0.89360   0.01267  Uiso   1.00
O36    O     0.08279   0.59873   0.56412   0.01267  Uiso   1.00
O37    O     0.11809   0.49659   0.49488   0.01267  Uiso   1.00
O38    O     0.98399   0.88373   0.51132   0.01267  Uiso   1.00
O39    O     0.08327   0.98773   0.56420   0.01267  Uiso   1.00
O40    O     0.37260   0.90940   0.89360   0.01267  Uiso   1.00
