data_CAJQEL_clean
_audit_creation_date              2014-07-02
_audit_creation_method            'Materials Studio'
_symmetry_space_group_name_H-M    'P1'
_symmetry_Int_Tables_number       1
_symmetry_cell_setting            triclinic
loop_
_symmetry_equiv_pos_as_xyz
  x,y,z
_cell_length_a                    18.3489
_cell_length_b                    18.3490
_cell_length_c                    19.8664
_cell_angle_alpha                 64.5275
_cell_angle_beta                  64.5277
_cell_angle_gamma                 93.9399
loop_
_atom_site_label
_atom_site_type_symbol
_atom_site_fract_x
_atom_site_fract_y
_atom_site_fract_z
_atom_site_U_iso_or_equiv
_atom_site_adp_type
_atom_site_occupancy
Cu1    Cu    0.43476   0.00302   0.56222   0.01267  Uiso   1.00
Cu2    Cu    0.00302   0.43476   0.56222   0.01267  Uiso   1.00
Cu3    Cu    0.99698   0.56524   0.43778   0.01267  Uiso   1.00
Cu4    Cu    0.56524   0.99698   0.43778   0.01267  Uiso   1.00
Cu5    Cu    0.99107   0.99107   0.44056   0.01267  Uiso   1.00
Cu6    Cu    0.56837   0.56837   0.44056   0.01267  Uiso   1.00
Cu7    Cu    0.00893   0.00893   0.55944   0.01267  Uiso   1.00
Cu8    Cu    0.43163   0.43163   0.55944   0.01267  Uiso   1.00
H1     H     0.75020   0.98240   0.72960   0.01267  Uiso   1.00
H2     H     0.53900   0.99080   0.72300   0.01267  Uiso   1.00
H3     H     0.73290   0.97930   0.53180   0.01267  Uiso   1.00
H4     H     0.48840   0.96380   0.85320   0.01267  Uiso   1.00
H5     H     0.53900   0.06380   0.79800   0.01267  Uiso   1.00
H6     H     0.52020   0.28800   0.72960   0.01267  Uiso   1.00
H7     H     0.73800   0.28620   0.72300   0.01267  Uiso   1.00
H8     H     0.73530   0.48890   0.53180   0.01267  Uiso   1.00
H9     H     0.65840   0.18300   0.85320   0.01267  Uiso   1.00
H10    H     0.66300   0.13820   0.79800   0.01267  Uiso   1.00
H11    H     0.01760   0.24980   0.27040   0.01267  Uiso   1.00
H12    H     0.00920   0.46100   0.27700   0.01267  Uiso   1.00
H13    H     0.02070   0.26710   0.46820   0.01267  Uiso   1.00
H14    H     0.03620   0.51160   0.14680   0.01267  Uiso   1.00
H15    H     0.93620   0.46100   0.20200   0.01267  Uiso   1.00
H16    H     0.71200   0.47980   0.27040   0.01267  Uiso   1.00
H17    H     0.71380   0.26200   0.27700   0.01267  Uiso   1.00
H18    H     0.51110   0.26470   0.46820   0.01267  Uiso   1.00
H19    H     0.81700   0.34160   0.14680   0.01267  Uiso   1.00
H20    H     0.86180   0.33700   0.20200   0.01267  Uiso   1.00
H21    H     0.24980   0.01760   0.27040   0.01267  Uiso   1.00
H22    H     0.46100   0.00920   0.27700   0.01267  Uiso   1.00
H23    H     0.26710   0.02070   0.46820   0.01267  Uiso   1.00
H24    H     0.51160   0.03620   0.14680   0.01267  Uiso   1.00
H25    H     0.46100   0.93620   0.20200   0.01267  Uiso   1.00
H26    H     0.47980   0.71200   0.27040   0.01267  Uiso   1.00
H27    H     0.26200   0.71380   0.27700   0.01267  Uiso   1.00
H28    H     0.26470   0.51110   0.46820   0.01267  Uiso   1.00
H29    H     0.34160   0.81700   0.14680   0.01267  Uiso   1.00
H30    H     0.33700   0.86180   0.20200   0.01267  Uiso   1.00
H31    H     0.98240   0.75020   0.72960   0.01267  Uiso   1.00
H32    H     0.99080   0.53900   0.72300   0.01267  Uiso   1.00
H33    H     0.97930   0.73290   0.53180   0.01267  Uiso   1.00
H34    H     0.96380   0.48840   0.85320   0.01267  Uiso   1.00
H35    H     0.06380   0.53900   0.79800   0.01267  Uiso   1.00
H36    H     0.28800   0.52020   0.72960   0.01267  Uiso   1.00
H37    H     0.28620   0.73800   0.72300   0.01267  Uiso   1.00
H38    H     0.48890   0.73530   0.53180   0.01267  Uiso   1.00
H39    H     0.18300   0.65840   0.85320   0.01267  Uiso   1.00
H40    H     0.13820   0.66300   0.79800   0.01267  Uiso   1.00
H41    H     0.43620   0.88660   1.00000   0.01267  Uiso   1.00
H42    H     0.56380   0.11340   1.00000   0.01267  Uiso   1.00
H43    H     0.11340   0.56380   0.00000   0.01267  Uiso   1.00
H44    H     0.88660   0.43620   0.00000   0.01267  Uiso   1.00
C1     C     0.84870   0.98310   0.58040   0.01267  Uiso   1.00
C2     C     0.75722   0.98022   0.62196   0.01267  Uiso   1.00
C3     C     0.71920   0.98340   0.70140   0.01267  Uiso   1.00
C4     C     0.63906   0.98766   0.73448   0.01267  Uiso   1.00
C5     C     0.59509   0.98789   0.69762   0.01267  Uiso   1.00
C6     C     0.62832   0.98392   0.62096   0.01267  Uiso   1.00
C7     C     0.70935   0.98095   0.58390   0.01267  Uiso   1.00
C8     C     0.53490   0.00730   0.84060   0.01267  Uiso   1.00
C9     C     0.51952   0.00492   0.92196   0.01267  Uiso   1.00
C10    C     0.57740   0.98720   0.57840   0.01267  Uiso   1.00
C11    C     0.57090   0.43650   0.58040   0.01267  Uiso   1.00
C12    C     0.62082   0.39782   0.62196   0.01267  Uiso   1.00
C13    C     0.57940   0.31520   0.70140   0.01267  Uiso   1.00
C14    C     0.62646   0.27786   0.73448   0.01267  Uiso   1.00
C15    C     0.70729   0.31449   0.69762   0.01267  Uiso   1.00
C16    C     0.75072   0.39512   0.62096   0.01267  Uiso   1.00
C17    C     0.70675   0.43515   0.58390   0.01267  Uiso   1.00
C18    C     0.62450   0.15210   0.84060   0.01267  Uiso   1.00
C19    C     0.55852   0.07312   0.92196   0.01267  Uiso   1.00
C20    C     0.84420   0.43440   0.57840   0.01267  Uiso   1.00
C21    C     0.01690   0.15130   0.41960   0.01267  Uiso   1.00
C22    C     0.01978   0.24278   0.37804   0.01267  Uiso   1.00
C23    C     0.01660   0.28080   0.29860   0.01267  Uiso   1.00
C24    C     0.01234   0.36094   0.26552   0.01267  Uiso   1.00
C25    C     0.01211   0.40491   0.30238   0.01267  Uiso   1.00
C26    C     0.01608   0.37168   0.37904   0.01267  Uiso   1.00
C27    C     0.01905   0.29065   0.41610   0.01267  Uiso   1.00
C28    C     0.99270   0.46510   0.15940   0.01267  Uiso   1.00
C29    C     0.99508   0.48048   0.07804   0.01267  Uiso   1.00
C30    C     0.01280   0.42260   0.42160   0.01267  Uiso   1.00
C31    C     0.56350   0.42910   0.41960   0.01267  Uiso   1.00
C32    C     0.60218   0.37918   0.37804   0.01267  Uiso   1.00
C33    C     0.68480   0.42060   0.29860   0.01267  Uiso   1.00
C34    C     0.72214   0.37354   0.26552   0.01267  Uiso   1.00
C35    C     0.68551   0.29271   0.30238   0.01267  Uiso   1.00
C36    C     0.60488   0.24928   0.37904   0.01267  Uiso   1.00
C37    C     0.56485   0.29325   0.41610   0.01267  Uiso   1.00
C38    C     0.84790   0.37550   0.15940   0.01267  Uiso   1.00
C39    C     0.92688   0.44148   0.07804   0.01267  Uiso   1.00
C40    C     0.56560   0.15580   0.42160   0.01267  Uiso   1.00
C41    C     0.15130   0.01690   0.41960   0.01267  Uiso   1.00
C42    C     0.24278   0.01978   0.37804   0.01267  Uiso   1.00
C43    C     0.28080   0.01660   0.29860   0.01267  Uiso   1.00
C44    C     0.36094   0.01234   0.26552   0.01267  Uiso   1.00
C45    C     0.40491   0.01211   0.30238   0.01267  Uiso   1.00
C46    C     0.37168   0.01608   0.37904   0.01267  Uiso   1.00
C47    C     0.29065   0.01905   0.41610   0.01267  Uiso   1.00
C48    C     0.46510   0.99270   0.15940   0.01267  Uiso   1.00
C49    C     0.48048   0.99508   0.07804   0.01267  Uiso   1.00
C50    C     0.42260   0.01280   0.42160   0.01267  Uiso   1.00
C51    C     0.42910   0.56350   0.41960   0.01267  Uiso   1.00
C52    C     0.37918   0.60218   0.37804   0.01267  Uiso   1.00
C53    C     0.42060   0.68480   0.29860   0.01267  Uiso   1.00
C54    C     0.37354   0.72214   0.26552   0.01267  Uiso   1.00
C55    C     0.29271   0.68551   0.30238   0.01267  Uiso   1.00
C56    C     0.24928   0.60488   0.37904   0.01267  Uiso   1.00
C57    C     0.29325   0.56485   0.41610   0.01267  Uiso   1.00
C58    C     0.37550   0.84790   0.15940   0.01267  Uiso   1.00
C59    C     0.44148   0.92688   0.07804   0.01267  Uiso   1.00
C60    C     0.15580   0.56560   0.42160   0.01267  Uiso   1.00
C61    C     0.98310   0.84870   0.58040   0.01267  Uiso   1.00
C62    C     0.98022   0.75722   0.62196   0.01267  Uiso   1.00
C63    C     0.98340   0.71920   0.70140   0.01267  Uiso   1.00
C64    C     0.98766   0.63906   0.73448   0.01267  Uiso   1.00
C65    C     0.98789   0.59509   0.69762   0.01267  Uiso   1.00
C66    C     0.98392   0.62832   0.62096   0.01267  Uiso   1.00
C67    C     0.98095   0.70935   0.58390   0.01267  Uiso   1.00
C68    C     0.00730   0.53490   0.84060   0.01267  Uiso   1.00
C69    C     0.00492   0.51952   0.92196   0.01267  Uiso   1.00
C70    C     0.98720   0.57740   0.57840   0.01267  Uiso   1.00
C71    C     0.43650   0.57090   0.58040   0.01267  Uiso   1.00
C72    C     0.39782   0.62082   0.62196   0.01267  Uiso   1.00
C73    C     0.31520   0.57940   0.70140   0.01267  Uiso   1.00
C74    C     0.27786   0.62646   0.73448   0.01267  Uiso   1.00
C75    C     0.31449   0.70729   0.69762   0.01267  Uiso   1.00
C76    C     0.39512   0.75072   0.62096   0.01267  Uiso   1.00
C77    C     0.43515   0.70675   0.58390   0.01267  Uiso   1.00
C78    C     0.15210   0.62450   0.84060   0.01267  Uiso   1.00
C79    C     0.07312   0.55852   0.92196   0.01267  Uiso   1.00
C80    C     0.43440   0.84420   0.57840   0.01267  Uiso   1.00
C81    C     0.46220   0.93320   1.00000   0.01267  Uiso   1.00
C82    C     0.53780   0.06680   1.00000   0.01267  Uiso   1.00
C83    C     0.06680   0.53780  -0.00000   0.01267  Uiso   1.00
C84    C     0.93320   0.46220   0.00000   0.01267  Uiso   1.00
O1     O     0.87410   0.97468   0.51372   0.01267  Uiso   1.00
O2     O     0.50447   0.98995   0.61418   0.01267  Uiso   1.00
O3     O     0.88876   0.98880   0.61552   0.01267  Uiso   1.00
O4     O     0.61517   0.98519   0.50924   0.01267  Uiso   1.00
O5     O     0.61044   0.99038   0.81008   0.01267  Uiso   1.00
O6     O     0.61218   0.51160   0.51372   0.01267  Uiso   1.00
O7     O     0.88135   0.39587   0.61418   0.01267  Uiso   1.00
O8     O     0.49572   0.39568   0.61552   0.01267  Uiso   1.00
O9     O     0.87559   0.50557   0.50924   0.01267  Uiso   1.00
O10    O     0.57948   0.19954   0.81008   0.01267  Uiso   1.00
O11    O     0.02532   0.12590   0.48628   0.01267  Uiso   1.00
O12    O     0.01005   0.49553   0.38582   0.01267  Uiso   1.00
O13    O     0.01120   0.11124   0.38448   0.01267  Uiso   1.00
O14    O     0.01481   0.38483   0.49076   0.01267  Uiso   1.00
O15    O     0.00962   0.38956   0.18992   0.01267  Uiso   1.00
O16    O     0.48840   0.38782   0.48628   0.01267  Uiso   1.00
O17    O     0.60413   0.11865   0.38582   0.01267  Uiso   1.00
O18    O     0.60432   0.50428   0.38448   0.01267  Uiso   1.00
O19    O     0.49443   0.12441   0.49076   0.01267  Uiso   1.00
O20    O     0.80046   0.42052   0.18992   0.01267  Uiso   1.00
O21    O     0.12590   0.02532   0.48628   0.01267  Uiso   1.00
O22    O     0.49553   0.01005   0.38582   0.01267  Uiso   1.00
O23    O     0.11124   0.01120   0.38448   0.01267  Uiso   1.00
O24    O     0.38483   0.01481   0.49076   0.01267  Uiso   1.00
O25    O     0.38956   0.00962   0.18992   0.01267  Uiso   1.00
O26    O     0.38782   0.48840   0.48628   0.01267  Uiso   1.00
O27    O     0.11865   0.60413   0.38582   0.01267  Uiso   1.00
O28    O     0.50428   0.60432   0.38448   0.01267  Uiso   1.00
O29    O     0.12441   0.49443   0.49076   0.01267  Uiso   1.00
O30    O     0.42052   0.80046   0.18992   0.01267  Uiso   1.00
O31    O     0.97468   0.87410   0.51372   0.01267  Uiso   1.00
O32    O     0.98995   0.50447   0.61418   0.01267  Uiso   1.00
O33    O     0.98880   0.88876   0.61552   0.01267  Uiso   1.00
O34    O     0.98519   0.61517   0.50924   0.01267  Uiso   1.00
O35    O     0.99038   0.61044   0.81008   0.01267  Uiso   1.00
O36    O     0.51160   0.61218   0.51372   0.01267  Uiso   1.00
O37    O     0.39587   0.88135   0.61418   0.01267  Uiso   1.00
O38    O     0.39568   0.49572   0.61552   0.01267  Uiso   1.00
O39    O     0.50557   0.87559   0.50924   0.01267  Uiso   1.00
O40    O     0.19954   0.57948   0.81008   0.01267  Uiso   1.00
