data_CAJVUG_charged
_audit_creation_date              2014-07-02
_audit_creation_method            'Materials Studio'
_symmetry_space_group_name_H-M    'P1'
_symmetry_Int_Tables_number       1
_symmetry_cell_setting            triclinic
loop_
_symmetry_equiv_pos_as_xyz
  x,y,z
_cell_length_a                    9.8480
_cell_length_b                    9.8480
_cell_length_c                    35.0588
_cell_angle_alpha                 90.0000
_cell_angle_beta                  90.0000
_cell_angle_gamma                 90.0000
loop_
_atom_site_label
_atom_site_type_symbol
_atom_site_fract_x
_atom_site_fract_y
_atom_site_fract_z
_atom_site_U_iso_or_equiv
_atom_site_adp_type
_atom_site_occupancy
In1    In    0.84869   0.76937   0.06417   0.01267  Uiso   1.00
In2    In    0.15131   0.23063   0.56417   0.01267  Uiso   1.00
H1     H     0.84810   0.27750   0.06500   0.01267  Uiso   1.00
H2     H     0.75110   0.07120   0.96820   0.01267  Uiso   1.00
H3     H     0.78970   0.47500   0.96410   0.01267  Uiso   1.00
H4     H     0.44790   0.25330   0.66780   0.01267  Uiso   1.00
H5     H     0.85920   0.24870   0.66420   0.01267  Uiso   1.00
H6     H     0.64350   0.23670   0.56760   0.01267  Uiso   1.00
H7     H     0.83140   0.37110   0.71800   0.01267  Uiso   1.00
H8     H     0.49170   0.17870   0.79350   0.01267  Uiso   1.00
H9     H     0.48940   0.16270   0.72720   0.01267  Uiso   1.00
H10    H     0.59660   0.11860   0.91620   0.01267  Uiso   1.00
H11    H     0.55570   0.12370   0.85030   0.01267  Uiso   1.00
H12    H     0.87220   0.42250   0.90500   0.01267  Uiso   1.00
H13    H     0.81180   0.53820   0.82370   0.01267  Uiso   1.00
H14    H     0.95010   0.48730   0.84310   0.01267  Uiso   1.00
H15    H     0.95350   0.45610   0.77520   0.01267  Uiso   1.00
H16    H     0.97360   0.31480   0.79730   0.01267  Uiso   1.00
H17    H     0.15190   0.72250   0.56500   0.01267  Uiso   1.00
H18    H     0.24890   0.92880   0.46820   0.01267  Uiso   1.00
H19    H     0.21030   0.52500   0.46410   0.01267  Uiso   1.00
H20    H     0.55210   0.74670   0.16780   0.01267  Uiso   1.00
H21    H     0.14080   0.75130   0.16420   0.01267  Uiso   1.00
H22    H     0.35650   0.76330   0.06760   0.01267  Uiso   1.00
H23    H     0.16860   0.62890   0.21800   0.01267  Uiso   1.00
H24    H     0.50830   0.82130   0.29350   0.01267  Uiso   1.00
H25    H     0.51060   0.83730   0.22720   0.01267  Uiso   1.00
H26    H     0.40340   0.88140   0.41620   0.01267  Uiso   1.00
H27    H     0.44430   0.87630   0.35030   0.01267  Uiso   1.00
H28    H     0.12780   0.57750   0.40500   0.01267  Uiso   1.00
H29    H     0.18820   0.46180   0.32370   0.01267  Uiso   1.00
H30    H     0.04990   0.51270   0.34310   0.01267  Uiso   1.00
H31    H     0.04650   0.54390   0.27520   0.01267  Uiso   1.00
H32    H     0.02640   0.68520   0.29730   0.01267  Uiso   1.00
C1     C     0.82150   0.39420   0.01710   0.01267  Uiso   1.00
C2     C     0.82860   0.27630   0.03850   0.01267  Uiso   1.00
C3     C     0.80500   0.15380   0.01850   0.01267  Uiso   1.00
C4     C     0.77050   0.15520   0.98040   0.01267  Uiso   1.00
C5     C     0.76320   0.26890   0.95980   0.01267  Uiso   1.00
C6     C     0.79130   0.39250   0.97810   0.01267  Uiso   1.00
C7     C     0.52760   0.24680   0.61520   0.01267  Uiso   1.00
C8     C     0.53090   0.25320   0.65400   0.01267  Uiso   1.00
C9     C     0.65470   0.25970   0.67410   0.01267  Uiso   1.00
C10    C     0.77350   0.24980   0.65180   0.01267  Uiso   1.00
C11    C     0.76890   0.24180   0.61280   0.01267  Uiso   1.00
C12    C     0.64670   0.24110   0.59470   0.01267  Uiso   1.00
C13    C     0.66060   0.26570   0.71610   0.01267  Uiso   1.00
C14    C     0.76460   0.32790   0.73330   0.01267  Uiso   1.00
C15    C     0.77880   0.33170   0.77240   0.01267  Uiso   1.00
C16    C     0.68040   0.26890   0.79550   0.01267  Uiso   1.00
C17    C     0.56500   0.21250   0.77860   0.01267  Uiso   1.00
C18    C     0.56300   0.20820   0.73910   0.01267  Uiso   1.00
C19    C     0.73770   0.26940   0.91800   0.01267  Uiso   1.00
C20    C     0.64520   0.18130   0.90080   0.01267  Uiso   1.00
C21    C     0.62180   0.18270   0.86110   0.01267  Uiso   1.00
C22    C     0.69750   0.27300   0.83680   0.01267  Uiso   1.00
C23    C     0.78890   0.36130   0.85390   0.01267  Uiso   1.00
C24    C     0.80930   0.36060   0.89400   0.01267  Uiso   1.00
C25    C     0.39020   0.23620   0.59600   0.01267  Uiso   1.00
C26    C     0.84380   0.52270   0.03580   0.01267  Uiso   1.00
C27    C     0.82200   0.02380   0.03820   0.01267  Uiso   1.00
C28    C     0.90130   0.23510   0.59150   0.01267  Uiso   1.00
C29    C     0.86780   0.45710   0.82930   0.01267  Uiso   1.00
C30    C     0.90870   0.38930   0.79210   0.01267  Uiso   1.00
C31    C     0.17850   0.60580   0.51710   0.01267  Uiso   1.00
C32    C     0.17140   0.72370   0.53850   0.01267  Uiso   1.00
C33    C     0.19500   0.84620   0.51850   0.01267  Uiso   1.00
C34    C     0.22950   0.84480   0.48040   0.01267  Uiso   1.00
C35    C     0.23680   0.73110   0.45980   0.01267  Uiso   1.00
C36    C     0.20870   0.60750   0.47810   0.01267  Uiso   1.00
C37    C     0.47240   0.75320   0.11520   0.01267  Uiso   1.00
C38    C     0.46910   0.74680   0.15400   0.01267  Uiso   1.00
C39    C     0.34530   0.74030   0.17410   0.01267  Uiso   1.00
C40    C     0.22650   0.75020   0.15180   0.01267  Uiso   1.00
C41    C     0.23110   0.75820   0.11280   0.01267  Uiso   1.00
C42    C     0.35330   0.75890   0.09470   0.01267  Uiso   1.00
C43    C     0.33940   0.73430   0.21610   0.01267  Uiso   1.00
C44    C     0.23540   0.67210   0.23330   0.01267  Uiso   1.00
C45    C     0.22120   0.66830   0.27240   0.01267  Uiso   1.00
C46    C     0.31960   0.73110   0.29550   0.01267  Uiso   1.00
C47    C     0.43500   0.78750   0.27860   0.01267  Uiso   1.00
C48    C     0.43700   0.79180   0.23910   0.01267  Uiso   1.00
C49    C     0.26230   0.73060   0.41800   0.01267  Uiso   1.00
C50    C     0.35480   0.81870   0.40080   0.01267  Uiso   1.00
C51    C     0.37820   0.81730   0.36110   0.01267  Uiso   1.00
C52    C     0.30250   0.72700   0.33680   0.01267  Uiso   1.00
C53    C     0.21110   0.63870   0.35390   0.01267  Uiso   1.00
C54    C     0.19070   0.63940   0.39400   0.01267  Uiso   1.00
C55    C     0.60980   0.76380   0.09600   0.01267  Uiso   1.00
C56    C     0.15620   0.47730   0.53580   0.01267  Uiso   1.00
C57    C     0.17800   0.97620   0.53820   0.01267  Uiso   1.00
C58    C     0.09870   0.76490   0.09150   0.01267  Uiso   1.00
C59    C     0.13220   0.54290   0.32930   0.01267  Uiso   1.00
C60    C     0.09130   0.61070   0.29210   0.01267  Uiso   1.00
O1     O     0.85200   0.53750   0.07194   0.01267  Uiso   1.00
O2     O     0.00680   0.22030   0.61102   0.01267  Uiso   1.00
O3     O     0.28450   0.23620   0.61612   0.01267  Uiso   1.00
O4     O     0.83700   0.91560   0.01782   0.01267  Uiso   1.00
O5     O     0.85040   0.63110   0.01440   0.01267  Uiso   1.00
O6     O     0.90590   0.23100   0.55630   0.01267  Uiso   1.00
O7     O     0.38230   0.24890   0.56090   0.01267  Uiso   1.00
O8     O     0.83090   0.01110   0.07327   0.01267  Uiso   1.00
O9     O     0.14800   0.46250   0.57194   0.01267  Uiso   1.00
O10    O     0.99320   0.77970   0.11102   0.01267  Uiso   1.00
O11    O     0.71550   0.76380   0.11612   0.01267  Uiso   1.00
O12    O     0.16300   0.08440   0.51782   0.01267  Uiso   1.00
O13    O     0.14960   0.36890   0.51440   0.01267  Uiso   1.00
O14    O     0.09410   0.76900   0.05630   0.01267  Uiso   1.00
O15    O     0.61770   0.75110   0.06090   0.01267  Uiso   1.00
O16    O     0.16910   0.98890   0.57327   0.01267  Uiso   1.00
In3    In    0.23063   0.84869   0.81417   0.01267  Uiso   1.00
In4    In    0.76937   0.15131   0.31417   0.01267  Uiso   1.00
H33    H     0.72250   0.84810   0.81500   0.01267  Uiso   1.00
H34    H     0.92880   0.75110   0.71820   0.01267  Uiso   1.00
H35    H     0.52500   0.78970   0.71410   0.01267  Uiso   1.00
H36    H     0.74670   0.44790   0.41780   0.01267  Uiso   1.00
H37    H     0.75130   0.85920   0.41420   0.01267  Uiso   1.00
H38    H     0.76330   0.64350   0.31760   0.01267  Uiso   1.00
H39    H     0.62890   0.83140   0.46800   0.01267  Uiso   1.00
H40    H     0.82130   0.49170   0.54350   0.01267  Uiso   1.00
H41    H     0.83730   0.48940   0.47720   0.01267  Uiso   1.00
H42    H     0.88140   0.59660   0.66620   0.01267  Uiso   1.00
H43    H     0.87630   0.55570   0.60030   0.01267  Uiso   1.00
H44    H     0.57750   0.87220   0.65500   0.01267  Uiso   1.00
H45    H     0.46180   0.81180   0.57370   0.01267  Uiso   1.00
H46    H     0.51270   0.95010   0.59310   0.01267  Uiso   1.00
H47    H     0.54390   0.95350   0.52520   0.01267  Uiso   1.00
H48    H     0.68520   0.97360   0.54730   0.01267  Uiso   1.00
H49    H     0.27750   0.15190   0.31500   0.01267  Uiso   1.00
H50    H     0.07120   0.24890   0.21820   0.01267  Uiso   1.00
H51    H     0.47500   0.21030   0.21410   0.01267  Uiso   1.00
H52    H     0.25330   0.55210   0.91780   0.01267  Uiso   1.00
H53    H     0.24870   0.14080   0.91420   0.01267  Uiso   1.00
H54    H     0.23670   0.35650   0.81760   0.01267  Uiso   1.00
H55    H     0.37110   0.16860   0.96800   0.01267  Uiso   1.00
H56    H     0.17870   0.50830   0.04350   0.01267  Uiso   1.00
H57    H     0.16270   0.51060   0.97720   0.01267  Uiso   1.00
H58    H     0.11860   0.40340   0.16620   0.01267  Uiso   1.00
H59    H     0.12370   0.44430   0.10030   0.01267  Uiso   1.00
H60    H     0.42250   0.12780   0.15500   0.01267  Uiso   1.00
H61    H     0.53820   0.18820   0.07370   0.01267  Uiso   1.00
H62    H     0.48730   0.04990   0.09310   0.01267  Uiso   1.00
H63    H     0.45610   0.04650   0.02520   0.01267  Uiso   1.00
H64    H     0.31480   0.02640   0.04730   0.01267  Uiso   1.00
C61    C     0.60580   0.82150   0.76710   0.01267  Uiso   1.00
C62    C     0.72370   0.82860   0.78850   0.01267  Uiso   1.00
C63    C     0.84620   0.80500   0.76850   0.01267  Uiso   1.00
C64    C     0.84480   0.77050   0.73040   0.01267  Uiso   1.00
C65    C     0.73110   0.76320   0.70980   0.01267  Uiso   1.00
C66    C     0.60750   0.79130   0.72810   0.01267  Uiso   1.00
C67    C     0.75320   0.52760   0.36520   0.01267  Uiso   1.00
C68    C     0.74680   0.53090   0.40400   0.01267  Uiso   1.00
C69    C     0.74030   0.65470   0.42410   0.01267  Uiso   1.00
C70    C     0.75020   0.77350   0.40180   0.01267  Uiso   1.00
C71    C     0.75820   0.76890   0.36280   0.01267  Uiso   1.00
C72    C     0.75890   0.64670   0.34470   0.01267  Uiso   1.00
C73    C     0.73430   0.66060   0.46610   0.01267  Uiso   1.00
C74    C     0.67210   0.76460   0.48330   0.01267  Uiso   1.00
C75    C     0.66830   0.77880   0.52240   0.01267  Uiso   1.00
C76    C     0.73110   0.68040   0.54550   0.01267  Uiso   1.00
C77    C     0.78750   0.56500   0.52860   0.01267  Uiso   1.00
C78    C     0.79180   0.56300   0.48910   0.01267  Uiso   1.00
C79    C     0.73060   0.73770   0.66800   0.01267  Uiso   1.00
C80    C     0.81870   0.64520   0.65080   0.01267  Uiso   1.00
C81    C     0.81730   0.62180   0.61110   0.01267  Uiso   1.00
C82    C     0.72700   0.69750   0.58680   0.01267  Uiso   1.00
C83    C     0.63870   0.78890   0.60390   0.01267  Uiso   1.00
C84    C     0.63940   0.80930   0.64400   0.01267  Uiso   1.00
C85    C     0.76380   0.39020   0.34600   0.01267  Uiso   1.00
C86    C     0.47730   0.84380   0.78580   0.01267  Uiso   1.00
C87    C     0.97620   0.82200   0.78820   0.01267  Uiso   1.00
C88    C     0.76490   0.90130   0.34150   0.01267  Uiso   1.00
C89    C     0.54290   0.86780   0.57930   0.01267  Uiso   1.00
C90    C     0.61070   0.90870   0.54210   0.01267  Uiso   1.00
C91    C     0.39420   0.17850   0.26710   0.01267  Uiso   1.00
C92    C     0.27630   0.17140   0.28850   0.01267  Uiso   1.00
C93    C     0.15380   0.19500   0.26850   0.01267  Uiso   1.00
C94    C     0.15520   0.22950   0.23040   0.01267  Uiso   1.00
C95    C     0.26890   0.23680   0.20980   0.01267  Uiso   1.00
C96    C     0.39250   0.20870   0.22810   0.01267  Uiso   1.00
C97    C     0.24680   0.47240   0.86520   0.01267  Uiso   1.00
C98    C     0.25320   0.46910   0.90400   0.01267  Uiso   1.00
C99    C     0.25970   0.34530   0.92410   0.01267  Uiso   1.00
C100   C     0.24980   0.22650   0.90180   0.01267  Uiso   1.00
C101   C     0.24180   0.23110   0.86280   0.01267  Uiso   1.00
C102   C     0.24110   0.35330   0.84470   0.01267  Uiso   1.00
C103   C     0.26570   0.33940   0.96610   0.01267  Uiso   1.00
C104   C     0.32790   0.23540   0.98330   0.01267  Uiso   1.00
C105   C     0.33170   0.22120   0.02240   0.01267  Uiso   1.00
C106   C     0.26890   0.31960   0.04550   0.01267  Uiso   1.00
C107   C     0.21250   0.43500   0.02860   0.01267  Uiso   1.00
C108   C     0.20820   0.43700   0.98910   0.01267  Uiso   1.00
C109   C     0.26940   0.26230   0.16800   0.01267  Uiso   1.00
C110   C     0.18130   0.35480   0.15080   0.01267  Uiso   1.00
C111   C     0.18270   0.37820   0.11110   0.01267  Uiso   1.00
C112   C     0.27300   0.30250   0.08680   0.01267  Uiso   1.00
C113   C     0.36130   0.21110   0.10390   0.01267  Uiso   1.00
C114   C     0.36060   0.19070   0.14400   0.01267  Uiso   1.00
C115   C     0.23620   0.60980   0.84600   0.01267  Uiso   1.00
C116   C     0.52270   0.15620   0.28580   0.01267  Uiso   1.00
C117   C     0.02380   0.17800   0.28820   0.01267  Uiso   1.00
C118   C     0.23510   0.09870   0.84150   0.01267  Uiso   1.00
C119   C     0.45710   0.13220   0.07930   0.01267  Uiso   1.00
C120   C     0.38930   0.09130   0.04210   0.01267  Uiso   1.00
O17    O     0.46250   0.85200   0.82194   0.01267  Uiso   1.00
O18    O     0.77970   0.00680   0.36102   0.01267  Uiso   1.00
O19    O     0.76380   0.28450   0.36612   0.01267  Uiso   1.00
O20    O     0.08440   0.83700   0.76782   0.01267  Uiso   1.00
O21    O     0.36890   0.85040   0.76440   0.01267  Uiso   1.00
O22    O     0.76900   0.90590   0.30630   0.01267  Uiso   1.00
O23    O     0.75110   0.38230   0.31090   0.01267  Uiso   1.00
O24    O     0.98890   0.83090   0.82327   0.01267  Uiso   1.00
O25    O     0.53750   0.14800   0.32194   0.01267  Uiso   1.00
O26    O     0.22030   0.99320   0.86102   0.01267  Uiso   1.00
O27    O     0.23620   0.71550   0.86612   0.01267  Uiso   1.00
O28    O     0.91560   0.16300   0.26782   0.01267  Uiso   1.00
O29    O     0.63110   0.14960   0.26440   0.01267  Uiso   1.00
O30    O     0.23100   0.09410   0.80630   0.01267  Uiso   1.00
O31    O     0.24890   0.61770   0.81090   0.01267  Uiso   1.00
O32    O     0.01110   0.16910   0.32327   0.01267  Uiso   1.00
H65    H     0.09510   0.83930   0.89940   0.01267  Uiso   1.00
H66    H     0.07470   0.84890   0.94120   0.01267  Uiso   1.00
H67    H     0.01420   0.03390   0.91310   0.01267  Uiso   1.00
H68    H     0.90600   0.94790   0.88900   0.01267  Uiso   1.00
H69    H     0.88960   0.96200   0.93430   0.01267  Uiso   1.00
H70    H     0.02340   0.64610   0.92220   0.01267  Uiso   1.00
H71    H     0.89110   0.72200   0.93790   0.01267  Uiso   1.00
H72    H     0.91620   0.70980   0.89290   0.01267  Uiso   1.00
C121   C     0.95490   0.95400   0.91330   0.01267  Uiso   1.00
C122   C     0.96000   0.72100   0.91780   0.01267  Uiso   1.00
N1     N     0.03020   0.84190   0.91830   0.01267  Uiso   1.00
H73    H     0.90490   0.16070   0.39940   0.01267  Uiso   1.00
H74    H     0.92530   0.15110   0.44120   0.01267  Uiso   1.00
H75    H     0.98580   0.96610   0.41310   0.01267  Uiso   1.00
H76    H     0.09400   0.05210   0.38900   0.01267  Uiso   1.00
H77    H     0.11040   0.03800   0.43430   0.01267  Uiso   1.00
H78    H     0.97660   0.35390   0.42220   0.01267  Uiso   1.00
H79    H     0.10890   0.27800   0.43790   0.01267  Uiso   1.00
H80    H     0.08380   0.29020   0.39290   0.01267  Uiso   1.00
C123   C     0.04510   0.04600   0.41330   0.01267  Uiso   1.00
C124   C     0.04000   0.27900   0.41780   0.01267  Uiso   1.00
N2     N     0.96980   0.15810   0.41830   0.01267  Uiso   1.00
H81    H     0.16070   0.09510   0.64940   0.01267  Uiso   1.00
H82    H     0.15110   0.07470   0.69120   0.01267  Uiso   1.00
H83    H     0.96610   0.01420   0.66310   0.01267  Uiso   1.00
H84    H     0.05210   0.90600   0.63900   0.01267  Uiso   1.00
H85    H     0.03800   0.88960   0.68430   0.01267  Uiso   1.00
H86    H     0.35390   0.02340   0.67220   0.01267  Uiso   1.00
H87    H     0.27800   0.89110   0.68790   0.01267  Uiso   1.00
H88    H     0.29020   0.91620   0.64290   0.01267  Uiso   1.00
C125   C     0.04600   0.95490   0.66330   0.01267  Uiso   1.00
C126   C     0.27900   0.96000   0.66780   0.01267  Uiso   1.00
N3     N     0.15810   0.03020   0.66830   0.01267  Uiso   1.00
H89    H     0.83930   0.90490   0.14940   0.01267  Uiso   1.00
H90    H     0.84890   0.92530   0.19120   0.01267  Uiso   1.00
H91    H     0.03390   0.98580   0.16310   0.01267  Uiso   1.00
H92    H     0.94790   0.09400   0.13900   0.01267  Uiso   1.00
H93    H     0.96200   0.11040   0.18430   0.01267  Uiso   1.00
H94    H     0.64610   0.97660   0.17220   0.01267  Uiso   1.00
H95    H     0.72200   0.10890   0.18790   0.01267  Uiso   1.00
H96    H     0.70980   0.08380   0.14290   0.01267  Uiso   1.00
C127   C     0.95400   0.04510   0.16330   0.01267  Uiso   1.00
C128   C     0.72100   0.04000   0.16780   0.01267  Uiso   1.00
N4     N     0.84190   0.96980   0.16830   0.01267  Uiso   1.00
