data_CAJWIV_ion_b
_audit_creation_date              2014-07-02
_audit_creation_method            'Materials Studio'
_symmetry_space_group_name_H-M    'P1'
_symmetry_Int_Tables_number       1
_symmetry_cell_setting            triclinic
loop_
_symmetry_equiv_pos_as_xyz
  x,y,z
_cell_length_a                    23.1185
_cell_length_b                    23.1185
_cell_length_c                    9.9440
_cell_angle_alpha                 101.7787
_cell_angle_beta                  101.7787
_cell_angle_gamma                 24.3162
loop_
_atom_site_label
_atom_site_type_symbol
_atom_site_fract_x
_atom_site_fract_y
_atom_site_fract_z
_atom_site_U_iso_or_equiv
_atom_site_adp_type
_atom_site_occupancy
O1     O     0.09734   0.73903   0.63798   0.00000  Uiso   1.00
O2     O     0.07427   0.81920   0.50198   0.00000  Uiso   1.00
C3     C     0.31601   0.59009   0.61832   0.00000  Uiso   1.00
C4     C     0.35058   0.61882   0.65478   0.00000  Uiso   1.00
H5     H     0.26680   0.72670   0.65394   0.00000  Uiso   1.00
C6     C     0.42183   0.67999   0.78463   0.00000  Uiso   1.00
H7     H     0.31890   0.76004   0.80813   0.00000  Uiso   1.00
C8     C     0.45175   0.71332   0.81115   0.00000  Uiso   1.00
H9     H     0.37137   0.81727   0.85254   0.00000  Uiso   1.00
C10    C     0.51880   0.77724   0.77605   0.00000  Uiso   1.00
H11    H     0.41876   0.85276   0.72614   0.00000  Uiso   1.00
C12    C     0.55001   0.80933   0.80073   0.00000  Uiso   1.00
H13    H     0.47121   0.91090   0.77293   0.00000  Uiso   1.00
C14    C     0.79742   0.69527   0.00918   0.00000  Uiso   1.00
H15    H     0.83396   0.63571   0.08203   0.00000  Uiso   1.00
C16    C     0.83276   0.72285   0.03666   0.00000  Uiso   1.00
H17    H     0.89831   0.67981   0.12788   0.00000  Uiso   1.00
C18    C     0.70142   0.85479   0.83095   0.00000  Uiso   1.00
H19    H     0.66056   0.91917   0.76178   0.00000  Uiso   1.00
C20    C     0.66720   0.82550   0.80238   0.00000  Uiso   1.00
H21    H     0.60452   0.86468   0.70981   0.00000  Uiso   1.00
C22    C     0.16265   0.71409   0.58779   0.00000  Uiso   1.00
O23    O     0.30817   0.86394   0.46010   0.00000  Uiso   1.00
O24    O     0.16987   0.92593   0.34533   0.00000  Uiso   1.00
C25    C     0.43213   0.66153   0.36650   0.00000  Uiso   1.00
C26    C     0.40544   0.62552   0.31696   0.00000  Uiso   1.00
H27    H     0.29826   0.70946   0.28693   0.00000  Uiso   1.00
C28    C     0.34431   0.55264   0.29062   0.00000  Uiso   1.00
H29    H     0.26251   0.65660   0.33319   0.00000  Uiso   1.00
C30    C     0.31422   0.51964   0.26289   0.00000  Uiso   1.00
H31    H     0.21084   0.59930   0.28402   0.00000  Uiso   1.00
C32    C     0.25543   0.44625   0.12616   0.00000  Uiso   1.00
H33    H     0.17799   0.54644   0.09518   0.00000  Uiso   1.00
C34    C     0.22400   0.41467   0.10216   0.00000  Uiso   1.00
H35    H     0.12243   0.49263   0.05508   0.00000  Uiso   1.00
C36    C     0.30609   0.81631   0.39238   0.00000  Uiso   1.00
O37    O     0.90543   0.25762   0.36289   0.00000  Uiso   1.00
O38    O     0.92853   0.17754   0.49922   0.00000  Uiso   1.00
C39    C     0.68673   0.40665   0.38279   0.00000  Uiso   1.00
C40    C     0.65213   0.37797   0.34616   0.00000  Uiso   1.00
H41    H     0.73590   0.27006   0.34677   0.00000  Uiso   1.00
C42    C     0.58058   0.31710   0.21598   0.00000  Uiso   1.00
H43    H     0.68337   0.23723   0.19220   0.00000  Uiso   1.00
C44    C     0.55067   0.28375   0.18942   0.00000  Uiso   1.00
H45    H     0.63097   0.17990   0.14765   0.00000  Uiso   1.00
C46    C     0.48383   0.21961   0.22443   0.00000  Uiso   1.00
H47    H     0.58407   0.14386   0.27400   0.00000  Uiso   1.00
C48    C     0.45251   0.18763   0.19986   0.00000  Uiso   1.00
H49    H     0.53146   0.08589   0.22724   0.00000  Uiso   1.00
C50    C     0.20440   0.30244   0.99222   0.00000  Uiso   1.00
H51    H     0.16745   0.36240   0.91958   0.00000  Uiso   1.00
C52    C     0.16912   0.27479   0.96472   0.00000  Uiso   1.00
H53    H     0.10331   0.31810   0.87366   0.00000  Uiso   1.00
C54    C     0.30130   0.14201   0.16992   0.00000  Uiso   1.00
H55    H     0.34256   0.07724   0.23885   0.00000  Uiso   1.00
C56    C     0.33547   0.17135   0.19853   0.00000  Uiso   1.00
H57    H     0.39846   0.13185   0.29092   0.00000  Uiso   1.00
C58    C     0.84013   0.28262   0.41328   0.00000  Uiso   1.00
O59    O     0.69460   0.13283   0.54090   0.00000  Uiso   1.00
O60    O     0.83287   0.07082   0.65586   0.00000  Uiso   1.00
C61    C     0.57058   0.33527   0.63469   0.00000  Uiso   1.00
C62    C     0.59717   0.37139   0.68439   0.00000  Uiso   1.00
H63    H     0.70426   0.28754   0.71477   0.00000  Uiso   1.00
C64    C     0.65832   0.44425   0.71063   0.00000  Uiso   1.00
H65    H     0.74020   0.34018   0.66832   0.00000  Uiso   1.00
C66    C     0.68842   0.47722   0.73836   0.00000  Uiso   1.00
H67    H     0.79191   0.39746   0.71753   0.00000  Uiso   1.00
C68    C     0.74678   0.55107   0.87531   0.00000  Uiso   1.00
H69    H     0.82405   0.45106   0.90674   0.00000  Uiso   1.00
C70    C     0.77810   0.58276   0.89945   0.00000  Uiso   1.00
H71    H     0.87944   0.50506   0.94702   0.00000  Uiso   1.00
C72    C     0.69665   0.18047   0.60877   0.00000  Uiso   1.00
In73   In    0.90584   0.92395   0.54528   0.00000  Uiso   1.00
In74   In    0.09696   0.07278   0.45577   0.00000  Uiso   1.00
O75    O     0.88318   0.86853   0.40919   0.00000  Uiso   1.00
O76    O     0.89878   0.93574   0.35013   0.00000  Uiso   1.00
O77    O     0.90582   0.94444   0.86091   0.00000  Uiso   1.00
O78    O     0.87611   0.89507   0.67749   0.00000  Uiso   1.00
C79    C     0.42754   0.44653   0.60550   0.00000  Uiso   1.00
H80    H     0.40357   0.42186   0.56943   0.00000  Uiso   1.00
C81    C     0.48978   0.51165   0.69131   0.00000  Uiso   1.00
C82    C     0.52383   0.54545   0.73061   0.00000  Uiso   1.00
C83    C     0.58491   0.61270   0.78705   0.00000  Uiso   1.00
C84    C     0.61680   0.64789   0.81343   0.00000  Uiso   1.00
C85    C     0.68047   0.71219   0.86264   0.00000  Uiso   1.00
C86    C     0.71479   0.74534   0.89146   0.00000  Uiso   1.00
C87    C     0.78476   0.80387   0.94889   0.00000  Uiso   1.00
C88    C     0.81822   0.83808  -0.01496   0.00000  Uiso   1.00
C89    C     0.83285   0.85272   0.12471   0.00000  Uiso   1.00
H90    H     0.81267   0.84695   0.20438   0.00000  Uiso   1.00
C91    C     0.86954   0.87887   0.16393   0.00000  Uiso   1.00
C92    C     0.88781   0.89532   0.06285   0.00000  Uiso   1.00
H93    H     0.91491   0.91702   0.09445   0.00000  Uiso   1.00
C94    C     0.86922   0.88671   0.92227   0.00000  Uiso   1.00
C95    C     0.83604   0.85608   0.88368   0.00000  Uiso   1.00
H96    H     0.82544   0.84523   0.77567   0.00000  Uiso   1.00
C97    C     0.88444   0.89405   0.31056   0.00000  Uiso   1.00
C98    C     0.88456   0.91096   0.81963   0.00000  Uiso   1.00
O99    O     0.11955   0.12833   0.59179   0.00000  Uiso   1.00
O100   O     0.10403   0.06106   0.65086   0.00000  Uiso   1.00
O101   O     0.09770   0.05152   0.14015   0.00000  Uiso   1.00
O102   O     0.12652   0.10180   0.32348   0.00000  Uiso   1.00
C103   C     0.57520   0.55024   0.39562   0.00000  Uiso   1.00
H104   H     0.59913   0.57495   0.43153   0.00000  Uiso   1.00
C105   C     0.51285   0.48523   0.30974   0.00000  Uiso   1.00
C106   C     0.47873   0.45150   0.27037   0.00000  Uiso   1.00
C107   C     0.41762   0.38427   0.21390   0.00000  Uiso   1.00
C108   C     0.38569   0.34913   0.18750   0.00000  Uiso   1.00
C109   C     0.32181   0.28504   0.13848   0.00000  Uiso   1.00
C110   C     0.28743   0.25194   0.10970   0.00000  Uiso   1.00
C111   C     0.21759   0.19330   0.05221   0.00000  Uiso   1.00
C112   C     0.18426   0.15895   1.01601   0.00000  Uiso   1.00
C113   C     0.16951   0.14447   0.87632   0.00000  Uiso   1.00
H114   H     0.18933   0.15062   0.79661   0.00000  Uiso   1.00
C115   C     0.13320   0.11794   0.83707   0.00000  Uiso   1.00
C116   C     0.11537   0.10101   0.93814   0.00000  Uiso   1.00
H117   H     0.08875   0.07881   0.90655   0.00000  Uiso   1.00
C118   C     0.13382   0.10973   0.07872   0.00000  Uiso   1.00
C119   C     0.16672   0.14064   0.11732   0.00000  Uiso   1.00
H120   H     0.17733   0.15145   0.22535   0.00000  Uiso   1.00
C121   C     0.11832   0.10279   0.69044   0.00000  Uiso   1.00
C122   C     0.11855   0.08540   0.18138   0.00000  Uiso   1.00
Li123  Li    0.96656   0.98128   0.56346   0.00000  Uiso   1.00
O124   O    -0.00343   0.03492   0.77822   0.00000  Uiso   1.00
Li125  Li    0.03618   0.01551   0.43773   0.00000  Uiso   1.00
O126   O     0.97322   0.98009   0.20367   0.00000  Uiso   1.00
H127   H    -0.05246   0.11526   0.82555   0.00000  Uiso   1.00
H128   H     0.05547  -0.00456   0.71177   0.00000  Uiso   1.00
H129   H     0.06441  -0.03636   0.84877   0.00000  Uiso   1.00
H130   H     0.97461   0.98108   0.30422   0.00000  Uiso   1.00
H131   H     0.97790   1.01748   0.19347   0.00000  Uiso   1.00
H132   H     1.06585   0.87916   0.17544   0.00000  Uiso   1.00
loop_
_geom_bond_atom_site_label_1
_geom_bond_atom_site_label_2
_geom_bond_distance
_geom_bond_site_symmetry_2
_ccdc_geom_bond_type
O1     C22     1.210   .     D
O1     In73    2.043   1_455 D
O2     C22     1.376   .     S
O2     In73    2.070   1_455 S
C3     C4      1.401   .     A
C3     C22     1.507   .     S
C3     C79     1.430   .     A
C4     H5      1.081   .     S
C4     C81     1.409   .     A
C6     H7      1.080   .     S
C6     C8      1.398   .     A
C6     C82     1.411   .     A
C8     H9      1.080   .     S
C8     C83     1.403   .     A
C10    H11     1.081   .     S
C10    C12     1.400   .     A
C10    C84     1.406   .     A
C12    H13     1.083   .     S
C12    C85     1.407   .     A
C14    H15     1.082   .     S
C14    C16     1.391   .     A
C14    C86     1.403   1_554 A
C16    H17     1.081   .     S
C16    C87     1.409   1_554 S
C18    H19     1.082   .     S
C18    C20     1.404   .     A
C18    C87     1.407   .     A
C20    H21     1.082   .     S
C20    C86     1.409   .     A
O23    C36     1.204   .     D
O23    In74    2.046   1_565 A
O24    C36     1.377   .     S
O24    In74    2.092   1_565 S
C25    C26     1.400   .     A
C25    C36     1.513   .     S
C25    C103    1.431   .     A
C26    H27     1.080   .     S
C26    C105    1.411   .     A
C28    H29     1.077   .     S
C28    C30     1.395   .     A
C28    C106    1.409   .     A
C30    H31     1.083   .     S
C30    C107    1.401   .     A
C32    H33     1.083   .     S
C32    C34     1.394   .     A
C32    C108    1.403   .     A
C34    H35     1.079   .     S
C34    C109    1.408   .     A
O37    C58     1.210   .     D
O37    In74    2.043   1_655 A
O38    C58     1.376   .     S
O38    In74    2.070   1_655 S
C39    C40     1.400   .     A
C39    C58     1.508   .     S
C39    C103    1.430   .     A
C40    H41     1.082   .     S
C40    C105    1.409   .     A
C42    H43     1.080   .     S
C42    C44     1.399   .     A
C42    C106    1.411   .     A
C44    H45     1.080   .     S
C44    C107    1.403   .     A
C46    H47     1.081   .     S
C46    C48     1.400   .     A
C46    C108    1.405   .     A
C48    H49     1.083   .     S
C48    C109    1.407   .     A
C50    H51     1.082   .     S
C50    C52     1.392   .     A
C50    C110    1.403   1_556 A
C52    H53     1.081   .     S
C52    C111    1.409   1_556 A
C54    H55     1.082   .     S
C54    C56     1.404   .     A
C54    C111    1.407   .     A
C56    H57     1.082   .     S
C56    C110    1.409   .     A
O59    C72     1.204   .     D
O59    In73    2.046   1_545 S
O60    C72     1.377   .     S
O60    In73    2.092   1_545 A
C61    C62     1.401   .     A
C61    C72     1.513   .     S
C61    C79     1.430   .     A
C62    H63     1.079   .     S
C62    C81     1.410   .     A
C64    H65     1.077   .     S
C64    C66     1.394   .     A
C64    C82     1.409   .     A
C66    H67     1.083   .     S
C66    C83     1.402   .     A
C68    H69     1.083   .     S
C68    C70     1.394   .     A
C68    C84     1.403   .     A
C70    H71     1.079   .     S
C70    C85     1.408   .     A
In73   O75     1.993   .     S
In73   O76     1.968   .     S
In73   O78     2.052   .     S
In73   O1      2.043   1_655 D
In73   O2      2.070   1_655 S
In73   O59     2.046   1_565 S
In73   O60     2.092   1_565 A
In74   O99     1.994   .     S
In74   O100    1.967   .     S
In74   O102    2.052   .     S
In74   O23     2.046   1_545 A
In74   O24     2.092   1_545 S
In74   O37     2.043   1_455 A
In74   O38     2.070   1_455 S
O75    C97     1.261   .     A
O76    C97     1.252   .     A
O77    C98     1.221   .     D
O78    C98     1.406   .     S
C79    H80     1.083   .     S
C81    C82     1.501   .     S
C83    C84     1.484   .     S
C85    C86     1.492   .     S
C86    C14     1.403   1_556 A
C87    C16     1.409   1_556 S
C87    C88     1.496   1_556 A
C88    C89     1.408   .     A
C88    C87     1.496   1_554 A
C88    C95     1.418   1_554 A
C89    H90     1.082   .     S
C89    C91     1.393   .     A
C91    C92     1.398   .     A
C91    C97     1.475   .     S
C92    H93     1.082   .     S
C92    C94     1.406   1_554 D
C94    C95     1.413   .     A
C94    C98     1.492   .     S
C94    C92     1.406   1_556 D
C95    H96     1.082   .     S
C95    C88     1.418   1_556 A
O99    C121    1.261   .     A
O100   C121    1.252   .     A
O101   C122    1.221   .     D
O102   C122    1.406   .     S
C103   H104    1.083   .     S
C105   C106    1.501   .     S
C107   C108    1.483   .     S
C109   C110    1.492   .     S
C110   C50     1.403   1_554 A
C111   C52     1.409   1_554 A
C111   C112    1.496   1_554 S
C112   C113    1.408   .     A
C112   C111    1.496   1_556 S
C112   C119    1.419   1_556 S
C113   H114    1.082   .     S
C113   C115    1.393   .     A
C115   C116    1.399   .     A
C115   C121    1.474   .     S
C116   H117    1.082   .     S
C116   C118    1.405   1_556 A
C118   C119    1.413   .     A
C118   C122    1.492   .     S
C118   C116    1.405   1_554 A
C119   H120    1.082   .     S
C119   C112    1.419   1_554 S
O124   H127    0.990   .     S
O124   H128    0.990   .     S
O124   H129    0.990   .     S
O126   H130    0.990   .     S
O126   H131    0.990   .     S
O126   H132    0.990   .     S
