data_image0
_cell_length_a       21.863
_cell_length_b       10.035
_cell_length_c       13.854
_cell_angle_alpha    90
_cell_angle_beta     91.53
_cell_angle_gamma    90

_symmetry_space_group_name_H-M    "P 1"
_symmetry_int_tables_number       1

loop_
  _symmetry_equiv_pos_as_xyz
  'x, y, z'

loop_
  _atom_site_label
  _atom_site_occupancy
  _atom_site_fract_x
  _atom_site_fract_y
  _atom_site_fract_z
  _atom_site_thermal_displace_type
  _atom_site_B_iso_or_equiv
  _atom_site_type_symbol
  Gd1      1.0000 0.25952  0.56098  0.26962  Biso   1.000  Gd
  O1       1.0000 0.36389  0.49610  0.21557  Biso   1.000  O
  O2       1.0000 0.32390  0.66590  0.13739  Biso   1.000  O
  O3       1.0000 0.21451  0.76380  0.20536  Biso   1.000  O
  O4       1.0000 0.21829  0.52560  0.10940  Biso   1.000  O
  C1       1.0000 0.36713  0.58110  0.14980  Biso   1.000  C
  Gd2      1.0000 0.24855  0.74949  0.02903  Biso   1.000  Gd
  C2       1.0000 0.18268  0.86770  0.18580  Biso   1.000  C
  C3       1.0000 0.16531  0.53620  0.06860  Biso   1.000  C
  C4       1.0000 0.41892  0.58440  0.08050  Biso   1.000  C
  O5       1.0000 0.18790  0.92270  0.10572  Biso   1.000  O
  O6       1.0000 0.31454  0.92800  0.03714  Biso   1.000  O
  O7       1.0000 0.15263  0.63610  0.01746  Biso   1.000  O
  O8       1.0000 0.30934  0.76200  0.86111  Biso   1.000  O
  O9       1.0000 0.28024  0.57230  0.92266  Biso   1.000  O
  O10      1.0000 0.19643  0.86390  0.90427  Biso   1.000  O
  C5       1.0000 0.13907  0.92410  0.25760  Biso   1.000  C
  C6       1.0000 0.11916  0.42630  0.08100  Biso   1.000  C
  H1       1.0000 0.42130  0.67360  0.05380  Biso   1.000  H
  H2       1.0000 0.40910  0.52430  0.02750  Biso   1.000  H
  C7       1.0000 0.48124  0.54760  0.12180  Biso   1.000  C
  C8       1.0000 0.32928  0.02530  0.98580  Biso   1.000  C
  C9       1.0000 0.30655  0.63590  0.85670  Biso   1.000  C
  C10      1.0000 0.14709  0.92170  0.87300  Biso   1.000  C
  H3       1.0000 0.15810  0.99950  0.29020  Biso   1.000  H
  H4       1.0000 0.13060  0.85690  0.30580  Biso   1.000  H
  C11      1.0000 0.07930  0.96860  0.20950  Biso   1.000  C
  H5       1.0000 0.11570  0.40690  0.14920  Biso   1.000  H
  H6       1.0000 0.13360  0.34640  0.04950  Biso   1.000  H
  C12      1.0000 0.05685  0.46240  0.03950  Biso   1.000  C
  C13      1.0000 0.52591  0.64340  0.13490  Biso   1.000  C
  C14      1.0000 0.49581  0.41580  0.14450  Biso   1.000  C
  C15      1.0000 0.37850  0.11590  0.02720  Biso   1.000  C
  O11      1.0000 0.30644  0.05080  0.90384  Biso   1.000  O
  O12      1.0000 0.14938  0.98290  0.79620  Biso   1.000  O
  C16      1.0000 0.33658  0.56040  0.77720  Biso   1.000  C
  C17      1.0000 0.09019  0.91010  0.93180  Biso   1.000  C
  C18      1.0000 0.06776  0.10070  0.18930  Biso   1.000  C
  C19      1.0000 0.03589  0.87450  0.18000  Biso   1.000  C
  C20      1.0000 0.04313  0.44130  0.94220  Biso   1.000  C
  C21      1.0000 0.01341  0.52120  0.09680  Biso   1.000  C
  H7       1.0000 0.51680  0.73200  0.12110  Biso   1.000  H
  C22      1.0000 0.58453  0.60910  0.16850  Biso   1.000  C
  C23      1.0000 0.55403  0.38260  0.17840  Biso   1.000  C
  H8       1.0000 0.46630  0.34970  0.13680  Biso   1.000  H
  H9       1.0000 0.37220  0.12920  0.09550  Biso   1.000  H
  H10      1.0000 0.37610  0.20200  0.99550  Biso   1.000  H
  C24      1.0000 0.44152  0.05500  0.01280  Biso   1.000  C
  C25      1.0000 0.40096  0.52180  0.80970  Biso   1.000  C
  H11      1.0000 0.31310  0.48100  0.76150  Biso   1.000  H
  H12      1.0000 0.33800  0.61550  0.71970  Biso   1.000  H
  C26      1.0000 0.03141  0.95320  0.88130  Biso   1.000  C
  H13      1.0000 0.09590  0.96320  0.98990  Biso   1.000  H
  H14      1.0000 0.08580  0.81800  0.95170  Biso   1.000  H
  H15      1.0000 0.09700  0.16450  0.20580  Biso   1.000  H
  C27      1.0000 0.01310  0.14000  0.14450  Biso   1.000  C
  C28      1.0000 0.98116  0.91420  0.13580  Biso   1.000  C
  H16      1.0000 0.04360  0.78430  0.19000  Biso   1.000  H
  H17      1.0000 0.07190  0.40200  0.90300  Biso   1.000  H
  H18      1.0000 0.02220  0.53560  0.16200  Biso   1.000  H
  H19      1.0000 0.61420  0.67500  0.17630  Biso   1.000  H
  H20      1.0000 0.56300  0.29430  0.19340  Biso   1.000  H
  C29      1.0000 0.48451  0.04750  0.08880  Biso   1.000  C
  C30      1.0000 0.45815  0.00540  0.92390  Biso   1.000  C
  H21      1.0000 0.00620  0.22980  0.13170  Biso   1.000  H
  H22      1.0000 0.95240  0.85010  0.11740  Biso   1.000  H
  H23      1.0000 0.47420  0.07900  0.14940  Biso   1.000  H
  H24      1.0000 0.43020  0.00800  0.87210  Biso   1.000  H
  Gd3      1.0000 0.74048  0.06098  0.23038  Biso   1.000  Gd
  O13      1.0000 0.63611  0.99610  0.28443  Biso   1.000  O
  O14      1.0000 0.67610  0.16590  0.36261  Biso   1.000  O
  O15      1.0000 0.78549  0.26380  0.29464  Biso   1.000  O
  O16      1.0000 0.78171  0.02560  0.39060  Biso   1.000  O
  C31      1.0000 0.63287  0.08110  0.35020  Biso   1.000  C
  Gd4      1.0000 0.75145  0.24949  0.47097  Biso   1.000  Gd
  C32      1.0000 0.81732  0.36770  0.31420  Biso   1.000  C
  C33      1.0000 0.83469  0.03620  0.43140  Biso   1.000  C
  C34      1.0000 0.58108  0.08440  0.41950  Biso   1.000  C
  O17      1.0000 0.81210  0.42270  0.39428  Biso   1.000  O
  O18      1.0000 0.68546  0.42800  0.46286  Biso   1.000  O
  O19      1.0000 0.84737  0.13610  0.48254  Biso   1.000  O
  O20      1.0000 0.69066  0.26200  0.63889  Biso   1.000  O
  O21      1.0000 0.71976  0.07230  0.57734  Biso   1.000  O
  O22      1.0000 0.80357  0.36390  0.59573  Biso   1.000  O
  C35      1.0000 0.86093  0.42410  0.24240  Biso   1.000  C
  C36      1.0000 0.88084  0.92630  0.41900  Biso   1.000  C
  H25      1.0000 0.57870  0.17360  0.44620  Biso   1.000  H
  H26      1.0000 0.59090  0.02430  0.47250  Biso   1.000  H
  C37      1.0000 0.51876  0.04760  0.37820  Biso   1.000  C
  C38      1.0000 0.67072  0.52530  0.51420  Biso   1.000  C
  C39      1.0000 0.69345  0.13590  0.64330  Biso   1.000  C
  C40      1.0000 0.85291  0.42170  0.62700  Biso   1.000  C
  H27      1.0000 0.84190  0.49950  0.20980  Biso   1.000  H
  H28      1.0000 0.86940  0.35690  0.19420  Biso   1.000  H
  C41      1.0000 0.92070  0.46860  0.29050  Biso   1.000  C
  H29      1.0000 0.88430  0.90690  0.35080  Biso   1.000  H
  H30      1.0000 0.86640  0.84640  0.45050  Biso   1.000  H
  C42      1.0000 0.94315  0.96240  0.46050  Biso   1.000  C
  C43      1.0000 0.47409  0.14340  0.36510  Biso   1.000  C
  C44      1.0000 0.50419  0.91580  0.35550  Biso   1.000  C
  C45      1.0000 0.62150  0.61590  0.47280  Biso   1.000  C
  O23      1.0000 0.69356  0.55080  0.59616  Biso   1.000  O
  O24      1.0000 0.85062  0.48290  0.70380  Biso   1.000  O
  C46      1.0000 0.66342  0.06040  0.72280  Biso   1.000  C
  C47      1.0000 0.90981  0.41010  0.56820  Biso   1.000  C
  C48      1.0000 0.93224  0.60070  0.31070  Biso   1.000  C
  C49      1.0000 0.96411  0.37450  0.32000  Biso   1.000  C
  C50      1.0000 0.95687  0.94130  0.55780  Biso   1.000  C
  C51      1.0000 0.98659  0.02120  0.40320  Biso   1.000  C
  H31      1.0000 0.48320  0.23200  0.37890  Biso   1.000  H
  C52      1.0000 0.41547  0.10910  0.33150  Biso   1.000  C
  C53      1.0000 0.44597  0.88260  0.32160  Biso   1.000  C
  H32      1.0000 0.53370  0.84970  0.36320  Biso   1.000  H
  H33      1.0000 0.62780  0.62920  0.40450  Biso   1.000  H
  H34      1.0000 0.62390  0.70200  0.50450  Biso   1.000  H
  C54      1.0000 0.55848  0.55500  0.48720  Biso   1.000  C
  C55      1.0000 0.59904  0.02180  0.69030  Biso   1.000  C
  H35      1.0000 0.68690  0.98100  0.73850  Biso   1.000  H
  H36      1.0000 0.66200  0.11550  0.78030  Biso   1.000  H
  C56      1.0000 0.96859  0.45320  0.61870  Biso   1.000  C
  H37      1.0000 0.90410  0.46320  0.51010  Biso   1.000  H
  H38      1.0000 0.91420  0.31800  0.54830  Biso   1.000  H
  H39      1.0000 0.90300  0.66450  0.29420  Biso   1.000  H
  C57      1.0000 0.98690  0.64000  0.35550  Biso   1.000  C
  C58      1.0000 0.01884  0.41420  0.36420  Biso   1.000  C
  H40      1.0000 0.95640  0.28430  0.31000  Biso   1.000  H
  H41      1.0000 0.92810  0.90200  0.59700  Biso   1.000  H
  H42      1.0000 0.97780  0.03560  0.33800  Biso   1.000  H
  H43      1.0000 0.38580  0.17500  0.32370  Biso   1.000  H
  H44      1.0000 0.43700  0.79430  0.30660  Biso   1.000  H
  C59      1.0000 0.51549  0.54750  0.41120  Biso   1.000  C
  C60      1.0000 0.54185  0.50540  0.57610  Biso   1.000  C
  H45      1.0000 0.99380  0.72980  0.36830  Biso   1.000  H
  H46      1.0000 0.04760  0.35010  0.38260  Biso   1.000  H
  H47      1.0000 0.52580  0.57900  0.35060  Biso   1.000  H
  H48      1.0000 0.56980  0.50800  0.62790  Biso   1.000  H
  Gd5      1.0000 0.74048  0.43902  0.73038  Biso   1.000  Gd
  O25      1.0000 0.63611  0.50390  0.78443  Biso   1.000  O
  O26      1.0000 0.67610  0.33410  0.86261  Biso   1.000  O
  O27      1.0000 0.78549  0.23620  0.79464  Biso   1.000  O
  O28      1.0000 0.78171  0.47440  0.89060  Biso   1.000  O
  C61      1.0000 0.63287  0.41890  0.85020  Biso   1.000  C
  Gd6      1.0000 0.75145  0.25051  0.97097  Biso   1.000  Gd
  C62      1.0000 0.81732  0.13230  0.81420  Biso   1.000  C
  C63      1.0000 0.83469  0.46380  0.93140  Biso   1.000  C
  C64      1.0000 0.58108  0.41560  0.91950  Biso   1.000  C
  O29      1.0000 0.81210  0.07730  0.89428  Biso   1.000  O
  O30      1.0000 0.68546  0.07200  0.96286  Biso   1.000  O
  O31      1.0000 0.84737  0.36390  0.98254  Biso   1.000  O
  O32      1.0000 0.69066  0.23800  0.13889  Biso   1.000  O
  O33      1.0000 0.71976  0.42770  0.07734  Biso   1.000  O
  O34      1.0000 0.80357  0.13610  0.09573  Biso   1.000  O
  C65      1.0000 0.86093  0.07590  0.74240  Biso   1.000  C
  C66      1.0000 0.88084  0.57370  0.91900  Biso   1.000  C
  H49      1.0000 0.57870  0.32640  0.94620  Biso   1.000  H
  H50      1.0000 0.59090  0.47570  0.97250  Biso   1.000  H
  C67      1.0000 0.51876  0.45240  0.87820  Biso   1.000  C
  C68      1.0000 0.67072  0.97470  0.01420  Biso   1.000  C
  C69      1.0000 0.69345  0.36410  0.14330  Biso   1.000  C
  C70      1.0000 0.85291  0.07830  0.12700  Biso   1.000  C
  H51      1.0000 0.84190  0.00050  0.70980  Biso   1.000  H
  H52      1.0000 0.86940  0.14310  0.69420  Biso   1.000  H
  C71      1.0000 0.92070  0.03140  0.79050  Biso   1.000  C
  H53      1.0000 0.88430  0.59310  0.85080  Biso   1.000  H
  H54      1.0000 0.86640  0.65360  0.95050  Biso   1.000  H
  C72      1.0000 0.94315  0.53760  0.96050  Biso   1.000  C
  C73      1.0000 0.47409  0.35660  0.86510  Biso   1.000  C
  C74      1.0000 0.50419  0.58420  0.85550  Biso   1.000  C
  C75      1.0000 0.62150  0.88410  0.97280  Biso   1.000  C
  O35      1.0000 0.69356  0.94920  0.09616  Biso   1.000  O
  O36      1.0000 0.85062  0.01710  0.20380  Biso   1.000  O
  C76      1.0000 0.66342  0.43960  0.22280  Biso   1.000  C
  C77      1.0000 0.90981  0.08990  0.06820  Biso   1.000  C
  C78      1.0000 0.93224  0.89930  0.81070  Biso   1.000  C
  C79      1.0000 0.96411  0.12550  0.82000  Biso   1.000  C
  C80      1.0000 0.95687  0.55870  0.05780  Biso   1.000  C
  C81      1.0000 0.98659  0.47880  0.90320  Biso   1.000  C
  H55      1.0000 0.48320  0.26800  0.87890  Biso   1.000  H
  C82      1.0000 0.41547  0.39090  0.83150  Biso   1.000  C
  C83      1.0000 0.44597  0.61740  0.82160  Biso   1.000  C
  H56      1.0000 0.53370  0.65030  0.86320  Biso   1.000  H
  H57      1.0000 0.62780  0.87080  0.90450  Biso   1.000  H
  H58      1.0000 0.62390  0.79800  0.00450  Biso   1.000  H
  C84      1.0000 0.55848  0.94500  0.98720  Biso   1.000  C
  C85      1.0000 0.59904  0.47820  0.19030  Biso   1.000  C
  H59      1.0000 0.68690  0.51900  0.23850  Biso   1.000  H
  H60      1.0000 0.66200  0.38450  0.28030  Biso   1.000  H
  C86      1.0000 0.96859  0.04680  0.11870  Biso   1.000  C
  H61      1.0000 0.90410  0.03680  0.01010  Biso   1.000  H
  H62      1.0000 0.91420  0.18200  0.04830  Biso   1.000  H
  H63      1.0000 0.90300  0.83550  0.79420  Biso   1.000  H
  C87      1.0000 0.98690  0.86000  0.85550  Biso   1.000  C
  C88      1.0000 0.01884  0.08580  0.86420  Biso   1.000  C
  H64      1.0000 0.95640  0.21570  0.81000  Biso   1.000  H
  H65      1.0000 0.92810  0.59800  0.09700  Biso   1.000  H
  H66      1.0000 0.97780  0.46440  0.83800  Biso   1.000  H
  H67      1.0000 0.38580  0.32500  0.82370  Biso   1.000  H
  H68      1.0000 0.43700  0.70570  0.80660  Biso   1.000  H
  C89      1.0000 0.51549  0.95250  0.91120  Biso   1.000  C
  C90      1.0000 0.54185  0.99460  0.07610  Biso   1.000  C
  H69      1.0000 0.99380  0.77020  0.86830  Biso   1.000  H
  H70      1.0000 0.04760  0.14990  0.88260  Biso   1.000  H
  H71      1.0000 0.52580  0.92100  0.85060  Biso   1.000  H
  H72      1.0000 0.56980  0.99200  0.12790  Biso   1.000  H
  Gd7      1.0000 0.25952  0.93902  0.76962  Biso   1.000  Gd
  O37      1.0000 0.36389  0.00390  0.71557  Biso   1.000  O
  O38      1.0000 0.32390  0.83410  0.63739  Biso   1.000  O
  O39      1.0000 0.21451  0.73620  0.70536  Biso   1.000  O
  O40      1.0000 0.21829  0.97440  0.60940  Biso   1.000  O
  C91      1.0000 0.36713  0.91890  0.64980  Biso   1.000  C
  Gd8      1.0000 0.24855  0.75051  0.52903  Biso   1.000  Gd
  C92      1.0000 0.18268  0.63230  0.68580  Biso   1.000  C
  C93      1.0000 0.16531  0.96380  0.56860  Biso   1.000  C
  C94      1.0000 0.41892  0.91560  0.58050  Biso   1.000  C
  O41      1.0000 0.18790  0.57730  0.60572  Biso   1.000  O
  O42      1.0000 0.31454  0.57200  0.53714  Biso   1.000  O
  O43      1.0000 0.15263  0.86390  0.51746  Biso   1.000  O
  O44      1.0000 0.30934  0.73800  0.36111  Biso   1.000  O
  O45      1.0000 0.28024  0.92770  0.42266  Biso   1.000  O
  O46      1.0000 0.19643  0.63610  0.40427  Biso   1.000  O
  C95      1.0000 0.13907  0.57590  0.75760  Biso   1.000  C
  C96      1.0000 0.11916  0.07370  0.58100  Biso   1.000  C
  H73      1.0000 0.42130  0.82640  0.55380  Biso   1.000  H
  H74      1.0000 0.40910  0.97570  0.52750  Biso   1.000  H
  C97      1.0000 0.48124  0.95240  0.62180  Biso   1.000  C
  C98      1.0000 0.32928  0.47470  0.48580  Biso   1.000  C
  C99      1.0000 0.30655  0.86410  0.35670  Biso   1.000  C
  C100     1.0000 0.14709  0.57830  0.37300  Biso   1.000  C
  H75      1.0000 0.15810  0.50050  0.79020  Biso   1.000  H
  H76      1.0000 0.13060  0.64310  0.80580  Biso   1.000  H
  C101     1.0000 0.07930  0.53140  0.70950  Biso   1.000  C
  H77      1.0000 0.11570  0.09310  0.64920  Biso   1.000  H
  H78      1.0000 0.13360  0.15360  0.54950  Biso   1.000  H
  C102     1.0000 0.05685  0.03760  0.53950  Biso   1.000  C
  C103     1.0000 0.52591  0.85660  0.63490  Biso   1.000  C
  C104     1.0000 0.49581  0.08420  0.64450  Biso   1.000  C
  C105     1.0000 0.37850  0.38410  0.52720  Biso   1.000  C
  O47      1.0000 0.30644  0.44920  0.40384  Biso   1.000  O
  O48      1.0000 0.14938  0.51710  0.29620  Biso   1.000  O
  C106     1.0000 0.33658  0.93960  0.27720  Biso   1.000  C
  C107     1.0000 0.09019  0.58990  0.43180  Biso   1.000  C
  C108     1.0000 0.06776  0.39930  0.68930  Biso   1.000  C
  C109     1.0000 0.03589  0.62550  0.68000  Biso   1.000  C
  C110     1.0000 0.04313  0.05870  0.44220  Biso   1.000  C
  C111     1.0000 0.01341  0.97880  0.59680  Biso   1.000  C
  H79      1.0000 0.51680  0.76800  0.62110  Biso   1.000  H
  C112     1.0000 0.58453  0.89090  0.66850  Biso   1.000  C
  C113     1.0000 0.55403  0.11740  0.67840  Biso   1.000  C
  H80      1.0000 0.46630  0.15030  0.63680  Biso   1.000  H
  H81      1.0000 0.37220  0.37080  0.59550  Biso   1.000  H
  H82      1.0000 0.37610  0.29800  0.49550  Biso   1.000  H
  C114     1.0000 0.44152  0.44500  0.51280  Biso   1.000  C
  C115     1.0000 0.40096  0.97820  0.30970  Biso   1.000  C
  H83      1.0000 0.31310  0.01900  0.26150  Biso   1.000  H
  H84      1.0000 0.33800  0.88450  0.21970  Biso   1.000  H
  C116     1.0000 0.03141  0.54680  0.38130  Biso   1.000  C
  H85      1.0000 0.09590  0.53680  0.48990  Biso   1.000  H
  H86      1.0000 0.08580  0.68200  0.45170  Biso   1.000  H
  H87      1.0000 0.09700  0.33550  0.70580  Biso   1.000  H
  C117     1.0000 0.01310  0.36000  0.64450  Biso   1.000  C
  C118     1.0000 0.98116  0.58580  0.63580  Biso   1.000  C
  H88      1.0000 0.04360  0.71570  0.69000  Biso   1.000  H
  H89      1.0000 0.07190  0.09800  0.40300  Biso   1.000  H
  H90      1.0000 0.02220  0.96440  0.66200  Biso   1.000  H
  H91      1.0000 0.61420  0.82500  0.67630  Biso   1.000  H
  H92      1.0000 0.56300  0.20570  0.69340  Biso   1.000  H
  C119     1.0000 0.48451  0.45250  0.58880  Biso   1.000  C
  C120     1.0000 0.45815  0.49460  0.42390  Biso   1.000  C
  H93      1.0000 0.00620  0.27020  0.63170  Biso   1.000  H
  H94      1.0000 0.95240  0.64990  0.61740  Biso   1.000  H
  H95      1.0000 0.47420  0.42100  0.64940  Biso   1.000  H
  H96      1.0000 0.43020  0.49200  0.37210  Biso   1.000  H
