data_CAKXOD_clean
_audit_creation_date              2014-07-02
_audit_creation_method            'Materials Studio'
_symmetry_space_group_name_H-M    'P1'
_symmetry_Int_Tables_number       1
_symmetry_cell_setting            triclinic
loop_
_symmetry_equiv_pos_as_xyz
  x,y,z
_cell_length_a                    7.9550
_cell_length_b                    9.6930
_cell_length_c                    15.8690
_cell_angle_alpha                 90.0000
_cell_angle_beta                  90.0000
_cell_angle_gamma                 96.3560
loop_
_atom_site_label
_atom_site_type_symbol
_atom_site_fract_x
_atom_site_fract_y
_atom_site_fract_z
_atom_site_U_iso_or_equiv
_atom_site_adp_type
_atom_site_occupancy
Gd1    Gd    0.92145   0.13389   0.32692   0.01267  Uiso   1.00
Gd2    Gd    0.57855   0.36611   0.82692   0.01267  Uiso   1.00
Gd3    Gd    0.07855   0.86611   0.67308   0.01267  Uiso   1.00
Gd4    Gd    0.42145   0.63389   0.17308   0.01267  Uiso   1.00
H1     H     0.96860   0.68496   0.38791   0.01267  Uiso   1.00
H2     H     0.61737   0.34707   0.25147   0.01267  Uiso   1.00
H3     H     0.53140   0.81504   0.88791   0.01267  Uiso   1.00
H4     H     0.88263   0.15293   0.75147   0.01267  Uiso   1.00
H5     H     0.03140   0.31504   0.61209   0.01267  Uiso   1.00
H6     H     0.38263   0.65293   0.74853   0.01267  Uiso   1.00
H7     H     0.46860   0.18496   0.11209   0.01267  Uiso   1.00
H8     H     0.11737   0.84707   0.24853   0.01267  Uiso   1.00
C1     C     0.91390   0.47450   0.36817   0.01267  Uiso   1.00
C2     C     0.74380   0.79580   0.28400   0.01267  Uiso   1.00
C3     C     0.89610   0.61520   0.35887   0.01267  Uiso   1.00
C4     C     0.76960   0.64780   0.30604   0.01267  Uiso   1.00
C5     C     0.05700   0.42360   0.41852   0.01267  Uiso   1.00
C6     C     0.69020   0.41870   0.27990   0.01267  Uiso   1.00
C7     C     0.90990   0.00930   0.51549   0.01267  Uiso   1.00
C8     C     0.58610   0.02550   0.86817   0.01267  Uiso   1.00
C9     C     0.75620   0.70420   0.78400   0.01267  Uiso   1.00
C10    C     0.60390   0.88480   0.85887   0.01267  Uiso   1.00
C11    C     0.73040   0.85220   0.80604   0.01267  Uiso   1.00
C12    C     0.44300   0.07640   0.91852   0.01267  Uiso   1.00
C13    C     0.80980   0.08130   0.77990   0.01267  Uiso   1.00
C14    C     0.59010   0.49070   0.01549   0.01267  Uiso   1.00
C15    C     0.08610   0.52550   0.63183   0.01267  Uiso   1.00
C16    C     0.25620   0.20420   0.71600   0.01267  Uiso   1.00
C17    C     0.10390   0.38480   0.64113   0.01267  Uiso   1.00
C18    C     0.23040   0.35220   0.69396   0.01267  Uiso   1.00
C19    C     0.94300   0.57640   0.58148   0.01267  Uiso   1.00
C20    C     0.30980   0.58130   0.72010   0.01267  Uiso   1.00
C21    C     0.09010   0.99070   0.48451   0.01267  Uiso   1.00
C22    C     0.41390   0.97450   0.13183   0.01267  Uiso   1.00
C23    C     0.24380   0.29580   0.21600   0.01267  Uiso   1.00
C24    C     0.39610   0.11520   0.14113   0.01267  Uiso   1.00
C25    C     0.26960   0.14780   0.19396   0.01267  Uiso   1.00
C26    C     0.55700   0.92360   0.08148   0.01267  Uiso   1.00
C27    C     0.19020   0.91870   0.22010   0.01267  Uiso   1.00
C28    C     0.40990   0.50930   0.98451   0.01267  Uiso   1.00
N1     N     0.81160   0.37700   0.32850   0.01267  Uiso   1.00
N2     N     0.66390   0.55000   0.26690   0.01267  Uiso   1.00
N3     N     0.68840   0.12300   0.82850   0.01267  Uiso   1.00
N4     N     0.83610   0.95000   0.76690   0.01267  Uiso   1.00
N5     N     0.18840   0.62300   0.67150   0.01267  Uiso   1.00
N6     N     0.33610   0.45000   0.73310   0.01267  Uiso   1.00
N7     N     0.31160   0.87700   0.17150   0.01267  Uiso   1.00
N8     N     0.16390   0.05000   0.23310   0.01267  Uiso   1.00
O1     O     0.04830   0.29420   0.42928   0.01267  Uiso   1.00
O2     O     0.85090   0.88950   0.31083   0.01267  Uiso   1.00
O3     O     0.81200   0.05650   0.46417   0.01267  Uiso   1.00
O4     O     0.61920   0.81300   0.23900   0.01267  Uiso   1.00
O5     O     0.87490   0.97640   0.59018   0.01267  Uiso   1.00
O6     O     0.17190   0.51160   0.44286   0.01267  Uiso   1.00
O7     O     0.45170   0.20580   0.92928   0.01267  Uiso   1.00
O8     O     0.64910   0.61050   0.81083   0.01267  Uiso   1.00
O9     O     0.68800   0.44350   0.96417   0.01267  Uiso   1.00
O10    O     0.88080   0.68700   0.73900   0.01267  Uiso   1.00
O11    O     0.62510   0.52360   0.09018   0.01267  Uiso   1.00
O12    O     0.32810   0.98840   0.94286   0.01267  Uiso   1.00
O13    O     0.95170   0.70580   0.57072   0.01267  Uiso   1.00
O14    O     0.14910   0.11050   0.68917   0.01267  Uiso   1.00
O15    O     0.18800   0.94350   0.53583   0.01267  Uiso   1.00
O16    O     0.38080   0.18700   0.76100   0.01267  Uiso   1.00
O17    O     0.12510   0.02360   0.40982   0.01267  Uiso   1.00
O18    O     0.82810   0.48840   0.55714   0.01267  Uiso   1.00
O19    O     0.54830   0.79420   0.07072   0.01267  Uiso   1.00
O20    O     0.35090   0.38950   0.18917   0.01267  Uiso   1.00
O21    O     0.31200   0.55650   0.03583   0.01267  Uiso   1.00
O22    O     0.11920   0.31300   0.26100   0.01267  Uiso   1.00
O23    O     0.37490   0.47640   0.90982   0.01267  Uiso   1.00
O24    O     0.67190   0.01160   0.05714   0.01267  Uiso   1.00
