data_CAKYEU_clean
_audit_creation_date              2014-07-02
_audit_creation_method            'Materials Studio'
_symmetry_space_group_name_H-M    'P1'
_symmetry_Int_Tables_number       1
_symmetry_cell_setting            triclinic
loop_
_symmetry_equiv_pos_as_xyz
  x,y,z
_cell_length_a                    7.9375
_cell_length_b                    9.6219
_cell_length_c                    15.8216
_cell_angle_alpha                 90.0000
_cell_angle_beta                  90.0000
_cell_angle_gamma                 96.6250
loop_
_atom_site_label
_atom_site_type_symbol
_atom_site_fract_x
_atom_site_fract_y
_atom_site_fract_z
_atom_site_U_iso_or_equiv
_atom_site_adp_type
_atom_site_occupancy
Ho1    Ho    0.92724   0.13308   0.32723   0.01267  Uiso   1.00
Ho2    Ho    0.57276   0.36692   0.82723   0.01267  Uiso   1.00
Ho3    Ho    0.07276   0.86692   0.67277   0.01267  Uiso   1.00
Ho4    Ho    0.42724   0.63308   0.17277   0.01267  Uiso   1.00
H1     H     0.96860   0.68496   0.38791   0.01267  Uiso   1.00
H2     H     0.61737   0.34707   0.25147   0.01267  Uiso   1.00
H3     H     0.53140   0.81504   0.88791   0.01267  Uiso   1.00
H4     H     0.88263   0.15293   0.75147   0.01267  Uiso   1.00
H5     H     0.03140   0.31504   0.61209   0.01267  Uiso   1.00
H6     H     0.38263   0.65293   0.74853   0.01267  Uiso   1.00
H7     H     0.46860   0.18496   0.11209   0.01267  Uiso   1.00
H8     H     0.11737   0.84707   0.24853   0.01267  Uiso   1.00
C1     C     0.91810   0.47290   0.36790   0.01267  Uiso   1.00
C2     C     0.74870   0.79580   0.28290   0.01267  Uiso   1.00
C3     C     0.89950   0.61380   0.35860   0.01267  Uiso   1.00
C4     C     0.77470   0.64730   0.30500   0.01267  Uiso   1.00
C5     C     0.06040   0.42260   0.41890   0.01267  Uiso   1.00
C6     C     0.69660   0.41550   0.27800   0.01267  Uiso   1.00
C7     C     0.90880   0.00990   0.51500   0.01267  Uiso   1.00
C8     C     0.58190   0.02710   0.86790   0.01267  Uiso   1.00
C9     C     0.75130   0.70420   0.78290   0.01267  Uiso   1.00
C10    C     0.60050   0.88620   0.85860   0.01267  Uiso   1.00
C11    C     0.72530   0.85270   0.80500   0.01267  Uiso   1.00
C12    C     0.43960   0.07740   0.91890   0.01267  Uiso   1.00
C13    C     0.80340   0.08450   0.77800   0.01267  Uiso   1.00
C14    C     0.59120   0.49010   0.01500   0.01267  Uiso   1.00
C15    C     0.08190   0.52710   0.63210   0.01267  Uiso   1.00
C16    C     0.25130   0.20420   0.71710   0.01267  Uiso   1.00
C17    C     0.10050   0.38620   0.64140   0.01267  Uiso   1.00
C18    C     0.22530   0.35270   0.69500   0.01267  Uiso   1.00
C19    C     0.93960   0.57740   0.58110   0.01267  Uiso   1.00
C20    C     0.30340   0.58450   0.72200   0.01267  Uiso   1.00
C21    C     0.09120   0.99010   0.48500   0.01267  Uiso   1.00
C22    C     0.41810   0.97290   0.13210   0.01267  Uiso   1.00
C23    C     0.24870   0.29580   0.21710   0.01267  Uiso   1.00
C24    C     0.39950   0.11380   0.14140   0.01267  Uiso   1.00
C25    C     0.27470   0.14730   0.19500   0.01267  Uiso   1.00
C26    C     0.56040   0.92260   0.08110   0.01267  Uiso   1.00
C27    C     0.19660   0.91550   0.22200   0.01267  Uiso   1.00
C28    C     0.40880   0.50990   0.98500   0.01267  Uiso   1.00
N1     N     0.81720   0.37430   0.32724   0.01267  Uiso   1.00
N2     N     0.66880   0.54780   0.26502   0.01267  Uiso   1.00
N3     N     0.68280   0.12570   0.82724   0.01267  Uiso   1.00
N4     N     0.83120   0.95220   0.76502   0.01267  Uiso   1.00
N5     N     0.18280   0.62570   0.67276   0.01267  Uiso   1.00
N6     N     0.33120   0.45220   0.73498   0.01267  Uiso   1.00
N7     N     0.31720   0.87430   0.17276   0.01267  Uiso   1.00
N8     N     0.16880   0.04780   0.23498   0.01267  Uiso   1.00
O1     O     0.05150   0.29160   0.42931   0.01267  Uiso   1.00
O2     O     0.85610   0.89090   0.31012   0.01267  Uiso   1.00
O3     O     0.81300   0.05640   0.46227   0.01267  Uiso   1.00
O4     O     0.62360   0.81260   0.23746   0.01267  Uiso   1.00
O5     O     0.87270   0.97740   0.58974   0.01267  Uiso   1.00
O6     O     0.17520   0.51140   0.44439   0.01267  Uiso   1.00
O7     O     0.44850   0.20840   0.92931   0.01267  Uiso   1.00
O8     O     0.64390   0.60910   0.81012   0.01267  Uiso   1.00
O9     O     0.68700   0.44360   0.96227   0.01267  Uiso   1.00
O10    O     0.87640   0.68740   0.73746   0.01267  Uiso   1.00
O11    O     0.62730   0.52260   0.08974   0.01267  Uiso   1.00
O12    O     0.32480   0.98860   0.94439   0.01267  Uiso   1.00
O13    O     0.94850   0.70840   0.57069   0.01267  Uiso   1.00
O14    O     0.14390   0.10910   0.68988   0.01267  Uiso   1.00
O15    O     0.18700   0.94360   0.53773   0.01267  Uiso   1.00
O16    O     0.37640   0.18740   0.76254   0.01267  Uiso   1.00
O17    O     0.12730   0.02260   0.41026   0.01267  Uiso   1.00
O18    O     0.82480   0.48860   0.55561   0.01267  Uiso   1.00
O19    O     0.55150   0.79160   0.07069   0.01267  Uiso   1.00
O20    O     0.35610   0.39090   0.18988   0.01267  Uiso   1.00
O21    O     0.31300   0.55640   0.03773   0.01267  Uiso   1.00
O22    O     0.12360   0.31260   0.26254   0.01267  Uiso   1.00
O23    O     0.37270   0.47740   0.91026   0.01267  Uiso   1.00
O24    O     0.67520   0.01140   0.05561   0.01267  Uiso   1.00
