data_image0
_cell_length_a       35.196
_cell_length_b       11.6472
_cell_length_c       17.2404
_cell_angle_alpha    90
_cell_angle_beta     99.003
_cell_angle_gamma    90

_symmetry_space_group_name_H-M    "P 1"
_symmetry_int_tables_number       1

loop_
  _symmetry_equiv_pos_as_xyz
  'x, y, z'

loop_
  _atom_site_label
  _atom_site_occupancy
  _atom_site_fract_x
  _atom_site_fract_y
  _atom_site_fract_z
  _atom_site_thermal_displace_type
  _atom_site_B_iso_or_equiv
  _atom_site_type_symbol
  Y1       1.0000 0.57615  0.06327  0.07810  Biso   1.000  Y
  O1       1.0000 0.54968  0.05090  0.94980  Biso   1.000  O
  O2       1.0000 0.63320  0.15020  0.05190  Biso   1.000  O
  O3       1.0000 0.51297  0.08000  0.09180  Biso   1.000  O
  O4       1.0000 0.58400  0.15970  0.20110  Biso   1.000  O
  O5       1.0000 0.62930  0.02900  0.21180  Biso   1.000  O
  O6       1.0000 0.61480  0.91870  0.04080  Biso   1.000  O
  O7       1.0000 0.56010  0.89780  0.13910  Biso   1.000  O
  C1       1.0000 0.52160  0.09590  0.90330  Biso   1.000  C
  C2       1.0000 0.66760  0.11730  0.06330  Biso   1.000  C
  Y2       1.0000 0.66837  0.88167  0.17583  Biso   1.000  Y
  C3       1.0000 0.53180  0.17420  0.84140  Biso   1.000  C
  O8       1.0000 0.68300  0.03820  0.10840  Biso   1.000  O
  C4       1.0000 0.69560  0.17810  0.02010  Biso   1.000  C
  O9       1.0000 0.72980  0.85400  0.15480  Biso   1.000  O
  O10      1.0000 0.65720  0.77880  0.05510  Biso   1.000  O
  O11      1.0000 0.61050  0.80060  0.19950  Biso   1.000  O
  O12      1.0000 0.69760  0.90540  0.29930  Biso   1.000  O
  S1       1.0000 0.57844  0.19710  0.83008  Biso   1.000  S
  C5       1.0000 0.50650  0.23950  0.78820  Biso   1.000  C
  S2       1.0000 0.68058  0.27150  0.94379  Biso   1.000  S
  C6       1.0000 0.73510  0.16080  0.03090  Biso   1.000  C
  C7       1.0000 0.56480  0.29240  0.75410  Biso   1.000  C
  H1       1.0000 0.47930  0.24000  0.78570  Biso   1.000  H
  C8       1.0000 0.52660  0.30440  0.73890  Biso   1.000  C
  C9       1.0000 0.72770  0.28900  0.92670  Biso   1.000  C
  C10      1.0000 0.75260  0.22260  0.97570  Biso   1.000  C
  H2       1.0000 0.74870  0.11320  0.07070  Biso   1.000  H
  C11      1.0000 0.59500  0.34610  0.71450  Biso   1.000  C
  H3       1.0000 0.51410  0.35260  0.69830  Biso   1.000  H
  C12      1.0000 0.73570  0.35780  0.85960  Biso   1.000  C
  H4       1.0000 0.77930  0.21820  0.97290  Biso   1.000  H
  O13      1.0000 0.58370  0.41780  0.65960  Biso   1.000  O
  O14      1.0000 0.62940  0.32150  0.73860  Biso   1.000  O
  O15      1.0000 0.70900  0.40780  0.81780  Biso   1.000  O
  Y3       1.0000 0.57710  0.55108  0.56236  Biso   1.000  Y
  Y4       1.0000 0.67939  0.41306  0.69098  Biso   1.000  Y
  O16      1.0000 0.60030  0.39160  0.50870  Biso   1.000  O
  O17      1.0000 0.60240  0.65660  0.67110  Biso   1.000  O
  O18      1.0000 0.54490  0.53230  0.43950  Biso   1.000  O
  O19      1.0000 0.62960  0.62550  0.51760  Biso   1.000  O
  O20      1.0000 0.51790  0.54780  0.59820  Biso   1.000  O
  O21      1.0000 0.65430  0.32100  0.57490  Biso   1.000  O
  O22      1.0000 0.65110  0.56600  0.74680  Biso   1.000  O
  O23      1.0000 0.67810  0.55900  0.60420  Biso   1.000  O
  O24      1.0000 0.73850  0.41010  0.65620  Biso   1.000  O
  C13      1.0000 0.62890  0.32400  0.51760  Biso   1.000  C
  C14      1.0000 0.62580  0.64070  0.73330  Biso   1.000  C
  C15      1.0000 0.51570  0.57230  0.39530  Biso   1.000  C
  C16      1.0000 0.66420  0.61990  0.54620  Biso   1.000  C
  C17      1.0000 0.63180  0.24310  0.45180  Biso   1.000  C
  C18      1.0000 0.62270  0.72360  0.79930  Biso   1.000  C
  C19      1.0000 0.52250  0.64440  0.32730  Biso   1.000  C
  C20      1.0000 0.69180  0.68770  0.50760  Biso   1.000  C
  S3       1.0000 0.60038  0.25330  0.36401  Biso   1.000  S
  C21      1.0000 0.65750  0.16130  0.44890  Biso   1.000  C
  S4       1.0000 0.64822  0.70000  0.89081  Biso   1.000  S
  C22      1.0000 0.59710  0.81220  0.79960  Biso   1.000  C
  S5       1.0000 0.56784  0.68350  0.31365  Biso   1.000  S
  C23      1.0000 0.49420  0.68680  0.26900  Biso   1.000  C
  S6       1.0000 0.67497  0.76580  0.42433  Biso   1.000  S
  C24      1.0000 0.73150  0.69840  0.52640  Biso   1.000  C
  C25      1.0000 0.62430  0.14350  0.32450  Biso   1.000  C
  H5       1.0000 0.67680  0.14390  0.49240  Biso   1.000  H
  C26      1.0000 0.65450  0.10100  0.37670  Biso   1.000  C
  C27      1.0000 0.62420  0.81150  0.92920  Biso   1.000  C
  H6       1.0000 0.58010  0.83640  0.75420  Biso   1.000  H
  C28      1.0000 0.59830  0.86310  0.87280  Biso   1.000  C
  C29      1.0000 0.54910  0.75960  0.23050  Biso   1.000  C
  H7       1.0000 0.46760  0.66940  0.26520  Biso   1.000  H
  C30      1.0000 0.50990  0.75950  0.21550  Biso   1.000  C
  C31      1.0000 0.72100  0.80920  0.41430  Biso   1.000  C
  H8       1.0000 0.74610  0.66580  0.57210  Biso   1.000  H
  C32      1.0000 0.74750  0.76100  0.47240  Biso   1.000  C
  C33      1.0000 0.61250  0.10950  0.24120  Biso   1.000  C
  H9       1.0000 0.67090  0.04020  0.36610  Biso   1.000  H
  C34      1.0000 0.63280  0.83680  0.01430  Biso   1.000  C
  H10      1.0000 0.58290  0.92680  0.88250  Biso   1.000  H
  C35      1.0000 0.57580  0.82440  0.18650  Biso   1.000  C
  H11      1.0000 0.49500  0.80240  0.17480  Biso   1.000  H
  C36      1.0000 0.72660  0.87890  0.34650  Biso   1.000  C
  H12      1.0000 0.77450  0.76960  0.47480  Biso   1.000  H
  Y5       1.0000 0.07615  0.56327  0.07810  Biso   1.000  Y
  O25      1.0000 0.04968  0.55090  0.94980  Biso   1.000  O
  O26      1.0000 0.13320  0.65020  0.05190  Biso   1.000  O
  O27      1.0000 0.01297  0.58000  0.09180  Biso   1.000  O
  O28      1.0000 0.08400  0.65970  0.20110  Biso   1.000  O
  O29      1.0000 0.12930  0.52900  0.21180  Biso   1.000  O
  O30      1.0000 0.11480  0.41870  0.04080  Biso   1.000  O
  O31      1.0000 0.06010  0.39780  0.13910  Biso   1.000  O
  C37      1.0000 0.02160  0.59590  0.90330  Biso   1.000  C
  C38      1.0000 0.16760  0.61730  0.06330  Biso   1.000  C
  Y6       1.0000 0.16837  0.38167  0.17583  Biso   1.000  Y
  C39      1.0000 0.03180  0.67420  0.84140  Biso   1.000  C
  O32      1.0000 0.18300  0.53820  0.10840  Biso   1.000  O
  C40      1.0000 0.19560  0.67810  0.02010  Biso   1.000  C
  O33      1.0000 0.22980  0.35400  0.15480  Biso   1.000  O
  O34      1.0000 0.15720  0.27880  0.05510  Biso   1.000  O
  O35      1.0000 0.11050  0.30060  0.19950  Biso   1.000  O
  O36      1.0000 0.19760  0.40540  0.29930  Biso   1.000  O
  S7       1.0000 0.07844  0.69710  0.83008  Biso   1.000  S
  C41      1.0000 0.00650  0.73950  0.78820  Biso   1.000  C
  S8       1.0000 0.18058  0.77150  0.94379  Biso   1.000  S
  C42      1.0000 0.23510  0.66080  0.03090  Biso   1.000  C
  C43      1.0000 0.06480  0.79240  0.75410  Biso   1.000  C
  H13      1.0000 0.97930  0.74000  0.78570  Biso   1.000  H
  C44      1.0000 0.02660  0.80440  0.73890  Biso   1.000  C
  C45      1.0000 0.22770  0.78900  0.92670  Biso   1.000  C
  C46      1.0000 0.25260  0.72260  0.97570  Biso   1.000  C
  H14      1.0000 0.24870  0.61320  0.07070  Biso   1.000  H
  C47      1.0000 0.09500  0.84610  0.71450  Biso   1.000  C
  H15      1.0000 0.01410  0.85260  0.69830  Biso   1.000  H
  C48      1.0000 0.23570  0.85780  0.85960  Biso   1.000  C
  H16      1.0000 0.27930  0.71820  0.97290  Biso   1.000  H
  O37      1.0000 0.08370  0.91780  0.65960  Biso   1.000  O
  O38      1.0000 0.12940  0.82150  0.73860  Biso   1.000  O
  O39      1.0000 0.20900  0.90780  0.81780  Biso   1.000  O
  Y7       1.0000 0.07710  0.05108  0.56236  Biso   1.000  Y
  Y8       1.0000 0.17939  0.91306  0.69098  Biso   1.000  Y
  O40      1.0000 0.10030  0.89160  0.50870  Biso   1.000  O
  O41      1.0000 0.10240  0.15660  0.67110  Biso   1.000  O
  O42      1.0000 0.04490  0.03230  0.43950  Biso   1.000  O
  O43      1.0000 0.12960  0.12550  0.51760  Biso   1.000  O
  O44      1.0000 0.01790  0.04780  0.59820  Biso   1.000  O
  O45      1.0000 0.15430  0.82100  0.57490  Biso   1.000  O
  O46      1.0000 0.15110  0.06600  0.74680  Biso   1.000  O
  O47      1.0000 0.17810  0.05900  0.60420  Biso   1.000  O
  O48      1.0000 0.23850  0.91010  0.65620  Biso   1.000  O
  C49      1.0000 0.12890  0.82400  0.51760  Biso   1.000  C
  C50      1.0000 0.12580  0.14070  0.73330  Biso   1.000  C
  C51      1.0000 0.01570  0.07230  0.39530  Biso   1.000  C
  C52      1.0000 0.16420  0.11990  0.54620  Biso   1.000  C
  C53      1.0000 0.13180  0.74310  0.45180  Biso   1.000  C
  C54      1.0000 0.12270  0.22360  0.79930  Biso   1.000  C
  C55      1.0000 0.02250  0.14440  0.32730  Biso   1.000  C
  C56      1.0000 0.19180  0.18770  0.50760  Biso   1.000  C
  S9       1.0000 0.10038  0.75330  0.36401  Biso   1.000  S
  C57      1.0000 0.15750  0.66130  0.44890  Biso   1.000  C
  S10      1.0000 0.14822  0.20000  0.89081  Biso   1.000  S
  C58      1.0000 0.09710  0.31220  0.79960  Biso   1.000  C
  S11      1.0000 0.06784  0.18350  0.31365  Biso   1.000  S
  C59      1.0000 0.99420  0.18680  0.26900  Biso   1.000  C
  S12      1.0000 0.17497  0.26580  0.42433  Biso   1.000  S
  C60      1.0000 0.23150  0.19840  0.52640  Biso   1.000  C
  C61      1.0000 0.12430  0.64350  0.32450  Biso   1.000  C
  H17      1.0000 0.17680  0.64390  0.49240  Biso   1.000  H
  C62      1.0000 0.15450  0.60100  0.37670  Biso   1.000  C
  C63      1.0000 0.12420  0.31150  0.92920  Biso   1.000  C
  H18      1.0000 0.08010  0.33640  0.75420  Biso   1.000  H
  C64      1.0000 0.09830  0.36310  0.87280  Biso   1.000  C
  C65      1.0000 0.04910  0.25960  0.23050  Biso   1.000  C
  H19      1.0000 0.96760  0.16940  0.26520  Biso   1.000  H
  C66      1.0000 0.00990  0.25950  0.21550  Biso   1.000  C
  C67      1.0000 0.22100  0.30920  0.41430  Biso   1.000  C
  H20      1.0000 0.24610  0.16580  0.57210  Biso   1.000  H
  C68      1.0000 0.24750  0.26100  0.47240  Biso   1.000  C
  C69      1.0000 0.11250  0.60950  0.24120  Biso   1.000  C
  H21      1.0000 0.17090  0.54020  0.36610  Biso   1.000  H
  C70      1.0000 0.13280  0.33680  0.01430  Biso   1.000  C
  H22      1.0000 0.08290  0.42680  0.88250  Biso   1.000  H
  C71      1.0000 0.07580  0.32440  0.18650  Biso   1.000  C
  H23      1.0000 0.99500  0.30240  0.17480  Biso   1.000  H
  C72      1.0000 0.22660  0.37890  0.34650  Biso   1.000  C
  H24      1.0000 0.27450  0.26960  0.47480  Biso   1.000  H
  Y9       1.0000 0.42385  0.06327  0.92190  Biso   1.000  Y
  O49      1.0000 0.45032  0.05090  0.05020  Biso   1.000  O
  O50      1.0000 0.36680  0.15020  0.94810  Biso   1.000  O
  O51      1.0000 0.48703  0.08000  0.90820  Biso   1.000  O
  O52      1.0000 0.41600  0.15970  0.79890  Biso   1.000  O
  O53      1.0000 0.37070  0.02900  0.78820  Biso   1.000  O
  O54      1.0000 0.38520  0.91870  0.95920  Biso   1.000  O
  O55      1.0000 0.43990  0.89780  0.86090  Biso   1.000  O
  C73      1.0000 0.47840  0.09590  0.09670  Biso   1.000  C
  C74      1.0000 0.33240  0.11730  0.93670  Biso   1.000  C
  Y10      1.0000 0.33163  0.88167  0.82417  Biso   1.000  Y
  C75      1.0000 0.46820  0.17420  0.15860  Biso   1.000  C
  O56      1.0000 0.31700  0.03820  0.89160  Biso   1.000  O
  C76      1.0000 0.30440  0.17810  0.97990  Biso   1.000  C
  O57      1.0000 0.27020  0.85400  0.84520  Biso   1.000  O
  O58      1.0000 0.34280  0.77880  0.94490  Biso   1.000  O
  O59      1.0000 0.38950  0.80060  0.80050  Biso   1.000  O
  O60      1.0000 0.30240  0.90540  0.70070  Biso   1.000  O
  S13      1.0000 0.42156  0.19710  0.16992  Biso   1.000  S
  C77      1.0000 0.49350  0.23950  0.21180  Biso   1.000  C
  S14      1.0000 0.31942  0.27150  0.05621  Biso   1.000  S
  C78      1.0000 0.26490  0.16080  0.96910  Biso   1.000  C
  C79      1.0000 0.43520  0.29240  0.24590  Biso   1.000  C
  H25      1.0000 0.52070  0.24000  0.21430  Biso   1.000  H
  C80      1.0000 0.47340  0.30440  0.26110  Biso   1.000  C
  C81      1.0000 0.27230  0.28900  0.07330  Biso   1.000  C
  C82      1.0000 0.24740  0.22260  0.02430  Biso   1.000  C
  H26      1.0000 0.25130  0.11320  0.92930  Biso   1.000  H
  C83      1.0000 0.40500  0.34610  0.28550  Biso   1.000  C
  H27      1.0000 0.48590  0.35260  0.30170  Biso   1.000  H
  C84      1.0000 0.26430  0.35780  0.14040  Biso   1.000  C
  H28      1.0000 0.22070  0.21820  0.02710  Biso   1.000  H
  O61      1.0000 0.41630  0.41780  0.34040  Biso   1.000  O
  O62      1.0000 0.37060  0.32150  0.26140  Biso   1.000  O
  O63      1.0000 0.29100  0.40780  0.18220  Biso   1.000  O
  Y11      1.0000 0.42290  0.55108  0.43764  Biso   1.000  Y
  Y12      1.0000 0.32061  0.41306  0.30902  Biso   1.000  Y
  O64      1.0000 0.39970  0.39160  0.49130  Biso   1.000  O
  O65      1.0000 0.39760  0.65660  0.32890  Biso   1.000  O
  O66      1.0000 0.45510  0.53230  0.56050  Biso   1.000  O
  O67      1.0000 0.37040  0.62550  0.48240  Biso   1.000  O
  O68      1.0000 0.48210  0.54780  0.40180  Biso   1.000  O
  O69      1.0000 0.34570  0.32100  0.42510  Biso   1.000  O
  O70      1.0000 0.34890  0.56600  0.25320  Biso   1.000  O
  O71      1.0000 0.32190  0.55900  0.39580  Biso   1.000  O
  O72      1.0000 0.26150  0.41010  0.34380  Biso   1.000  O
  C85      1.0000 0.37110  0.32400  0.48240  Biso   1.000  C
  C86      1.0000 0.37420  0.64070  0.26670  Biso   1.000  C
  C87      1.0000 0.48430  0.57230  0.60470  Biso   1.000  C
  C88      1.0000 0.33580  0.61990  0.45380  Biso   1.000  C
  C89      1.0000 0.36820  0.24310  0.54820  Biso   1.000  C
  C90      1.0000 0.37730  0.72360  0.20070  Biso   1.000  C
  C91      1.0000 0.47750  0.64440  0.67270  Biso   1.000  C
  C92      1.0000 0.30820  0.68770  0.49240  Biso   1.000  C
  S15      1.0000 0.39962  0.25330  0.63599  Biso   1.000  S
  C93      1.0000 0.34250  0.16130  0.55110  Biso   1.000  C
  S16      1.0000 0.35178  0.70000  0.10919  Biso   1.000  S
  C94      1.0000 0.40290  0.81220  0.20040  Biso   1.000  C
  S17      1.0000 0.43216  0.68350  0.68635  Biso   1.000  S
  C95      1.0000 0.50580  0.68680  0.73100  Biso   1.000  C
  S18      1.0000 0.32503  0.76580  0.57567  Biso   1.000  S
  C96      1.0000 0.26850  0.69840  0.47360  Biso   1.000  C
  C97      1.0000 0.37570  0.14350  0.67550  Biso   1.000  C
  H29      1.0000 0.32320  0.14390  0.50760  Biso   1.000  H
  C98      1.0000 0.34550  0.10100  0.62330  Biso   1.000  C
  C99      1.0000 0.37580  0.81150  0.07080  Biso   1.000  C
  H30      1.0000 0.41990  0.83640  0.24580  Biso   1.000  H
  C100     1.0000 0.40170  0.86310  0.12720  Biso   1.000  C
  C101     1.0000 0.45090  0.75960  0.76950  Biso   1.000  C
  H31      1.0000 0.53240  0.66940  0.73480  Biso   1.000  H
  C102     1.0000 0.49010  0.75950  0.78450  Biso   1.000  C
  C103     1.0000 0.27900  0.80920  0.58570  Biso   1.000  C
  H32      1.0000 0.25390  0.66580  0.42790  Biso   1.000  H
  C104     1.0000 0.25250  0.76100  0.52760  Biso   1.000  C
  C105     1.0000 0.38750  0.10950  0.75880  Biso   1.000  C
  H33      1.0000 0.32910  0.04020  0.63390  Biso   1.000  H
  C106     1.0000 0.36720  0.83680  0.98570  Biso   1.000  C
  H34      1.0000 0.41710  0.92680  0.11750  Biso   1.000  H
  C107     1.0000 0.42420  0.82440  0.81350  Biso   1.000  C
  H35      1.0000 0.50500  0.80240  0.82520  Biso   1.000  H
  C108     1.0000 0.27340  0.87890  0.65350  Biso   1.000  C
  H36      1.0000 0.22550  0.76960  0.52520  Biso   1.000  H
  Y13      1.0000 0.92385  0.56327  0.92190  Biso   1.000  Y
  O73      1.0000 0.95032  0.55090  0.05020  Biso   1.000  O
  O74      1.0000 0.86680  0.65020  0.94810  Biso   1.000  O
  O75      1.0000 0.98703  0.58000  0.90820  Biso   1.000  O
  O76      1.0000 0.91600  0.65970  0.79890  Biso   1.000  O
  O77      1.0000 0.87070  0.52900  0.78820  Biso   1.000  O
  O78      1.0000 0.88520  0.41870  0.95920  Biso   1.000  O
  O79      1.0000 0.93990  0.39780  0.86090  Biso   1.000  O
  C109     1.0000 0.97840  0.59590  0.09670  Biso   1.000  C
  C110     1.0000 0.83240  0.61730  0.93670  Biso   1.000  C
  Y14      1.0000 0.83163  0.38167  0.82417  Biso   1.000  Y
  C111     1.0000 0.96820  0.67420  0.15860  Biso   1.000  C
  O80      1.0000 0.81700  0.53820  0.89160  Biso   1.000  O
  C112     1.0000 0.80440  0.67810  0.97990  Biso   1.000  C
  O81      1.0000 0.77020  0.35400  0.84520  Biso   1.000  O
  O82      1.0000 0.84280  0.27880  0.94490  Biso   1.000  O
  O83      1.0000 0.88950  0.30060  0.80050  Biso   1.000  O
  O84      1.0000 0.80240  0.40540  0.70070  Biso   1.000  O
  S19      1.0000 0.92156  0.69710  0.16992  Biso   1.000  S
  C113     1.0000 0.99350  0.73950  0.21180  Biso   1.000  C
  S20      1.0000 0.81942  0.77150  0.05621  Biso   1.000  S
  C114     1.0000 0.76490  0.66080  0.96910  Biso   1.000  C
  C115     1.0000 0.93520  0.79240  0.24590  Biso   1.000  C
  H37      1.0000 0.02070  0.74000  0.21430  Biso   1.000  H
  C116     1.0000 0.97340  0.80440  0.26110  Biso   1.000  C
  C117     1.0000 0.77230  0.78900  0.07330  Biso   1.000  C
  C118     1.0000 0.74740  0.72260  0.02430  Biso   1.000  C
  H38      1.0000 0.75130  0.61320  0.92930  Biso   1.000  H
  C119     1.0000 0.90500  0.84610  0.28550  Biso   1.000  C
  H39      1.0000 0.98590  0.85260  0.30170  Biso   1.000  H
  C120     1.0000 0.76430  0.85780  0.14040  Biso   1.000  C
  H40      1.0000 0.72070  0.71820  0.02710  Biso   1.000  H
  O85      1.0000 0.91630  0.91780  0.34040  Biso   1.000  O
  O86      1.0000 0.87060  0.82150  0.26140  Biso   1.000  O
  O87      1.0000 0.79100  0.90780  0.18220  Biso   1.000  O
  Y15      1.0000 0.92290  0.05108  0.43764  Biso   1.000  Y
  Y16      1.0000 0.82061  0.91306  0.30902  Biso   1.000  Y
  O88      1.0000 0.89970  0.89160  0.49130  Biso   1.000  O
  O89      1.0000 0.89760  0.15660  0.32890  Biso   1.000  O
  O90      1.0000 0.95510  0.03230  0.56050  Biso   1.000  O
  O91      1.0000 0.87040  0.12550  0.48240  Biso   1.000  O
  O92      1.0000 0.98210  0.04780  0.40180  Biso   1.000  O
  O93      1.0000 0.84570  0.82100  0.42510  Biso   1.000  O
  O94      1.0000 0.84890  0.06600  0.25320  Biso   1.000  O
  O95      1.0000 0.82190  0.05900  0.39580  Biso   1.000  O
  O96      1.0000 0.76150  0.91010  0.34380  Biso   1.000  O
  C121     1.0000 0.87110  0.82400  0.48240  Biso   1.000  C
  C122     1.0000 0.87420  0.14070  0.26670  Biso   1.000  C
  C123     1.0000 0.98430  0.07230  0.60470  Biso   1.000  C
  C124     1.0000 0.83580  0.11990  0.45380  Biso   1.000  C
  C125     1.0000 0.86820  0.74310  0.54820  Biso   1.000  C
  C126     1.0000 0.87730  0.22360  0.20070  Biso   1.000  C
  C127     1.0000 0.97750  0.14440  0.67270  Biso   1.000  C
  C128     1.0000 0.80820  0.18770  0.49240  Biso   1.000  C
  S21      1.0000 0.89962  0.75330  0.63599  Biso   1.000  S
  C129     1.0000 0.84250  0.66130  0.55110  Biso   1.000  C
  S22      1.0000 0.85178  0.20000  0.10919  Biso   1.000  S
  C130     1.0000 0.90290  0.31220  0.20040  Biso   1.000  C
  S23      1.0000 0.93216  0.18350  0.68635  Biso   1.000  S
  C131     1.0000 0.00580  0.18680  0.73100  Biso   1.000  C
  S24      1.0000 0.82503  0.26580  0.57567  Biso   1.000  S
  C132     1.0000 0.76850  0.19840  0.47360  Biso   1.000  C
  C133     1.0000 0.87570  0.64350  0.67550  Biso   1.000  C
  H41      1.0000 0.82320  0.64390  0.50760  Biso   1.000  H
  C134     1.0000 0.84550  0.60100  0.62330  Biso   1.000  C
  C135     1.0000 0.87580  0.31150  0.07080  Biso   1.000  C
  H42      1.0000 0.91990  0.33640  0.24580  Biso   1.000  H
  C136     1.0000 0.90170  0.36310  0.12720  Biso   1.000  C
  C137     1.0000 0.95090  0.25960  0.76950  Biso   1.000  C
  H43      1.0000 0.03240  0.16940  0.73480  Biso   1.000  H
  C138     1.0000 0.99010  0.25950  0.78450  Biso   1.000  C
  C139     1.0000 0.77900  0.30920  0.58570  Biso   1.000  C
  H44      1.0000 0.75390  0.16580  0.42790  Biso   1.000  H
  C140     1.0000 0.75250  0.26100  0.52760  Biso   1.000  C
  C141     1.0000 0.88750  0.60950  0.75880  Biso   1.000  C
  H45      1.0000 0.82910  0.54020  0.63390  Biso   1.000  H
  C142     1.0000 0.86720  0.33680  0.98570  Biso   1.000  C
  H46      1.0000 0.91710  0.42680  0.11750  Biso   1.000  H
  C143     1.0000 0.92420  0.32440  0.81350  Biso   1.000  C
  H47      1.0000 0.00500  0.30240  0.82520  Biso   1.000  H
  C144     1.0000 0.77340  0.37890  0.65350  Biso   1.000  C
  H48      1.0000 0.72550  0.26960  0.52520  Biso   1.000  H
