data_CANRIU_clean
_audit_creation_date              2014-07-02
_audit_creation_method            'Materials Studio'
_symmetry_space_group_name_H-M    'P1'
_symmetry_Int_Tables_number       1
_symmetry_cell_setting            triclinic
loop_
_symmetry_equiv_pos_as_xyz
  x,y,z
_cell_length_a                    12.7279
_cell_length_b                    14.5331
_cell_length_c                    23.2812
_cell_angle_alpha                 99.8150
_cell_angle_beta                  92.6010
_cell_angle_gamma                 97.0710
loop_
_atom_site_label
_atom_site_type_symbol
_atom_site_fract_x
_atom_site_fract_y
_atom_site_fract_z
_atom_site_U_iso_or_equiv
_atom_site_adp_type
_atom_site_occupancy
Mg1    Mg    0.49549   0.69808   0.60862   0.01267  Uiso   1.00
Mg2    Mg    0.94134   0.31208   0.07448   0.01267  Uiso   1.00
Mg3    Mg    0.50451   0.30192   0.39138   0.01267  Uiso   1.00
Mg4    Mg    0.05866   0.68792   0.92552   0.01267  Uiso   1.00
Mg5    Mg    0.50000   0.50000   0.50000   0.01267  Uiso   1.00
Mg6    Mg    0.00000   0.50000   0.00000   0.01267  Uiso   1.00
Si1    Si    0.97304   0.77608   0.36669   0.01267  Uiso   1.00
Si2    Si    0.60107   0.75480   0.18747   0.01267  Uiso   1.00
Si3    Si    0.02696   0.22392   0.63331   0.01267  Uiso   1.00
Si4    Si    0.39893   0.24520   0.81253   0.01267  Uiso   1.00
H1     H     0.86670   0.62200   0.41200   0.01267  Uiso   1.00
H2     H     0.72930   0.59360   0.47390   0.01267  Uiso   1.00
H3     H     0.66630   0.86210   0.47600   0.01267  Uiso   1.00
H4     H     0.80300   0.88620   0.41530   0.01267  Uiso   1.00
H5     H     0.83520   0.60830   0.30620   0.01267  Uiso   1.00
H6     H     0.83060   0.50430   0.22040   0.01267  Uiso   1.00
H7     H     0.06020   0.67860   0.16460   0.01267  Uiso   1.00
H8     H     0.07050   0.78010   0.25450   0.01267  Uiso   1.00
H9     H     0.16140   0.67900   0.34020   0.01267  Uiso   1.00
H10    H     0.28760   0.62020   0.39290   0.01267  Uiso   1.00
H11    H     0.16630   0.73080   0.54250   0.01267  Uiso   1.00
H12    H     0.03200   0.77720   0.48940   0.01267  Uiso   1.00
H13    H     0.93500   0.90090   0.28250   0.01267  Uiso   1.00
H14    H     0.97330   0.06240   0.28200   0.01267  Uiso   1.00
H15    H     0.12170   0.10020   0.44360   0.01267  Uiso   1.00
H16    H     0.08330   0.93870   0.44410   0.01267  Uiso   1.00
H17    H     0.53520   0.76720   0.30700   0.01267  Uiso   1.00
H18    H     0.51850   0.67140   0.37560   0.01267  Uiso   1.00
H19    H     0.61050   0.46230   0.26220   0.01267  Uiso   1.00
H20    H     0.63060   0.55810   0.19370   0.01267  Uiso   1.00
H21    H     0.66230   0.60490   0.10460   0.01267  Uiso   1.00
H22    H     0.79190   0.58530   0.03700   0.01267  Uiso   1.00
H23    H     0.92220   0.85520   0.09240   0.01267  Uiso   1.00
H24    H     0.79550   0.87210   0.16340   0.01267  Uiso   1.00
H25    H     0.39170   0.64100   0.18310   0.01267  Uiso   1.00
H26    H     0.25050   0.59320   0.11360   0.01267  Uiso   1.00
H27    H     0.37860   0.76380   0.01320   0.01267  Uiso   1.00
H28    H     0.52850   0.80380   0.07740   0.01267  Uiso   1.00
H29    H     0.73840   0.86530   0.28440   0.01267  Uiso   1.00
H30    H     0.74850   0.00820   0.34360   0.01267  Uiso   1.00
H31    H     0.50320   0.07100   0.24910   0.01267  Uiso   1.00
H32    H     0.49260   0.92740   0.18790   0.01267  Uiso   1.00
H33    H     0.13330   0.37800   0.58800   0.01267  Uiso   1.00
H34    H     0.27070   0.40640   0.52610   0.01267  Uiso   1.00
H35    H     0.33370   0.13790   0.52400   0.01267  Uiso   1.00
H36    H     0.19700   0.11380   0.58470   0.01267  Uiso   1.00
H37    H     0.16480   0.39170   0.69380   0.01267  Uiso   1.00
H38    H     0.16940   0.49570   0.77960   0.01267  Uiso   1.00
H39    H     0.93980   0.32140   0.83540   0.01267  Uiso   1.00
H40    H     0.92950   0.21990   0.74550   0.01267  Uiso   1.00
H41    H     0.83860   0.32100   0.65980   0.01267  Uiso   1.00
H42    H     0.71240   0.37980   0.60710   0.01267  Uiso   1.00
H43    H     0.83370   0.26920   0.45750   0.01267  Uiso   1.00
H44    H     0.96800   0.22280   0.51060   0.01267  Uiso   1.00
H45    H     0.06500   0.09910   0.71750   0.01267  Uiso   1.00
H46    H     0.02670   0.93760   0.71800   0.01267  Uiso   1.00
H47    H     0.87830   0.89980   0.55640   0.01267  Uiso   1.00
H48    H     0.91670   0.06130   0.55590   0.01267  Uiso   1.00
H49    H     0.46480   0.23280   0.69300   0.01267  Uiso   1.00
H50    H     0.48150   0.32860   0.62440   0.01267  Uiso   1.00
H51    H     0.38950   0.53770   0.73780   0.01267  Uiso   1.00
H52    H     0.36940   0.44190   0.80630   0.01267  Uiso   1.00
H53    H     0.33770   0.39510   0.89540   0.01267  Uiso   1.00
H54    H     0.20810   0.41470   0.96300   0.01267  Uiso   1.00
H55    H     0.07780   0.14480   0.90760   0.01267  Uiso   1.00
H56    H     0.20450   0.12790   0.83660   0.01267  Uiso   1.00
H57    H     0.60830   0.35900   0.81690   0.01267  Uiso   1.00
H58    H     0.74950   0.40680   0.88640   0.01267  Uiso   1.00
H59    H     0.62140   0.23620   0.98680   0.01267  Uiso   1.00
H60    H     0.47150   0.19620   0.92260   0.01267  Uiso   1.00
H61    H     0.26160   0.13470   0.71560   0.01267  Uiso   1.00
H62    H     0.25150   0.99180   0.65640   0.01267  Uiso   1.00
H63    H     0.49680   0.92900   0.75090   0.01267  Uiso   1.00
H64    H     0.50740   0.07260   0.81210   0.01267  Uiso   1.00
C1     C     0.85240   0.75640   0.40930   0.01267  Uiso   1.00
C2     C     0.82700   0.67150   0.42590   0.01267  Uiso   1.00
C3     C     0.74520   0.65330   0.46250   0.01267  Uiso   1.00
C4     C     0.68720   0.72970   0.48180   0.01267  Uiso   1.00
C5     C     0.70780   0.81310   0.46390   0.01267  Uiso   1.00
C6     C     0.78930   0.82720   0.42780   0.01267  Uiso   1.00
C7     C     0.60500   0.71410   0.52570   0.01267  Uiso   1.00
C8     C     0.95610   0.70350   0.29200   0.01267  Uiso   1.00
C9     C     0.88430   0.62190   0.27820   0.01267  Uiso   1.00
C10    C     0.88010   0.56020   0.22680   0.01267  Uiso   1.00
C11    C     0.94660   0.57810   0.18410   0.01267  Uiso   1.00
C12    C     0.01630   0.66280   0.19430   0.01267  Uiso   1.00
C13    C     0.02160   0.72380   0.24790   0.01267  Uiso   1.00
C14    C     0.94930   0.50990   0.12950   0.01267  Uiso   1.00
C15    C     0.08210   0.73550   0.40820   0.01267  Uiso   1.00
C16    C     0.16030   0.68810   0.38150   0.01267  Uiso   1.00
C17    C     0.23670   0.65370   0.41300   0.01267  Uiso   1.00
C18    C     0.24000   0.66750   0.47450   0.01267  Uiso   1.00
C19    C     0.16410   0.71710   0.50110   0.01267  Uiso   1.00
C20    C     0.08550   0.74730   0.46930   0.01267  Uiso   1.00
C21    C     0.32440   0.63490   0.50790   0.01267  Uiso   1.00
C22    C     0.00550   0.90460   0.36330   0.01267  Uiso   1.00
C23    C     0.97290   0.94140   0.31520   0.01267  Uiso   1.00
C24    C     0.99570   0.03730   0.31490   0.01267  Uiso   1.00
C25    C     0.05110   0.09650   0.36270   0.01267  Uiso   1.00
C26    C     0.08380   0.05970   0.41090   0.01267  Uiso   1.00
C27    C     0.06100   0.96380   0.41120   0.01267  Uiso   1.00
C28    C     0.07720   0.19780   0.36040   0.01267  Uiso   1.00
C29    C     0.58950   0.67610   0.24220   0.01267  Uiso   1.00
C30    C     0.55290   0.70510   0.29760   0.01267  Uiso   1.00
C31    C     0.54180   0.64820   0.33830   0.01267  Uiso   1.00
C32    C     0.56410   0.55720   0.32550   0.01267  Uiso   1.00
C33    C     0.59620   0.52550   0.27170   0.01267  Uiso   1.00
C34    C     0.60840   0.58290   0.23100   0.01267  Uiso   1.00
C35    C     0.54650   0.49290   0.36830   0.01267  Uiso   1.00
C36    C     0.71460   0.74150   0.14040   0.01267  Uiso   1.00
C37    C     0.71520   0.65630   0.10250   0.01267  Uiso   1.00
C38    C     0.79140   0.64450   0.06170   0.01267  Uiso   1.00
C39    C     0.86730   0.72090   0.05760   0.01267  Uiso   1.00
C40    C     0.86940   0.80390   0.09470   0.01267  Uiso   1.00
C41    C     0.79270   0.81410   0.13700   0.01267  Uiso   1.00
C42    C     0.94270   0.70670   0.00860   0.01267  Uiso   1.00
C43    C     0.47750   0.72590   0.13640   0.01267  Uiso   1.00
C44    C     0.39210   0.66460   0.14750   0.01267  Uiso   1.00
C45    C     0.30710   0.63780   0.10630   0.01267  Uiso   1.00
C46    C     0.30150   0.67290   0.05580   0.01267  Uiso   1.00
C47    C     0.38210   0.73570   0.04710   0.01267  Uiso   1.00
C48    C     0.47120   0.76110   0.08610   0.01267  Uiso   1.00
C49    C     0.20600   0.64120   0.01280   0.01267  Uiso   1.00
C50    C     0.61440   0.87860   0.22880   0.01267  Uiso   1.00
C51    C     0.68960   0.90710   0.27690   0.01267  Uiso   1.00
C52    C     0.69500   0.99050   0.31250   0.01267  Uiso   1.00
C53    C     0.62400   0.04910   0.30370   0.01267  Uiso   1.00
C54    C     0.54980   0.02730   0.25620   0.01267  Uiso   1.00
C55    C     0.54450   0.94300   0.21990   0.01267  Uiso   1.00
C56    C     0.62180   0.13940   0.34610   0.01267  Uiso   1.00
C57    C     0.14760   0.24360   0.59070   0.01267  Uiso   1.00
C58    C     0.17300   0.32850   0.57410   0.01267  Uiso   1.00
C59    C     0.25480   0.34670   0.53750   0.01267  Uiso   1.00
C60    C     0.31280   0.27030   0.51820   0.01267  Uiso   1.00
C61    C     0.29220   0.18690   0.53610   0.01267  Uiso   1.00
C62    C     0.21070   0.17280   0.57220   0.01267  Uiso   1.00
C63    C     0.39500   0.28590   0.47430   0.01267  Uiso   1.00
C64    C     0.04390   0.29650   0.70800   0.01267  Uiso   1.00
C65    C     0.11570   0.37810   0.72180   0.01267  Uiso   1.00
C66    C     0.11990   0.43980   0.77320   0.01267  Uiso   1.00
C67    C     0.05340   0.42190   0.81590   0.01267  Uiso   1.00
C68    C     0.98370   0.33720   0.80570   0.01267  Uiso   1.00
C69    C     0.97840   0.27620   0.75210   0.01267  Uiso   1.00
C70    C     0.05070   0.49010   0.87050   0.01267  Uiso   1.00
C71    C     0.91790   0.26450   0.59180   0.01267  Uiso   1.00
C72    C     0.83970   0.31190   0.61850   0.01267  Uiso   1.00
C73    C     0.76330   0.34630   0.58700   0.01267  Uiso   1.00
C74    C     0.76000   0.33250   0.52550   0.01267  Uiso   1.00
C75    C     0.83590   0.28290   0.49890   0.01267  Uiso   1.00
C76    C     0.91450   0.25270   0.53070   0.01267  Uiso   1.00
C77    C     0.67560   0.36510   0.49210   0.01267  Uiso   1.00
C78    C     0.99450   0.09540   0.63670   0.01267  Uiso   1.00
C79    C     0.02710   0.05860   0.68480   0.01267  Uiso   1.00
C80    C     0.00430   0.96270   0.68510   0.01267  Uiso   1.00
C81    C     0.94890   0.90350   0.63730   0.01267  Uiso   1.00
C82    C     0.91620   0.94030   0.58910   0.01267  Uiso   1.00
C83    C     0.93900   0.03620   0.58880   0.01267  Uiso   1.00
C84    C     0.92280   0.80220   0.63960   0.01267  Uiso   1.00
C85    C     0.41050   0.32390   0.75780   0.01267  Uiso   1.00
C86    C     0.44710   0.29490   0.70240   0.01267  Uiso   1.00
C87    C     0.45820   0.35180   0.66170   0.01267  Uiso   1.00
C88    C     0.43590   0.44280   0.67450   0.01267  Uiso   1.00
C89    C     0.40380   0.47450   0.72830   0.01267  Uiso   1.00
C90    C     0.39160   0.41710   0.76900   0.01267  Uiso   1.00
C91    C     0.45350   0.50710   0.63170   0.01267  Uiso   1.00
C92    C     0.28540   0.25850   0.85960   0.01267  Uiso   1.00
C93    C     0.28480   0.34370   0.89750   0.01267  Uiso   1.00
C94    C     0.20860   0.35550   0.93830   0.01267  Uiso   1.00
C95    C     0.13270   0.27910   0.94240   0.01267  Uiso   1.00
C96    C     0.13060   0.19610   0.90530   0.01267  Uiso   1.00
C97    C     0.20730   0.18590   0.86300   0.01267  Uiso   1.00
C98    C     0.05730   0.29330   0.99140   0.01267  Uiso   1.00
C99    C     0.52250   0.27410   0.86360   0.01267  Uiso   1.00
C100   C     0.60790   0.33540   0.85250   0.01267  Uiso   1.00
C101   C     0.69290   0.36220   0.89370   0.01267  Uiso   1.00
C102   C     0.69850   0.32710   0.94420   0.01267  Uiso   1.00
C103   C     0.61790   0.26430   0.95290   0.01267  Uiso   1.00
C104   C     0.52880   0.23890   0.91390   0.01267  Uiso   1.00
C105   C     0.79400   0.35880   0.98720   0.01267  Uiso   1.00
C106   C     0.38560   0.12140   0.77120   0.01267  Uiso   1.00
C107   C     0.31040   0.09290   0.72310   0.01267  Uiso   1.00
C108   C     0.30500   0.00950   0.68750   0.01267  Uiso   1.00
C109   C     0.37600   0.95090   0.69630   0.01267  Uiso   1.00
C110   C     0.45020   0.97270   0.74380   0.01267  Uiso   1.00
C111   C     0.45550   0.05700   0.78010   0.01267  Uiso   1.00
C112   C     0.37820   0.86060   0.65390   0.01267  Uiso   1.00
O1     O     0.57710   0.63380   0.53749   0.01267  Uiso   1.00
O2     O     0.57000   0.78450   0.55282   0.01267  Uiso   1.00
O3     O     0.91150   0.42580   0.12879   0.01267  Uiso   1.00
O4     O     0.99130   0.54050   0.08702   0.01267  Uiso   1.00
O5     O     0.35700   0.56030   0.48828   0.01267  Uiso   1.00
O6     O     0.35720   0.68670   0.55603   0.01267  Uiso   1.00
O7     O     0.05470   0.22950   0.31690   0.01267  Uiso   1.00
O8     O     0.13150   0.25100   0.40740   0.01267  Uiso   1.00
O9     O     0.52680   0.52770   0.42012   0.01267  Uiso   1.00
O10    O     0.55440   0.40660   0.35212   0.01267  Uiso   1.00
O11    O     0.95700   0.62610   0.98359   0.01267  Uiso   1.00
O12    O     0.98700   0.78180   0.99300   0.01267  Uiso   1.00
O13    O     0.15430   0.56250   0.01456   0.01267  Uiso   1.00
O14    O     0.18850   0.69770   0.97963   0.01267  Uiso   1.00
O15    O     0.68870   0.15590   0.39229   0.01267  Uiso   1.00
O16    O     0.55960   0.19460   0.33766   0.01267  Uiso   1.00
O17    O     0.42290   0.36620   0.46251   0.01267  Uiso   1.00
O18    O     0.43000   0.21550   0.44718   0.01267  Uiso   1.00
O19    O     0.08850   0.57420   0.87121   0.01267  Uiso   1.00
O20    O     0.00870   0.45950   0.91298   0.01267  Uiso   1.00
O21    O     0.64300   0.43970   0.51172   0.01267  Uiso   1.00
O22    O     0.64280   0.31330   0.44397   0.01267  Uiso   1.00
O23    O     0.94530   0.77050   0.68310   0.01267  Uiso   1.00
O24    O     0.86850   0.74900   0.59260   0.01267  Uiso   1.00
O25    O     0.47320   0.47230   0.57988   0.01267  Uiso   1.00
O26    O     0.44560   0.59340   0.64788   0.01267  Uiso   1.00
O27    O     0.04300   0.37390   0.01641   0.01267  Uiso   1.00
O28    O     0.01300   0.21820   0.00700   0.01267  Uiso   1.00
O29    O     0.84570   0.43750   0.98544   0.01267  Uiso   1.00
O30    O     0.81150   0.30230   0.02037   0.01267  Uiso   1.00
O31    O     0.31130   0.84410   0.60771   0.01267  Uiso   1.00
O32    O     0.44040   0.80540   0.66234   0.01267  Uiso   1.00
