data_CANRUG_clean
_audit_creation_date              2014-07-02
_audit_creation_method            'Materials Studio'
_symmetry_space_group_name_H-M    'P1'
_symmetry_Int_Tables_number       1
_symmetry_cell_setting            triclinic
loop_
_symmetry_equiv_pos_as_xyz
  x,y,z
_cell_length_a                    13.6691
_cell_length_b                    14.5690
_cell_length_c                    23.6874
_cell_angle_alpha                 90.0000
_cell_angle_beta                  90.0000
_cell_angle_gamma                 114.9390
loop_
_atom_site_label
_atom_site_type_symbol
_atom_site_fract_x
_atom_site_fract_y
_atom_site_fract_z
_atom_site_U_iso_or_equiv
_atom_site_adp_type
_atom_site_occupancy
Ca1    Ca    0.01577   0.00132   0.65686   0.01267  Uiso   1.00
Ca2    Ca    0.98423   0.49868   0.15686   0.01267  Uiso   1.00
Ca3    Ca    0.98423   0.99868   0.34314   0.01267  Uiso   1.00
Ca4    Ca    0.01577   0.50132   0.84314   0.01267  Uiso   1.00
Ca5    Ca    0.00000   0.00000   0.50000   0.01267  Uiso   1.00
Ca6    Ca    0.00000   0.50000   0.00000   0.01267  Uiso   1.00
Si1    Si    0.70684   0.37959   0.50911   0.01267  Uiso   1.00
Si2    Si    0.29316   0.12041   0.00911   0.01267  Uiso   1.00
Si3    Si    0.29316   0.62041   0.49089   0.01267  Uiso   1.00
Si4    Si    0.70684   0.87959   0.99089   0.01267  Uiso   1.00
H1     H     0.87400   0.41740   0.59970   0.01267  Uiso   1.00
H2     H     0.96760   0.32760   0.63460   0.01267  Uiso   1.00
H3     H     0.81910   0.10630   0.51970   0.01267  Uiso   1.00
H4     H     0.72610   0.19600   0.48510   0.01267  Uiso   1.00
H5     H     0.58910   0.20750   0.58360   0.01267  Uiso   1.00
H6     H     0.40990   0.11400   0.61030   0.01267  Uiso   1.00
H7     H     0.31930   0.28710   0.50770   0.01267  Uiso   1.00
H8     H     0.49940   0.38850   0.48760   0.01267  Uiso   1.00
H9     H     0.88790   0.57130   0.48020   0.01267  Uiso   1.00
H10    H     0.95980   0.73670   0.51310   0.01267  Uiso   1.00
H11    H     0.71820   0.66040   0.62690   0.01267  Uiso   1.00
H12    H     0.64590   0.49430   0.59340   0.01267  Uiso   1.00
H13    H     0.56420   0.31990   0.40580   0.01267  Uiso   1.00
H14    H     0.59530   0.32690   0.30840   0.01267  Uiso   1.00
H15    H     0.91670   0.43700   0.33720   0.01267  Uiso   1.00
H16    H     0.88530   0.42610   0.43390   0.01267  Uiso   1.00
H17    H     0.72900   0.37700   0.18240   0.01267  Uiso   1.00
H18    H     0.12600   0.08260   0.09970   0.01267  Uiso   1.00
H19    H     0.03240   0.17240   0.13460   0.01267  Uiso   1.00
H20    H     0.18090   0.39370   0.01970   0.01267  Uiso   1.00
H21    H     0.27390   0.30400   0.98510   0.01267  Uiso   1.00
H22    H     0.41090   0.29250   0.08360   0.01267  Uiso   1.00
H23    H     0.59010   0.38600   0.11030   0.01267  Uiso   1.00
H24    H     0.68070   0.21290   0.00770   0.01267  Uiso   1.00
H25    H     0.50060   0.11150   0.98760   0.01267  Uiso   1.00
H26    H     0.11210   0.92870   0.98020   0.01267  Uiso   1.00
H27    H     0.04020   0.76330   0.01310   0.01267  Uiso   1.00
H28    H     0.28180   0.83960   0.12690   0.01267  Uiso   1.00
H29    H     0.35410   0.00570   0.09340   0.01267  Uiso   1.00
H30    H     0.43580   0.18010   0.90580   0.01267  Uiso   1.00
H31    H     0.40470   0.17310   0.80840   0.01267  Uiso   1.00
H32    H     0.08330   0.06300   0.83720   0.01267  Uiso   1.00
H33    H     0.11470   0.07390   0.93390   0.01267  Uiso   1.00
H34    H     0.27100   0.12300   0.68240   0.01267  Uiso   1.00
H35    H     0.12600   0.58260   0.40030   0.01267  Uiso   1.00
H36    H     0.03240   0.67240   0.36540   0.01267  Uiso   1.00
H37    H     0.18090   0.89370   0.48030   0.01267  Uiso   1.00
H38    H     0.27390   0.80400   0.51490   0.01267  Uiso   1.00
H39    H     0.41090   0.79250   0.41640   0.01267  Uiso   1.00
H40    H     0.59010   0.88600   0.38970   0.01267  Uiso   1.00
H41    H     0.68070   0.71290   0.49230   0.01267  Uiso   1.00
H42    H     0.50060   0.61150   0.51240   0.01267  Uiso   1.00
H43    H     0.11210   0.42870   0.51980   0.01267  Uiso   1.00
H44    H     0.04020   0.26330   0.48690   0.01267  Uiso   1.00
H45    H     0.28180   0.33960   0.37310   0.01267  Uiso   1.00
H46    H     0.35410   0.50570   0.40660   0.01267  Uiso   1.00
H47    H     0.43580   0.68010   0.59420   0.01267  Uiso   1.00
H48    H     0.40470   0.67310   0.69160   0.01267  Uiso   1.00
H49    H     0.08330   0.56300   0.66280   0.01267  Uiso   1.00
H50    H     0.11470   0.57390   0.56610   0.01267  Uiso   1.00
H51    H     0.27100   0.62300   0.81760   0.01267  Uiso   1.00
H52    H     0.87400   0.91740   0.90030   0.01267  Uiso   1.00
H53    H     0.96760   0.82760   0.86540   0.01267  Uiso   1.00
H54    H     0.81910   0.60630   0.98030   0.01267  Uiso   1.00
H55    H     0.72610   0.69600   0.01490   0.01267  Uiso   1.00
H56    H     0.58910   0.70750   0.91640   0.01267  Uiso   1.00
H57    H     0.40990   0.61400   0.88970   0.01267  Uiso   1.00
H58    H     0.31930   0.78710   0.99230   0.01267  Uiso   1.00
H59    H     0.49940   0.88850   0.01240   0.01267  Uiso   1.00
H60    H     0.88790   0.07130   0.01980   0.01267  Uiso   1.00
H61    H     0.95980   0.23670   0.98690   0.01267  Uiso   1.00
H62    H     0.71820   0.16040   0.87310   0.01267  Uiso   1.00
H63    H     0.64590   0.99430   0.90660   0.01267  Uiso   1.00
H64    H     0.56420   0.81990   0.09420   0.01267  Uiso   1.00
H65    H     0.59530   0.82690   0.19160   0.01267  Uiso   1.00
H66    H     0.91670   0.93700   0.16280   0.01267  Uiso   1.00
H67    H     0.88530   0.92610   0.06610   0.01267  Uiso   1.00
H68    H     0.72900   0.87700   0.31760   0.01267  Uiso   1.00
C1     C     0.78938   0.31632   0.53890   0.01267  Uiso   1.00
C2     C     0.86220   0.35405   0.58338   0.01267  Uiso   1.00
C3     C     0.91800   0.30055   0.60433   0.01267  Uiso   1.00
C4     C     0.90125   0.20763   0.58109   0.01267  Uiso   1.00
C5     C     0.83000   0.16930   0.53626   0.01267  Uiso   1.00
C6     C     0.77488   0.22299   0.51569   0.01267  Uiso   1.00
C7     C     0.95848   0.14699   0.60336   0.01267  Uiso   1.00
C8     C     0.56374   0.30735   0.53164   0.01267  Uiso   1.00
C9     C     0.53458   0.22471   0.56864   0.01267  Uiso   1.00
C10    C     0.42751   0.16756   0.58380   0.01267  Uiso   1.00
C11    C     0.34662   0.18880   0.56021   0.01267  Uiso   1.00
C12    C     0.37420   0.27147   0.52376   0.01267  Uiso   1.00
C13    C     0.48148   0.33065   0.51101   0.01267  Uiso   1.00
C14    C     0.23049   0.12182   0.57081   0.01267  Uiso   1.00
C15    C     0.75982   0.51416   0.53358   0.01267  Uiso   1.00
C16    C     0.85299   0.58866   0.51026   0.01267  Uiso   1.00
C17    C     0.89603   0.68752   0.52981   0.01267  Uiso   1.00
C18    C     0.84677   0.71492   0.57340   0.01267  Uiso   1.00
C19    C     0.75311   0.64238   0.59706   0.01267  Uiso   1.00
C20    C     0.71026   0.54314   0.57707   0.01267  Uiso   1.00
C21    C     0.89550   0.82153   0.59516   0.01267  Uiso   1.00
C22    C     0.72130   0.37556   0.43041   0.01267  Uiso   1.00
C23    C     0.63611   0.34430   0.39211   0.01267  Uiso   1.00
C24    C     0.65431   0.34815   0.33399   0.01267  Uiso   1.00
C25    C     0.75899   0.38317   0.31374   0.01267  Uiso   1.00
C26    C     0.84501   0.41295   0.35112   0.01267  Uiso   1.00
C27    C     0.82617   0.40764   0.40858   0.01267  Uiso   1.00
C28    C     0.78519   0.39190   0.25247   0.01267  Uiso   1.00
C29    C     0.21062   0.18368   0.03890   0.01267  Uiso   1.00
C30    C     0.13780   0.14595   0.08338   0.01267  Uiso   1.00
C31    C     0.08200   0.19945   0.10433   0.01267  Uiso   1.00
C32    C     0.09875   0.29237   0.08109   0.01267  Uiso   1.00
C33    C     0.17000   0.33070   0.03626   0.01267  Uiso   1.00
C34    C     0.22512   0.27701   0.01569   0.01267  Uiso   1.00
C35    C     0.04152   0.35301   0.10336   0.01267  Uiso   1.00
C36    C     0.43626   0.19265   0.03164   0.01267  Uiso   1.00
C37    C     0.46542   0.27529   0.06864   0.01267  Uiso   1.00
C38    C     0.57249   0.33244   0.08380   0.01267  Uiso   1.00
C39    C     0.65338   0.31120   0.06021   0.01267  Uiso   1.00
C40    C     0.62580   0.22853   0.02376   0.01267  Uiso   1.00
C41    C     0.51852   0.16935   0.01101   0.01267  Uiso   1.00
C42    C     0.76951   0.37818   0.07081   0.01267  Uiso   1.00
C43    C     0.24018   0.98584   0.03358   0.01267  Uiso   1.00
C44    C     0.14701   0.91134   0.01026   0.01267  Uiso   1.00
C45    C     0.10397   0.81248   0.02981   0.01267  Uiso   1.00
C46    C     0.15323   0.78508   0.07340   0.01267  Uiso   1.00
C47    C     0.24689   0.85762   0.09706   0.01267  Uiso   1.00
C48    C     0.28974   0.95686   0.07707   0.01267  Uiso   1.00
C49    C     0.10450   0.67847   0.09516   0.01267  Uiso   1.00
C50    C     0.27870   0.12444   0.93041   0.01267  Uiso   1.00
C51    C     0.36389   0.15570   0.89211   0.01267  Uiso   1.00
C52    C     0.34569   0.15185   0.83399   0.01267  Uiso   1.00
C53    C     0.24101   0.11683   0.81374   0.01267  Uiso   1.00
C54    C     0.15499   0.08705   0.85112   0.01267  Uiso   1.00
C55    C     0.17383   0.09236   0.90858   0.01267  Uiso   1.00
C56    C     0.21481   0.10810   0.75247   0.01267  Uiso   1.00
C57    C     0.21062   0.68368   0.46110   0.01267  Uiso   1.00
C58    C     0.13780   0.64595   0.41662   0.01267  Uiso   1.00
C59    C     0.08200   0.69945   0.39567   0.01267  Uiso   1.00
C60    C     0.09875   0.79237   0.41891   0.01267  Uiso   1.00
C61    C     0.17000   0.83070   0.46374   0.01267  Uiso   1.00
C62    C     0.22512   0.77701   0.48431   0.01267  Uiso   1.00
C63    C     0.04152   0.85301   0.39664   0.01267  Uiso   1.00
C64    C     0.43626   0.69265   0.46836   0.01267  Uiso   1.00
C65    C     0.46542   0.77529   0.43136   0.01267  Uiso   1.00
C66    C     0.57249   0.83244   0.41620   0.01267  Uiso   1.00
C67    C     0.65338   0.81120   0.43979   0.01267  Uiso   1.00
C68    C     0.62580   0.72853   0.47624   0.01267  Uiso   1.00
C69    C     0.51852   0.66935   0.48899   0.01267  Uiso   1.00
C70    C     0.76951   0.87818   0.42919   0.01267  Uiso   1.00
C71    C     0.24018   0.48584   0.46642   0.01267  Uiso   1.00
C72    C     0.14701   0.41134   0.48974   0.01267  Uiso   1.00
C73    C     0.10397   0.31248   0.47019   0.01267  Uiso   1.00
C74    C     0.15323   0.28508   0.42660   0.01267  Uiso   1.00
C75    C     0.24689   0.35762   0.40294   0.01267  Uiso   1.00
C76    C     0.28974   0.45686   0.42293   0.01267  Uiso   1.00
C77    C     0.10450   0.17847   0.40484   0.01267  Uiso   1.00
C78    C     0.27870   0.62444   0.56959   0.01267  Uiso   1.00
C79    C     0.36389   0.65570   0.60789   0.01267  Uiso   1.00
C80    C     0.34569   0.65185   0.66601   0.01267  Uiso   1.00
C81    C     0.24101   0.61683   0.68626   0.01267  Uiso   1.00
C82    C     0.15499   0.58705   0.64888   0.01267  Uiso   1.00
C83    C     0.17383   0.59236   0.59142   0.01267  Uiso   1.00
C84    C     0.21481   0.60810   0.74753   0.01267  Uiso   1.00
C85    C     0.78938   0.81632   0.96110   0.01267  Uiso   1.00
C86    C     0.86220   0.85405   0.91662   0.01267  Uiso   1.00
C87    C     0.91800   0.80055   0.89567   0.01267  Uiso   1.00
C88    C     0.90125   0.70763   0.91891   0.01267  Uiso   1.00
C89    C     0.83000   0.66930   0.96374   0.01267  Uiso   1.00
C90    C     0.77488   0.72299   0.98431   0.01267  Uiso   1.00
C91    C     0.95848   0.64699   0.89664   0.01267  Uiso   1.00
C92    C     0.56374   0.80735   0.96836   0.01267  Uiso   1.00
C93    C     0.53458   0.72471   0.93136   0.01267  Uiso   1.00
C94    C     0.42751   0.66756   0.91620   0.01267  Uiso   1.00
C95    C     0.34662   0.68880   0.93979   0.01267  Uiso   1.00
C96    C     0.37420   0.77147   0.97624   0.01267  Uiso   1.00
C97    C     0.48148   0.83065   0.98899   0.01267  Uiso   1.00
C98    C     0.23049   0.62182   0.92919   0.01267  Uiso   1.00
C99    C     0.75982   0.01416   0.96642   0.01267  Uiso   1.00
C100   C     0.85299   0.08866   0.98974   0.01267  Uiso   1.00
C101   C     0.89603   0.18752   0.97019   0.01267  Uiso   1.00
C102   C     0.84677   0.21492   0.92660   0.01267  Uiso   1.00
C103   C     0.75311   0.14238   0.90294   0.01267  Uiso   1.00
C104   C     0.71026   0.04314   0.92293   0.01267  Uiso   1.00
C105   C     0.89550   0.32153   0.90484   0.01267  Uiso   1.00
C106   C     0.72130   0.87556   0.06959   0.01267  Uiso   1.00
C107   C     0.63611   0.84430   0.10789   0.01267  Uiso   1.00
C108   C     0.65431   0.84815   0.16601   0.01267  Uiso   1.00
C109   C     0.75899   0.88317   0.18626   0.01267  Uiso   1.00
C110   C     0.84501   0.91295   0.14888   0.01267  Uiso   1.00
C111   C     0.82617   0.90764   0.09142   0.01267  Uiso   1.00
C112   C     0.78519   0.89190   0.24753   0.01267  Uiso   1.00
O1     O     0.01316   0.17290   0.64744   0.01267  Uiso   1.00
O2     O     0.94679   0.06745   0.57669   0.01267  Uiso   1.00
O3     O     0.16900   0.10199   0.52915   0.01267  Uiso   1.00
O4     O     0.19985   0.08789   0.62017   0.01267  Uiso   1.00
O5     O     0.85183   0.84496   0.63586   0.01267  Uiso   1.00
O6     O     0.98213   0.88459   0.57228   0.01267  Uiso   1.00
O7     O     0.87741   0.41743   0.23617   0.01267  Uiso   1.00
O8     O     0.70335   0.37141   0.21792   0.01267  Uiso   1.00
O9     O     0.98684   0.32710   0.14744   0.01267  Uiso   1.00
O10    O     0.05321   0.43255   0.07669   0.01267  Uiso   1.00
O11    O     0.83100   0.39801   0.02915   0.01267  Uiso   1.00
O12    O     0.80015   0.41211   0.12017   0.01267  Uiso   1.00
O13    O     0.14817   0.65504   0.13586   0.01267  Uiso   1.00
O14    O     0.01787   0.61541   0.07228   0.01267  Uiso   1.00
O15    O     0.12259   0.08257   0.73617   0.01267  Uiso   1.00
O16    O     0.29665   0.12859   0.71792   0.01267  Uiso   1.00
O17    O     0.98684   0.82710   0.35256   0.01267  Uiso   1.00
O18    O     0.05321   0.93255   0.42331   0.01267  Uiso   1.00
O19    O     0.83100   0.89801   0.47085   0.01267  Uiso   1.00
O20    O     0.80015   0.91211   0.37983   0.01267  Uiso   1.00
O21    O     0.14817   0.15504   0.36414   0.01267  Uiso   1.00
O22    O     0.01787   0.11541   0.42772   0.01267  Uiso   1.00
O23    O     0.12259   0.58257   0.76383   0.01267  Uiso   1.00
O24    O     0.29665   0.62859   0.78208   0.01267  Uiso   1.00
O25    O     0.01316   0.67290   0.85256   0.01267  Uiso   1.00
O26    O     0.94679   0.56745   0.92331   0.01267  Uiso   1.00
O27    O     0.16900   0.60199   0.97085   0.01267  Uiso   1.00
O28    O     0.19985   0.58789   0.87983   0.01267  Uiso   1.00
O29    O     0.85183   0.34496   0.86414   0.01267  Uiso   1.00
O30    O     0.98213   0.38459   0.92772   0.01267  Uiso   1.00
O31    O     0.87741   0.91743   0.26383   0.01267  Uiso   1.00
O32    O     0.70335   0.87141   0.28208   0.01267  Uiso   1.00
