data_CANROA_clean
_audit_creation_date              2014-07-02
_audit_creation_method            'Materials Studio'
_symmetry_space_group_name_H-M    'P1'
_symmetry_Int_Tables_number       1
_symmetry_cell_setting            triclinic
loop_
_symmetry_equiv_pos_as_xyz
  x,y,z
_cell_length_a                    12.7239
_cell_length_b                    14.4992
_cell_length_c                    23.3453
_cell_angle_alpha                 99.7335
_cell_angle_beta                  92.6890
_cell_angle_gamma                 97.4756
loop_
_atom_site_label
_atom_site_type_symbol
_atom_site_fract_x
_atom_site_fract_y
_atom_site_fract_z
_atom_site_U_iso_or_equiv
_atom_site_adp_type
_atom_site_occupancy
Co1    Co    0.49547   0.69604   0.60705   0.01267  Uiso   1.00
Co2    Co    0.94238   0.31543   0.07450   0.01267  Uiso   1.00
Co3    Co    0.50453   0.30396   0.39295   0.01267  Uiso   1.00
Co4    Co    0.05762   0.68457   0.92550   0.01267  Uiso   1.00
Co5    Co    0.50000   0.50000   0.50000   0.01267  Uiso   1.00
Co6    Co    0.00000   0.50000  -0.00000   0.01267  Uiso   1.00
Si1    Si    0.97454   0.77957   0.36607   0.01267  Uiso   1.00
Si2    Si    0.60163   0.75575   0.18730   0.01267  Uiso   1.00
Si3    Si    0.02546   0.22043   0.63393   0.01267  Uiso   1.00
Si4    Si    0.39837   0.24425   0.81270   0.01267  Uiso   1.00
H1     H     0.86860   0.62230   0.41310   0.01267  Uiso   1.00
H2     H     0.73090   0.59570   0.47220   0.01267  Uiso   1.00
H3     H     0.66860   0.86370   0.47500   0.01267  Uiso   1.00
H4     H     0.80500   0.88920   0.41360   0.01267  Uiso   1.00
H5     H     0.83130   0.61450   0.30490   0.01267  Uiso   1.00
H6     H     0.83150   0.50890   0.21820   0.01267  Uiso   1.00
H7     H     0.06590   0.68260   0.16590   0.01267  Uiso   1.00
H8     H     0.07470   0.78380   0.25540   0.01267  Uiso   1.00
H9     H     0.16190   0.68110   0.33910   0.01267  Uiso   1.00
H10    H     0.28700   0.62130   0.39250   0.01267  Uiso   1.00
H11    H     0.16420   0.72890   0.54170   0.01267  Uiso   1.00
H12    H     0.03360   0.78020   0.48890   0.01267  Uiso   1.00
H13    H     0.94000   0.90650   0.28270   0.01267  Uiso   1.00
H14    H     0.97480   0.06930   0.28370   0.01267  Uiso   1.00
H15    H     0.11720   0.10740   0.44650   0.01267  Uiso   1.00
H16    H     0.08240   0.94460   0.44560   0.01267  Uiso   1.00
H17    H     0.54230   0.77060   0.30800   0.01267  Uiso   1.00
H18    H     0.51870   0.67210   0.37540   0.01267  Uiso   1.00
H19    H     0.60910   0.46060   0.26140   0.01267  Uiso   1.00
H20    H     0.63030   0.55910   0.19340   0.01267  Uiso   1.00
H21    H     0.66320   0.60370   0.10340   0.01267  Uiso   1.00
H22    H     0.79190   0.58580   0.03720   0.01267  Uiso   1.00
H23    H     0.92250   0.85740   0.09400   0.01267  Uiso   1.00
H24    H     0.79820   0.87270   0.16300   0.01267  Uiso   1.00
H25    H     0.39250   0.63700   0.18110   0.01267  Uiso   1.00
H26    H     0.24920   0.59170   0.11370   0.01267  Uiso   1.00
H27    H     0.38490   0.76350   0.01140   0.01267  Uiso   1.00
H28    H     0.53090   0.80550   0.07750   0.01267  Uiso   1.00
H29    H     0.74050   0.86760   0.28260   0.01267  Uiso   1.00
H30    H     0.74800   0.01190   0.34350   0.01267  Uiso   1.00
H31    H     0.50520   0.07310   0.24610   0.01267  Uiso   1.00
H32    H     0.49420   0.92550   0.18670   0.01267  Uiso   1.00
H33    H     0.13140   0.37770   0.58690   0.01267  Uiso   1.00
H34    H     0.26910   0.40430   0.52780   0.01267  Uiso   1.00
H35    H     0.33140   0.13630   0.52500   0.01267  Uiso   1.00
H36    H     0.19500   0.11080   0.58640   0.01267  Uiso   1.00
H37    H     0.16870   0.38550   0.69510   0.01267  Uiso   1.00
H38    H     0.16850   0.49110   0.78180   0.01267  Uiso   1.00
H39    H     0.93410   0.31740   0.83410   0.01267  Uiso   1.00
H40    H     0.92530   0.21620   0.74460   0.01267  Uiso   1.00
H41    H     0.83810   0.31890   0.66090   0.01267  Uiso   1.00
H42    H     0.71300   0.37870   0.60750   0.01267  Uiso   1.00
H43    H     0.83580   0.27110   0.45830   0.01267  Uiso   1.00
H44    H     0.96640   0.21980   0.51110   0.01267  Uiso   1.00
H45    H     0.06000   0.09350   0.71730   0.01267  Uiso   1.00
H46    H     0.02520   0.93070   0.71630   0.01267  Uiso   1.00
H47    H     0.88280   0.89260   0.55350   0.01267  Uiso   1.00
H48    H     0.91760   0.05540   0.55440   0.01267  Uiso   1.00
H49    H     0.45770   0.22940   0.69200   0.01267  Uiso   1.00
H50    H     0.48130   0.32790   0.62460   0.01267  Uiso   1.00
H51    H     0.39090   0.53940   0.73860   0.01267  Uiso   1.00
H52    H     0.36970   0.44090   0.80660   0.01267  Uiso   1.00
H53    H     0.33680   0.39630   0.89660   0.01267  Uiso   1.00
H54    H     0.20810   0.41420   0.96280   0.01267  Uiso   1.00
H55    H     0.07750   0.14260   0.90600   0.01267  Uiso   1.00
H56    H     0.20180   0.12730   0.83700   0.01267  Uiso   1.00
H57    H     0.60750   0.36300   0.81890   0.01267  Uiso   1.00
H58    H     0.75080   0.40830   0.88630   0.01267  Uiso   1.00
H59    H     0.61510   0.23650   0.98860   0.01267  Uiso   1.00
H60    H     0.46910   0.19450   0.92250   0.01267  Uiso   1.00
H61    H     0.25950   0.13240   0.71740   0.01267  Uiso   1.00
H62    H     0.25200   0.98810   0.65650   0.01267  Uiso   1.00
H63    H     0.49480   0.92690   0.75390   0.01267  Uiso   1.00
H64    H     0.50580   0.07450   0.81330   0.01267  Uiso   1.00
C1     C     0.85340   0.75929   0.40779   0.01267  Uiso   1.00
C2     C     0.82830   0.67171   0.42579   0.01267  Uiso   1.00
C3     C     0.74710   0.65573   0.46112   0.01267  Uiso   1.00
C4     C     0.68820   0.72886   0.48067   0.01267  Uiso   1.00
C5     C     0.70970   0.81480   0.46254   0.01267  Uiso   1.00
C6     C     0.79130   0.83000   0.42614   0.01267  Uiso   1.00
C7     C     0.60840   0.71460   0.52370   0.01267  Uiso   1.00
C8     C     0.95730   0.70840   0.29094   0.01267  Uiso   1.00
C9     C     0.88210   0.62740   0.27778   0.01267  Uiso   1.00
C10    C     0.88090   0.56530   0.22552   0.01267  Uiso   1.00
C11    C     0.95020   0.58430   0.18419   0.01267  Uiso   1.00
C12    C     0.02030   0.66700   0.19493   0.01267  Uiso   1.00
C13    C     0.02460   0.72780   0.24821   0.01267  Uiso   1.00
C14    C     0.95130   0.51440   0.12850   0.01267  Uiso   1.00
C15    C     0.08340   0.73703   0.40782   0.01267  Uiso   1.00
C16    C     0.16090   0.68980   0.38037   0.01267  Uiso   1.00
C17    C     0.23640   0.65520   0.41226   0.01267  Uiso   1.00
C18    C     0.23950   0.66916   0.47252   0.01267  Uiso   1.00
C19    C     0.16290   0.71770   0.50035   0.01267  Uiso   1.00
C20    C     0.08620   0.74930   0.46901   0.01267  Uiso   1.00
C21    C     0.32290   0.63421   0.50677   0.01267  Uiso   1.00
C22    C     0.00790   0.91026   0.36407   0.01267  Uiso   1.00
C23    C     0.97600   0.94729   0.31598   0.01267  Uiso   1.00
C24    C     0.99660   0.04398   0.31654   0.01267  Uiso   1.00
C25    C     0.04920   0.10363   0.36519   0.01267  Uiso   1.00
C26    C     0.08120   0.06660   0.41328   0.01267  Uiso   1.00
C27    C     0.06050   0.96990   0.41272   0.01267  Uiso   1.00
C28    C     0.07120   0.20610   0.36480   0.01267  Uiso   1.00
C29    C     0.59085   0.67671   0.24315   0.01267  Uiso   1.00
C30    C     0.55660   0.70740   0.29817   0.01267  Uiso   1.00
C31    C     0.54280   0.64900   0.33849   0.01267  Uiso   1.00
C32    C     0.56380   0.55690   0.32585   0.01267  Uiso   1.00
C33    C     0.59590   0.52420   0.27111   0.01267  Uiso   1.00
C34    C     0.60870   0.58310   0.23080   0.01267  Uiso   1.00
C35    C     0.54880   0.49322   0.36943   0.01267  Uiso   1.00
C36    C     0.71600   0.74104   0.14062   0.01267  Uiso   1.00
C37    C     0.71650   0.65551   0.10193   0.01267  Uiso   1.00
C38    C     0.79200   0.64493   0.06202   0.01267  Uiso   1.00
C39    C     0.86790   0.72016   0.05805   0.01267  Uiso   1.00
C40    C     0.86980   0.80550   0.09614   0.01267  Uiso   1.00
C41    C     0.79520   0.81450   0.13681   0.01267  Uiso   1.00
C42    C     0.94320   0.71120   0.01100   0.01267  Uiso   1.00
C43    C     0.47910   0.72642   0.13683   0.01267  Uiso   1.00
C44    C     0.39220   0.66260   0.14623   0.01267  Uiso   1.00
C45    C     0.30650   0.63590   0.10623   0.01267  Uiso   1.00
C46    C     0.30230   0.67221   0.05569   0.01267  Uiso   1.00
C47    C     0.38680   0.73670   0.04577   0.01267  Uiso   1.00
C48    C     0.47320   0.76210   0.08547   0.01267  Uiso   1.00
C49    C     0.20820   0.64190   0.01229   0.01267  Uiso   1.00
C50    C     0.61470   0.87985   0.22830   0.01267  Uiso   1.00
C51    C     0.69090   0.90870   0.27550   0.01267  Uiso   1.00
C52    C     0.69590   0.99410   0.31166   0.01267  Uiso   1.00
C53    C     0.62450   0.05394   0.30143   0.01267  Uiso   1.00
C54    C     0.55170   0.03000   0.25427   0.01267  Uiso   1.00
C55    C     0.54630   0.94250   0.21858   0.01267  Uiso   1.00
C56    C     0.62040   0.14370   0.34271   0.01267  Uiso   1.00
C57    C     0.14660   0.24071   0.59221   0.01267  Uiso   1.00
C58    C     0.17170   0.32829   0.57421   0.01267  Uiso   1.00
C59    C     0.25290   0.34427   0.53888   0.01267  Uiso   1.00
C60    C     0.31180   0.27114   0.51933   0.01267  Uiso   1.00
C61    C     0.29030   0.18520   0.53746   0.01267  Uiso   1.00
C62    C     0.20870   0.17000   0.57386   0.01267  Uiso   1.00
C63    C     0.39160   0.28540   0.47630   0.01267  Uiso   1.00
C64    C     0.04270   0.29160   0.70906   0.01267  Uiso   1.00
C65    C     0.11790   0.37260   0.72222   0.01267  Uiso   1.00
C66    C     0.11910   0.43470   0.77448   0.01267  Uiso   1.00
C67    C     0.04980   0.41570   0.81581   0.01267  Uiso   1.00
C68    C     0.97970   0.33300   0.80507   0.01267  Uiso   1.00
C69    C     0.97540   0.27220   0.75179   0.01267  Uiso   1.00
C70    C     0.04870   0.48560   0.87150   0.01267  Uiso   1.00
C71    C     0.91660   0.26297   0.59218   0.01267  Uiso   1.00
C72    C     0.83910   0.31020   0.61963   0.01267  Uiso   1.00
C73    C     0.76360   0.34480   0.58774   0.01267  Uiso   1.00
C74    C     0.76050   0.33084   0.52748   0.01267  Uiso   1.00
C75    C     0.83710   0.28230   0.49965   0.01267  Uiso   1.00
C76    C     0.91380   0.25070   0.53099   0.01267  Uiso   1.00
C77    C     0.67710   0.36579   0.49323   0.01267  Uiso   1.00
C78    C     0.99210   0.08974   0.63593   0.01267  Uiso   1.00
C79    C     0.02400   0.05271   0.68402   0.01267  Uiso   1.00
C80    C     0.00340   0.95602   0.68346   0.01267  Uiso   1.00
C81    C     0.95080   0.89637   0.63481   0.01267  Uiso   1.00
C82    C     0.91880   0.93340   0.58672   0.01267  Uiso   1.00
C83    C     0.93950   0.03010   0.58728   0.01267  Uiso   1.00
C84    C     0.92880   0.79390   0.63520   0.01267  Uiso   1.00
C85    C     0.40915   0.32329   0.75685   0.01267  Uiso   1.00
C86    C     0.44340   0.29260   0.70183   0.01267  Uiso   1.00
C87    C     0.45720   0.35100   0.66151   0.01267  Uiso   1.00
C88    C     0.43620   0.44310   0.67415   0.01267  Uiso   1.00
C89    C     0.40410   0.47580   0.72889   0.01267  Uiso   1.00
C90    C     0.39130   0.41690   0.76920   0.01267  Uiso   1.00
C91    C     0.45120   0.50678   0.63057   0.01267  Uiso   1.00
C92    C     0.28400   0.25896   0.85938   0.01267  Uiso   1.00
C93    C     0.28350   0.34449   0.89807   0.01267  Uiso   1.00
C94    C     0.20800   0.35507   0.93798   0.01267  Uiso   1.00
C95    C     0.13210   0.27984   0.94195   0.01267  Uiso   1.00
C96    C     0.13020   0.19450   0.90386   0.01267  Uiso   1.00
C97    C     0.20480   0.18550   0.86319   0.01267  Uiso   1.00
C98    C     0.05680   0.28880   0.98900   0.01267  Uiso   1.00
C99    C     0.52090   0.27358   0.86317   0.01267  Uiso   1.00
C100   C     0.60780   0.33740   0.85377   0.01267  Uiso   1.00
C101   C     0.69350   0.36410   0.89377   0.01267  Uiso   1.00
C102   C     0.69770   0.32779   0.94431   0.01267  Uiso   1.00
C103   C     0.61320   0.26330   0.95423   0.01267  Uiso   1.00
C104   C     0.52680   0.23790   0.91453   0.01267  Uiso   1.00
C105   C     0.79180   0.35810   0.98771   0.01267  Uiso   1.00
C106   C     0.38530   0.12015   0.77170   0.01267  Uiso   1.00
C107   C     0.30910   0.09130   0.72450   0.01267  Uiso   1.00
C108   C     0.30410   0.00590   0.68834   0.01267  Uiso   1.00
C109   C     0.37550   0.94606   0.69857   0.01267  Uiso   1.00
C110   C     0.44830   0.97000   0.74573   0.01267  Uiso   1.00
C111   C     0.45370   0.05750   0.78142   0.01267  Uiso   1.00
C112   C     0.37960   0.85630   0.65729   0.01267  Uiso   1.00
O1     O     0.58312   0.63328   0.53724   0.01267  Uiso   1.00
O2     O     0.56922   0.78335   0.55031   0.01267  Uiso   1.00
O3     O     0.91005   0.43101   0.12852   0.01267  Uiso   1.00
O4     O     0.99576   0.54464   0.08774   0.01267  Uiso   1.00
O5     O     0.35705   0.55947   0.48612   0.01267  Uiso   1.00
O6     O     0.35575   0.68514   0.55612   0.01267  Uiso   1.00
O7     O     0.04620   0.23730   0.31985   0.01267  Uiso   1.00
O8     O     0.11600   0.25930   0.41112   0.01267  Uiso   1.00
O9     O     0.52626   0.52820   0.41948   0.01267  Uiso   1.00
O10    O     0.55860   0.40791   0.35267   0.01267  Uiso   1.00
O11    O     0.95422   0.62963   0.98368   0.01267  Uiso   1.00
O12    O     0.99070   0.78229   0.99493   0.01267  Uiso   1.00
O13    O     0.15702   0.56248   0.01278   0.01267  Uiso   1.00
O14    O     0.18938   0.69847   0.97946   0.01267  Uiso   1.00
O15    O     0.68820   0.15914   0.38808   0.01267  Uiso   1.00
O16    O     0.55696   0.19677   0.33467   0.01267  Uiso   1.00
O17    O     0.41688   0.36672   0.46276   0.01267  Uiso   1.00
O18    O     0.43078   0.21665   0.44969   0.01267  Uiso   1.00
O19    O     0.08995   0.56899   0.87148   0.01267  Uiso   1.00
O20    O     0.00424   0.45536   0.91226   0.01267  Uiso   1.00
O21    O     0.64295   0.44053   0.51388   0.01267  Uiso   1.00
O22    O     0.64425   0.31486   0.44388   0.01267  Uiso   1.00
O23    O     0.95380   0.76270   0.68015   0.01267  Uiso   1.00
O24    O     0.88400   0.74070   0.58888   0.01267  Uiso   1.00
O25    O     0.47374   0.47180   0.58052   0.01267  Uiso   1.00
O26    O     0.44140   0.59209   0.64733   0.01267  Uiso   1.00
O27    O     0.04578   0.37037   0.01632   0.01267  Uiso   1.00
O28    O     0.00930   0.21771   0.00507   0.01267  Uiso   1.00
O29    O     0.84298   0.43752   0.98722   0.01267  Uiso   1.00
O30    O     0.81062   0.30153   0.02054   0.01267  Uiso   1.00
O31    O     0.31180   0.84086   0.61192   0.01267  Uiso   1.00
O32    O     0.44304   0.80323   0.66533   0.01267  Uiso   1.00
