data_image0
_cell_length_a       13.872
_cell_length_b       13.872
_cell_length_c       9.435
_cell_angle_alpha    90
_cell_angle_beta     90
_cell_angle_gamma    120

_symmetry_space_group_name_H-M    "P 1"
_symmetry_int_tables_number       1

loop_
  _symmetry_equiv_pos_as_xyz
  'x, y, z'

loop_
  _atom_site_label
  _atom_site_occupancy
  _atom_site_fract_x
  _atom_site_fract_y
  _atom_site_fract_z
  _atom_site_thermal_displace_type
  _atom_site_B_iso_or_equiv
  _atom_site_type_symbol
  Sc1      1.0000 0.56150  0.85530  0.40794  Biso   1.000  Sc
  O1       1.0000 0.70020  0.89090  0.28620  Biso   1.000  O
  P1       1.0000 0.81621  0.98484  0.24528  Biso   1.000  P
  O2       1.0000 0.86110  0.94340  0.12840  Biso   1.000  O
  O3       1.0000 0.89280  0.03060  0.37570  Biso   1.000  O
  O4       1.0000 0.80580  0.08380  0.17700  Biso   1.000  O
  O5       1.0000 0.57630  0.00650  0.35530  Biso   1.000  O
  P2       1.0000 0.63175  0.12651  0.39669  Biso   1.000  P
  O6       1.0000 0.69880  0.19530  0.26250  Biso   1.000  O
  O7       1.0000 0.45060  0.83530  0.56820  Biso   1.000  O
  O8       1.0000 0.56450  0.71630  0.48400  Biso   1.000  O
  O9       1.0000 0.44480  0.76550  0.26050  Biso   1.000  O
  Sc2      1.0000 0.14470  0.70620  0.40794  Biso   1.000  Sc
  O10      1.0000 0.10910  0.80930  0.28620  Biso   1.000  O
  P3       1.0000 0.01516  0.83137  0.24528  Biso   1.000  P
  O11      1.0000 0.05660  0.91770  0.12840  Biso   1.000  O
  O12      1.0000 0.96940  0.86220  0.37570  Biso   1.000  O
  O13      1.0000 0.91620  0.72200  0.17700  Biso   1.000  O
  O14      1.0000 0.99350  0.56980  0.35530  Biso   1.000  O
  P4       1.0000 0.87349  0.50524  0.39669  Biso   1.000  P
  O15      1.0000 0.80470  0.50350  0.26250  Biso   1.000  O
  O16      1.0000 0.16470  0.61530  0.56820  Biso   1.000  O
  O17      1.0000 0.28370  0.84820  0.48400  Biso   1.000  O
  O18      1.0000 0.23450  0.67930  0.26050  Biso   1.000  O
  Sc3      1.0000 0.29380  0.43850  0.40794  Biso   1.000  Sc
  O19      1.0000 0.19070  0.29980  0.28620  Biso   1.000  O
  P5       1.0000 0.16863  0.18379  0.24528  Biso   1.000  P
  O20      1.0000 0.08230  0.13890  0.12840  Biso   1.000  O
  O21      1.0000 0.13780  0.10720  0.37570  Biso   1.000  O
  O22      1.0000 0.27800  0.19420  0.17700  Biso   1.000  O
  O23      1.0000 0.43020  0.42370  0.35530  Biso   1.000  O
  P6       1.0000 0.49476  0.36825  0.39669  Biso   1.000  P
  O24      1.0000 0.49650  0.30120  0.26250  Biso   1.000  O
  O25      1.0000 0.38470  0.54940  0.56820  Biso   1.000  O
  O26      1.0000 0.15180  0.43550  0.48400  Biso   1.000  O
  O27      1.0000 0.32070  0.55520  0.26050  Biso   1.000  O
  Sc4      1.0000 0.43850  0.14470  0.59206  Biso   1.000  Sc
  O28      1.0000 0.29980  0.10910  0.71380  Biso   1.000  O
  P7       1.0000 0.18379  0.01516  0.75472  Biso   1.000  P
  O29      1.0000 0.13890  0.05660  0.87160  Biso   1.000  O
  O30      1.0000 0.10720  0.96940  0.62430  Biso   1.000  O
  O31      1.0000 0.19420  0.91620  0.82300  Biso   1.000  O
  O32      1.0000 0.42370  0.99350  0.64470  Biso   1.000  O
  P8       1.0000 0.36825  0.87349  0.60331  Biso   1.000  P
  O33      1.0000 0.30120  0.80470  0.73750  Biso   1.000  O
  O34      1.0000 0.54940  0.16470  0.43180  Biso   1.000  O
  O35      1.0000 0.43550  0.28370  0.51600  Biso   1.000  O
  O36      1.0000 0.55520  0.23450  0.73950  Biso   1.000  O
  Sc5      1.0000 0.85530  0.29380  0.59206  Biso   1.000  Sc
  O37      1.0000 0.89090  0.19070  0.71380  Biso   1.000  O
  P9       1.0000 0.98484  0.16863  0.75472  Biso   1.000  P
  O38      1.0000 0.94340  0.08230  0.87160  Biso   1.000  O
  O39      1.0000 0.03060  0.13780  0.62430  Biso   1.000  O
  O40      1.0000 0.08380  0.27800  0.82300  Biso   1.000  O
  O41      1.0000 0.00650  0.43020  0.64470  Biso   1.000  O
  P10      1.0000 0.12651  0.49476  0.60331  Biso   1.000  P
  O42      1.0000 0.19530  0.49650  0.73750  Biso   1.000  O
  O43      1.0000 0.83530  0.38470  0.43180  Biso   1.000  O
  O44      1.0000 0.71630  0.15180  0.51600  Biso   1.000  O
  O45      1.0000 0.76550  0.32070  0.73950  Biso   1.000  O
  Sc6      1.0000 0.70620  0.56150  0.59206  Biso   1.000  Sc
  O46      1.0000 0.80930  0.70020  0.71380  Biso   1.000  O
  P11      1.0000 0.83137  0.81621  0.75472  Biso   1.000  P
  O47      1.0000 0.91770  0.86110  0.87160  Biso   1.000  O
  O48      1.0000 0.86220  0.89280  0.62430  Biso   1.000  O
  O49      1.0000 0.72200  0.80580  0.82300  Biso   1.000  O
  O50      1.0000 0.56980  0.57630  0.64470  Biso   1.000  O
  P12      1.0000 0.50524  0.63175  0.60331  Biso   1.000  P
  O51      1.0000 0.50350  0.69880  0.73750  Biso   1.000  O
  O52      1.0000 0.61530  0.45060  0.43180  Biso   1.000  O
  O53      1.0000 0.84820  0.56450  0.51600  Biso   1.000  O
  O54      1.0000 0.67930  0.44480  0.73950  Biso   1.000  O
  Sc7      1.0000 0.00000  0.00000  0.00000  Biso   1.000  Sc
  Sc8      1.0000 0.00000  0.00000  0.50000  Biso   1.000  Sc
  P13      1.0000 0.33333  0.66667  0.21570  Biso   1.000  P
  O55      1.0000 0.33333  0.66667  0.04690  Biso   1.000  O
  P14      1.0000 0.66667  0.33333  0.78430  Biso   1.000  P
  O56      1.0000 0.66667  0.33333  0.95310  Biso   1.000  O
