data_image0
_cell_length_a       10.468
_cell_length_b       11.326
_cell_length_c       12.7259
_cell_angle_alpha    100.845
_cell_angle_beta     109.929
_cell_angle_gamma    99.769

_symmetry_space_group_name_H-M    "P 1"
_symmetry_int_tables_number       1

loop_
  _symmetry_equiv_pos_as_xyz
  'x, y, z'

loop_
  _atom_site_label
  _atom_site_occupancy
  _atom_site_fract_x
  _atom_site_fract_y
  _atom_site_fract_z
  _atom_site_thermal_displace_type
  _atom_site_B_iso_or_equiv
  _atom_site_type_symbol
  Nd1      1.0000 0.89242  0.95109  0.82393  Biso   1.000  Nd
  O1       1.0000 0.85010  0.99720  0.99910  Biso   1.000  O
  O2       1.0000 0.87790  0.06780  0.18040  Biso   1.000  O
  O3       1.0000 0.92680  0.77600  0.90500  Biso   1.000  O
  O4       1.0000 0.00360  0.82500  0.09790  Biso   1.000  O
  O5       1.0000 0.65950  0.79140  0.73180  Biso   1.000  O
  O6       1.0000 0.81520  0.76150  0.65720  Biso   1.000  O
  N1       1.0000 0.66570  0.13120  0.22550  Biso   1.000  N
  H1       1.0000 0.62470  0.16310  0.26990  Biso   1.000  H
  H2       1.0000 0.75760  0.14320  0.25310  Biso   1.000  H
  N2       1.0000 0.97690  0.57840  0.79600  Biso   1.000  N
  H3       1.0000 0.98460  0.52820  0.73790  Biso   1.000  H
  H4       1.0000 0.96550  0.65280  0.79140  Biso   1.000  H
  N3       1.0000 0.78200  0.53340  0.53000  Biso   1.000  N
  H5       1.0000 0.84850  0.58690  0.59150  Biso   1.000  H
  H6       1.0000 0.80390  0.48180  0.48190  Biso   1.000  H
  C1       1.0000 0.79900  0.02790  0.07420  Biso   1.000  C
  C2       1.0000 0.64490  0.01440  0.03750  Biso   1.000  C
  C3       1.0000 0.58720  0.06360  0.11460  Biso   1.000  C
  C4       1.0000 0.55690  0.95240  0.92430  Biso   1.000  C
  H7       1.0000 0.59640  0.91980  0.87180  Biso   1.000  H
  C5       1.0000 0.97010  0.75040  0.00040  Biso   1.000  C
  C6       1.0000 0.98340  0.61960  0.99870  Biso   1.000  C
  C7       1.0000 0.98300  0.53890  0.89870  Biso   1.000  C
  C8       1.0000 0.00120  0.42060  0.90300  Biso   1.000  C
  H8       1.0000 0.00290  0.36660  0.83690  Biso   1.000  H
  C9       1.0000 0.69570  0.72720  0.66130  Biso   1.000  C
  C10      1.0000 0.59540  0.60860  0.57920  Biso   1.000  C
  C11      1.0000 0.63830  0.53030  0.50760  Biso   1.000  C
  C12      1.0000 0.45710  0.57930  0.57030  Biso   1.000  C
  N4       1.0000 0.39800  0.65600  0.63300  Biso   1.000  N
  H9       1.0000 0.44980  0.72800  0.68190  Biso   1.000  H
  H10      1.0000 0.30900  0.63140  0.62310  Biso   1.000  H
  Nd2      1.0000 0.10758  0.04891  0.17607  Biso   1.000  Nd
  O7       1.0000 0.14990  0.00280  0.00090  Biso   1.000  O
  O8       1.0000 0.12210  0.93220  0.81960  Biso   1.000  O
  O9       1.0000 0.07320  0.22400  0.09500  Biso   1.000  O
  O10      1.0000 0.99640  0.17500  0.90210  Biso   1.000  O
  O11      1.0000 0.34050  0.20860  0.26820  Biso   1.000  O
  O12      1.0000 0.18480  0.23850  0.34280  Biso   1.000  O
  N5       1.0000 0.33430  0.86880  0.77450  Biso   1.000  N
  H11      1.0000 0.37530  0.83690  0.73010  Biso   1.000  H
  H12      1.0000 0.24240  0.85680  0.74690  Biso   1.000  H
  N6       1.0000 0.02310  0.42160  0.20400  Biso   1.000  N
  H13      1.0000 0.01540  0.47180  0.26210  Biso   1.000  H
  H14      1.0000 0.03450  0.34720  0.20860  Biso   1.000  H
  N7       1.0000 0.21800  0.46660  0.47000  Biso   1.000  N
  H15      1.0000 0.15150  0.41310  0.40850  Biso   1.000  H
  H16      1.0000 0.19610  0.51820  0.51810  Biso   1.000  H
  C13      1.0000 0.20100  0.97210  0.92580  Biso   1.000  C
  C14      1.0000 0.35510  0.98560  0.96250  Biso   1.000  C
  C15      1.0000 0.41280  0.93640  0.88540  Biso   1.000  C
  C16      1.0000 0.44310  0.04760  0.07570  Biso   1.000  C
  H17      1.0000 0.40360  0.08020  0.12820  Biso   1.000  H
  C17      1.0000 0.02990  0.24960  0.99960  Biso   1.000  C
  C18      1.0000 0.01660  0.38040  0.00130  Biso   1.000  C
  C19      1.0000 0.01700  0.46110  0.10130  Biso   1.000  C
  C20      1.0000 0.99880  0.57940  0.09700  Biso   1.000  C
  H18      1.0000 0.99710  0.63340  0.16310  Biso   1.000  H
  C21      1.0000 0.30430  0.27280  0.33870  Biso   1.000  C
  C22      1.0000 0.40460  0.39140  0.42080  Biso   1.000  C
  C23      1.0000 0.36170  0.46970  0.49240  Biso   1.000  C
  C24      1.0000 0.54290  0.42070  0.42970  Biso   1.000  C
  N8       1.0000 0.60200  0.34400  0.36700  Biso   1.000  N
  H19      1.0000 0.55020  0.27200  0.31810  Biso   1.000  H
  H20      1.0000 0.69100  0.36860  0.37690  Biso   1.000  H
