data_image0
_cell_length_a       7.2104
_cell_length_b       13.637
_cell_length_c       17.379
_cell_angle_alpha    90
_cell_angle_beta     100.657
_cell_angle_gamma    90

_symmetry_space_group_name_H-M    "P 1"
_symmetry_int_tables_number       1

loop_
  _symmetry_equiv_pos_as_xyz
  'x, y, z'

loop_
  _atom_site_label
  _atom_site_occupancy
  _atom_site_fract_x
  _atom_site_fract_y
  _atom_site_fract_z
  _atom_site_thermal_displace_type
  _atom_site_B_iso_or_equiv
  _atom_site_type_symbol
  In1      1.0000 0.46697  0.09877  0.44673  Biso   1.000  In
  O1       1.0000 0.57410  0.15840  0.56190  Biso   1.000  O
  O2       1.0000 0.68090  0.01970  0.62580  Biso   1.000  O
  O3       1.0000 0.98620  0.12000  0.57380  Biso   1.000  O
  O4       1.0000 0.25450  0.11130  0.66240  Biso   1.000  O
  O5       1.0000 0.23220  0.30630  0.91310  Biso   1.000  O
  O6       1.0000 0.97620  0.40480  0.90030  Biso   1.000  O
  O7       1.0000 0.66390  0.28080  0.92190  Biso   1.000  O
  O8       1.0000 0.53230  0.37600  0.82560  Biso   1.000  O
  O9       1.0000 0.69130  0.98770  0.47130  Biso   1.000  O
  C1       1.0000 0.77960  0.17020  0.68440  Biso   1.000  C
  C2       1.0000 0.97620  0.17760  0.69960  Biso   1.000  C
  C3       1.0000 0.06910  0.22460  0.76590  Biso   1.000  C
  H1       1.0000 0.20310  0.22670  0.77710  Biso   1.000  H
  C4       1.0000 0.96510  0.26870  0.81600  Biso   1.000  C
  C5       1.0000 0.76640  0.26310  0.79990  Biso   1.000  C
  C6       1.0000 0.67530  0.21410  0.73430  Biso   1.000  C
  H2       1.0000 0.54150  0.21040  0.72340  Biso   1.000  H
  C7       1.0000 0.67180  0.11180  0.61750  Biso   1.000  C
  C8       1.0000 0.08560  0.13290  0.64150  Biso   1.000  C
  C9       1.0000 0.06400  0.33180  0.88260  Biso   1.000  C
  C10      1.0000 0.65020  0.31050  0.85250  Biso   1.000  C
  In2      1.0000 0.53303  0.59877  0.05327  Biso   1.000  In
  O10      1.0000 0.42590  0.65840  0.93810  Biso   1.000  O
  O11      1.0000 0.31910  0.51970  0.87420  Biso   1.000  O
  O12      1.0000 0.01380  0.62000  0.92620  Biso   1.000  O
  O13      1.0000 0.74550  0.61130  0.83760  Biso   1.000  O
  O14      1.0000 0.76780  0.80630  0.58690  Biso   1.000  O
  O15      1.0000 0.02380  0.90480  0.59970  Biso   1.000  O
  O16      1.0000 0.33610  0.78080  0.57810  Biso   1.000  O
  O17      1.0000 0.46770  0.87600  0.67440  Biso   1.000  O
  O18      1.0000 0.30870  0.48770  0.02870  Biso   1.000  O
  C11      1.0000 0.22040  0.67020  0.81560  Biso   1.000  C
  C12      1.0000 0.02380  0.67760  0.80040  Biso   1.000  C
  C13      1.0000 0.93090  0.72460  0.73410  Biso   1.000  C
  H3       1.0000 0.79690  0.72670  0.72290  Biso   1.000  H
  C14      1.0000 0.03490  0.76870  0.68400  Biso   1.000  C
  C15      1.0000 0.23360  0.76310  0.70010  Biso   1.000  C
  C16      1.0000 0.32470  0.71410  0.76570  Biso   1.000  C
  H4       1.0000 0.45850  0.71040  0.77660  Biso   1.000  H
  C17      1.0000 0.32820  0.61180  0.88250  Biso   1.000  C
  C18      1.0000 0.91440  0.63290  0.85850  Biso   1.000  C
  C19      1.0000 0.93600  0.83180  0.61740  Biso   1.000  C
  C20      1.0000 0.34980  0.81050  0.64750  Biso   1.000  C
  In3      1.0000 0.53303  0.90123  0.55327  Biso   1.000  In
  O19      1.0000 0.42590  0.84160  0.43810  Biso   1.000  O
  O20      1.0000 0.31910  0.98030  0.37420  Biso   1.000  O
  O21      1.0000 0.01380  0.88000  0.42620  Biso   1.000  O
  O22      1.0000 0.74550  0.88870  0.33760  Biso   1.000  O
  O23      1.0000 0.76780  0.69370  0.08690  Biso   1.000  O
  O24      1.0000 0.02380  0.59520  0.09970  Biso   1.000  O
  O25      1.0000 0.33610  0.71920  0.07810  Biso   1.000  O
  O26      1.0000 0.46770  0.62400  0.17440  Biso   1.000  O
  O27      1.0000 0.30870  0.01230  0.52870  Biso   1.000  O
  C21      1.0000 0.22040  0.82980  0.31560  Biso   1.000  C
  C22      1.0000 0.02380  0.82240  0.30040  Biso   1.000  C
  C23      1.0000 0.93090  0.77540  0.23410  Biso   1.000  C
  H5       1.0000 0.79690  0.77330  0.22290  Biso   1.000  H
  C24      1.0000 0.03490  0.73130  0.18400  Biso   1.000  C
  C25      1.0000 0.23360  0.73690  0.20010  Biso   1.000  C
  C26      1.0000 0.32470  0.78590  0.26570  Biso   1.000  C
  H6       1.0000 0.45850  0.78960  0.27660  Biso   1.000  H
  C27      1.0000 0.32820  0.88820  0.38250  Biso   1.000  C
  C28      1.0000 0.91440  0.86710  0.35850  Biso   1.000  C
  C29      1.0000 0.93600  0.66820  0.11740  Biso   1.000  C
  C30      1.0000 0.34980  0.68950  0.14750  Biso   1.000  C
  In4      1.0000 0.46697  0.40123  0.94673  Biso   1.000  In
  O28      1.0000 0.57410  0.34160  0.06190  Biso   1.000  O
  O29      1.0000 0.68090  0.48030  0.12580  Biso   1.000  O
  O30      1.0000 0.98620  0.38000  0.07380  Biso   1.000  O
  O31      1.0000 0.25450  0.38870  0.16240  Biso   1.000  O
  O32      1.0000 0.23220  0.19370  0.41310  Biso   1.000  O
  O33      1.0000 0.97620  0.09520  0.40030  Biso   1.000  O
  O34      1.0000 0.66390  0.21920  0.42190  Biso   1.000  O
  O35      1.0000 0.53230  0.12400  0.32560  Biso   1.000  O
  O36      1.0000 0.69130  0.51230  0.97130  Biso   1.000  O
  C31      1.0000 0.77960  0.32980  0.18440  Biso   1.000  C
  C32      1.0000 0.97620  0.32240  0.19960  Biso   1.000  C
  C33      1.0000 0.06910  0.27540  0.26590  Biso   1.000  C
  H7       1.0000 0.20310  0.27330  0.27710  Biso   1.000  H
  C34      1.0000 0.96510  0.23130  0.31600  Biso   1.000  C
  C35      1.0000 0.76640  0.23690  0.29990  Biso   1.000  C
  C36      1.0000 0.67530  0.28590  0.23430  Biso   1.000  C
  H8       1.0000 0.54150  0.28960  0.22340  Biso   1.000  H
  C37      1.0000 0.67180  0.38820  0.11750  Biso   1.000  C
  C38      1.0000 0.08560  0.36710  0.14150  Biso   1.000  C
  C39      1.0000 0.06400  0.16820  0.38260  Biso   1.000  C
  C40      1.0000 0.65020  0.18950  0.35250  Biso   1.000  C
  In5      1.0000 0.00000  0.00000  0.50000  Biso   1.000  In
  In6      1.0000 0.00000  0.50000  0.00000  Biso   1.000  In
