data_CARGEI_clean
_audit_creation_date              2014-07-02
_audit_creation_method            'Materials Studio'
_symmetry_space_group_name_H-M    'P1'
_symmetry_Int_Tables_number       1
_symmetry_cell_setting            triclinic
loop_
_symmetry_equiv_pos_as_xyz
  x,y,z
_cell_length_a                    9.1571
_cell_length_b                    9.1570
_cell_length_c                    33.3706
_cell_angle_alpha                 94.3070
_cell_angle_beta                  94.3070
_cell_angle_gamma                 116.9130
loop_
_atom_site_label
_atom_site_type_symbol
_atom_site_fract_x
_atom_site_fract_y
_atom_site_fract_z
_atom_site_U_iso_or_equiv
_atom_site_adp_type
_atom_site_occupancy
Cs1    Cs    0.88502   0.32486   0.64098   0.01267  Uiso   1.00
Cs2    Cs    0.75596   0.81612   0.64098   0.01267  Uiso   1.00
Cs3    Cs    0.67514   0.11498   0.85902   0.01267  Uiso   1.00
Cs4    Cs    0.18388   0.24404   0.85902   0.01267  Uiso   1.00
Cs5    Cs    0.11498   0.67514   0.35902   0.01267  Uiso   1.00
Cs6    Cs    0.24404   0.18388   0.35902   0.01267  Uiso   1.00
Cs7    Cs    0.32486   0.88502   0.14098   0.01267  Uiso   1.00
Cs8    Cs    0.81612   0.75596   0.14098   0.01267  Uiso   1.00
Cs9    Cs    0.27934   0.52934   0.55868   0.01267  Uiso   1.00
Cs10   Cs    0.47066   0.72066   0.94132   0.01267  Uiso   1.00
Cs11   Cs    0.72066   0.47066   0.44132   0.01267  Uiso   1.00
Cs12   Cs    0.52934   0.27934   0.05868   0.01267  Uiso   1.00
Ag1    Ag    0.91895   0.10983   0.47706   0.01267  Uiso   1.00
Ag2    Ag    0.30649   0.23469   0.64894   0.01267  Uiso   1.00
Ag3    Ag    0.55811   0.86723   0.47706   0.01267  Uiso   1.00
Ag4    Ag    0.34245   0.91425   0.64894   0.01267  Uiso   1.00
Ag5    Ag    0.89017   0.08105   0.02294   0.01267  Uiso   1.00
Ag6    Ag    0.76531   0.69351   0.85106   0.01267  Uiso   1.00
Ag7    Ag    0.13277   0.44189   0.02294   0.01267  Uiso   1.00
Ag8    Ag    0.08575   0.65755   0.85106   0.01267  Uiso   1.00
Ag9    Ag    0.08105   0.89017   0.52294   0.01267  Uiso   1.00
Ag10   Ag    0.69351   0.76531   0.35106   0.01267  Uiso   1.00
Ag11   Ag    0.44189   0.13277   0.52294   0.01267  Uiso   1.00
Ag12   Ag    0.65755   0.08575   0.35106   0.01267  Uiso   1.00
Ag13   Ag    0.10983   0.91895   0.97706   0.01267  Uiso   1.00
Ag14   Ag    0.23469   0.30649   0.14894   0.01267  Uiso   1.00
Ag15   Ag    0.86723   0.55811   0.97706   0.01267  Uiso   1.00
Ag16   Ag    0.91425   0.34245   0.14894   0.01267  Uiso   1.00
Ag17   Ag    0.77931   0.52931   0.55862   0.01267  Uiso   1.00
Ag18   Ag    0.47069   0.22069   0.94138   0.01267  Uiso   1.00
Ag19   Ag    0.22069   0.47069   0.44138   0.01267  Uiso   1.00
Ag20   Ag    0.52931   0.77931   0.05862   0.01267  Uiso   1.00
Ag21   Ag    0.87500   0.12500   0.75000   0.01267  Uiso   1.00
Ag22   Ag    0.12500   0.87500   0.25000   0.01267  Uiso   1.00
Ag23   Ag    0.37500   0.62500   0.75000   0.01267  Uiso   1.00
Ag24   Ag    0.62500   0.37500   0.25000   0.01267  Uiso   1.00
C1     C     0.50510   0.34510   0.61540   0.01267  Uiso   1.00
C2     C     0.86750   0.28010   0.51120   0.01267  Uiso   1.00
C3     C     0.94310   0.93790   0.43560   0.01267  Uiso   1.00
C4     C     0.13950   0.16310   0.69120   0.01267  Uiso   1.00
C5     C     0.11030   0.77030   0.61540   0.01267  Uiso   1.00
C6     C     0.64370   0.73110   0.51120   0.01267  Uiso   1.00
C7     C     0.49250   0.99770   0.43560   0.01267  Uiso   1.00
C8     C     0.55170   0.02810   0.69120   0.01267  Uiso   1.00
C9     C     0.65490   0.49490   0.88460   0.01267  Uiso   1.00
C10    C     0.71990   0.13250   0.98880   0.01267  Uiso   1.00
C11    C     0.06210   0.05690   0.06440   0.01267  Uiso   1.00
C12    C     0.83690   0.86050   0.80880   0.01267  Uiso   1.00
C13    C     0.22970   0.88970   0.88460   0.01267  Uiso   1.00
C14    C     0.26890   0.35630   0.98880   0.01267  Uiso   1.00
C15    C     0.00230   0.50750   0.06440   0.01267  Uiso   1.00
C16    C     0.97190   0.44830   0.80880   0.01267  Uiso   1.00
C17    C     0.49490   0.65490   0.38460   0.01267  Uiso   1.00
C18    C     0.13250   0.71990   0.48880   0.01267  Uiso   1.00
C19    C     0.05690   0.06210   0.56440   0.01267  Uiso   1.00
C20    C     0.86050   0.83690   0.30880   0.01267  Uiso   1.00
C21    C     0.88970   0.22970   0.38460   0.01267  Uiso   1.00
C22    C     0.35630   0.26890   0.48880   0.01267  Uiso   1.00
C23    C     0.50750   0.00230   0.56440   0.01267  Uiso   1.00
C24    C     0.44830   0.97190   0.30880   0.01267  Uiso   1.00
C25    C     0.34510   0.50510   0.11540   0.01267  Uiso   1.00
C26    C     0.28010   0.86750   0.01120   0.01267  Uiso   1.00
C27    C     0.93790   0.94310   0.93560   0.01267  Uiso   1.00
C28    C     0.16310   0.13950   0.19120   0.01267  Uiso   1.00
C29    C     0.77030   0.11030   0.11540   0.01267  Uiso   1.00
C30    C     0.73110   0.64370   0.01120   0.01267  Uiso   1.00
C31    C     0.99770   0.49250   0.93560   0.01267  Uiso   1.00
C32    C     0.02810   0.55170   0.19120   0.01267  Uiso   1.00
C33    C     0.34120   0.59120   0.68240   0.01267  Uiso   1.00
C34    C     0.40880   0.65880   0.81760   0.01267  Uiso   1.00
C35    C     0.65880   0.40880   0.31760   0.01267  Uiso   1.00
C36    C     0.59120   0.34120   0.18240   0.01267  Uiso   1.00
N1     N     0.60840   0.41940   0.59700   0.01267  Uiso   1.00
N2     N     0.82970   0.36790   0.52960   0.01267  Uiso   1.00
N3     N     0.95530   0.85830   0.41200   0.01267  Uiso   1.00
N4     N     0.04300   0.14500   0.71340   0.01267  Uiso   1.00
N5     N     0.98860   0.67760   0.59700   0.01267  Uiso   1.00
N6     N     0.69990   0.66170   0.52960   0.01267  Uiso   1.00
N7     N     0.45670   0.05370   0.41200   0.01267  Uiso   1.00
N8     N     0.67040   0.06840   0.71340   0.01267  Uiso   1.00
N9     N     0.58060   0.39160   0.90300   0.01267  Uiso   1.00
N10    N     0.63210   0.17030   0.97040   0.01267  Uiso   1.00
N11    N     0.14170   0.04470   0.08800   0.01267  Uiso   1.00
N12    N     0.85500   0.95700   0.78660   0.01267  Uiso   1.00
N13    N     0.32240   0.01140   0.90300   0.01267  Uiso   1.00
N14    N     0.33830   0.30010   0.97040   0.01267  Uiso   1.00
N15    N     0.94630   0.54330   0.08800   0.01267  Uiso   1.00
N16    N     0.93160   0.32960   0.78660   0.01267  Uiso   1.00
N17    N     0.39160   0.58060   0.40300   0.01267  Uiso   1.00
N18    N     0.17030   0.63210   0.47040   0.01267  Uiso   1.00
N19    N     0.04470   0.14170   0.58800   0.01267  Uiso   1.00
N20    N     0.95700   0.85500   0.28660   0.01267  Uiso   1.00
N21    N     0.01140   0.32240   0.40300   0.01267  Uiso   1.00
N22    N     0.30010   0.33830   0.47040   0.01267  Uiso   1.00
N23    N     0.54330   0.94630   0.58800   0.01267  Uiso   1.00
N24    N     0.32960   0.93160   0.28660   0.01267  Uiso   1.00
N25    N     0.41940   0.60840   0.09700   0.01267  Uiso   1.00
N26    N     0.36790   0.82970   0.02960   0.01267  Uiso   1.00
N27    N     0.85830   0.95530   0.91200   0.01267  Uiso   1.00
N28    N     0.14500   0.04300   0.21340   0.01267  Uiso   1.00
N29    N     0.67760   0.98860   0.09700   0.01267  Uiso   1.00
N30    N     0.66170   0.69990   0.02960   0.01267  Uiso   1.00
N31    N     0.05370   0.45670   0.91200   0.01267  Uiso   1.00
N32    N     0.06840   0.67040   0.21340   0.01267  Uiso   1.00
N33    N     0.32690   0.57690   0.65380   0.01267  Uiso   1.00
N34    N     0.42310   0.67310   0.84620   0.01267  Uiso   1.00
N35    N     0.67310   0.42310   0.34620   0.01267  Uiso   1.00
N36    N     0.57690   0.32690   0.15380   0.01267  Uiso   1.00
