data_image0
_cell_length_a       7.203
_cell_length_b       13.43
_cell_length_c       17.54
_cell_angle_alpha    90
_cell_angle_beta     100.76
_cell_angle_gamma    90

_symmetry_space_group_name_H-M    "P 1"
_symmetry_int_tables_number       1

loop_
  _symmetry_equiv_pos_as_xyz
  'x, y, z'

loop_
  _atom_site_label
  _atom_site_occupancy
  _atom_site_fract_x
  _atom_site_fract_y
  _atom_site_fract_z
  _atom_site_thermal_displace_type
  _atom_site_B_iso_or_equiv
  _atom_site_type_symbol
  In1      1.0000 0.46828  0.39817  0.94818  Biso   1.000  In
  O1       1.0000 0.57710  0.33850  0.06310  Biso   1.000  O
  O2       1.0000 0.68070  0.48140  0.12430  Biso   1.000  O
  O3       1.0000 0.98690  0.37860  0.07370  Biso   1.000  O
  O4       1.0000 0.25660  0.38970  0.16220  Biso   1.000  O
  O5       1.0000 0.23280  0.19870  0.41560  Biso   1.000  O
  O6       1.0000 0.97750  0.09820  0.40140  Biso   1.000  O
  O7       1.0000 0.66600  0.22390  0.42410  Biso   1.000  O
  O8       1.0000 0.53410  0.12800  0.32790  Biso   1.000  O
  O9       1.0000 0.69060  0.51280  0.97100  Biso   1.000  O
  C1       1.0000 0.78130  0.33080  0.18480  Biso   1.000  C
  C2       1.0000 0.97730  0.32520  0.19980  Biso   1.000  C
  C3       1.0000 0.07070  0.27810  0.26740  Biso   1.000  C
  H1       1.0000 0.20480  0.27560  0.27870  Biso   1.000  H
  C4       1.0000 0.96720  0.23520  0.31800  Biso   1.000  C
  C5       1.0000 0.76930  0.24040  0.30250  Biso   1.000  C
  C6       1.0000 0.67770  0.28850  0.23640  Biso   1.000  C
  H2       1.0000 0.54370  0.29280  0.22600  Biso   1.000  H
  C7       1.0000 0.67320  0.38880  0.11760  Biso   1.000  C
  C8       1.0000 0.08600  0.36850  0.14200  Biso   1.000  C
  C9       1.0000 0.06480  0.17290  0.38420  Biso   1.000  C
  C10      1.0000 0.65190  0.19580  0.35460  Biso   1.000  C
  In2      1.0000 0.53172  0.89817  0.55182  Biso   1.000  In
  O10      1.0000 0.42290  0.83850  0.43690  Biso   1.000  O
  O11      1.0000 0.31930  0.98140  0.37570  Biso   1.000  O
  O12      1.0000 0.01310  0.87860  0.42630  Biso   1.000  O
  O13      1.0000 0.74340  0.88970  0.33780  Biso   1.000  O
  O14      1.0000 0.76720  0.69870  0.08440  Biso   1.000  O
  O15      1.0000 0.02250  0.59820  0.09860  Biso   1.000  O
  O16      1.0000 0.33400  0.72390  0.07590  Biso   1.000  O
  O17      1.0000 0.46590  0.62800  0.17210  Biso   1.000  O
  O18      1.0000 0.30940  0.01280  0.52900  Biso   1.000  O
  C11      1.0000 0.21870  0.83080  0.31520  Biso   1.000  C
  C12      1.0000 0.02270  0.82520  0.30020  Biso   1.000  C
  C13      1.0000 0.92930  0.77810  0.23260  Biso   1.000  C
  H3       1.0000 0.79520  0.77560  0.22130  Biso   1.000  H
  C14      1.0000 0.03280  0.73520  0.18200  Biso   1.000  C
  C15      1.0000 0.23070  0.74040  0.19750  Biso   1.000  C
  C16      1.0000 0.32230  0.78850  0.26360  Biso   1.000  C
  H4       1.0000 0.45630  0.79280  0.27400  Biso   1.000  H
  C17      1.0000 0.32680  0.88880  0.38240  Biso   1.000  C
  C18      1.0000 0.91400  0.86850  0.35800  Biso   1.000  C
  C19      1.0000 0.93520  0.67290  0.11580  Biso   1.000  C
  C20      1.0000 0.34810  0.69580  0.14540  Biso   1.000  C
  In3      1.0000 0.53172  0.60183  0.05182  Biso   1.000  In
  O19      1.0000 0.42290  0.66150  0.93690  Biso   1.000  O
  O20      1.0000 0.31930  0.51860  0.87570  Biso   1.000  O
  O21      1.0000 0.01310  0.62140  0.92630  Biso   1.000  O
  O22      1.0000 0.74340  0.61030  0.83780  Biso   1.000  O
  O23      1.0000 0.76720  0.80130  0.58440  Biso   1.000  O
  O24      1.0000 0.02250  0.90180  0.59860  Biso   1.000  O
  O25      1.0000 0.33400  0.77610  0.57590  Biso   1.000  O
  O26      1.0000 0.46590  0.87200  0.67210  Biso   1.000  O
  O27      1.0000 0.30940  0.48720  0.02900  Biso   1.000  O
  C21      1.0000 0.21870  0.66920  0.81520  Biso   1.000  C
  C22      1.0000 0.02270  0.67480  0.80020  Biso   1.000  C
  C23      1.0000 0.92930  0.72190  0.73260  Biso   1.000  C
  H5       1.0000 0.79520  0.72440  0.72130  Biso   1.000  H
  C24      1.0000 0.03280  0.76480  0.68200  Biso   1.000  C
  C25      1.0000 0.23070  0.75960  0.69750  Biso   1.000  C
  C26      1.0000 0.32230  0.71150  0.76360  Biso   1.000  C
  H6       1.0000 0.45630  0.70720  0.77400  Biso   1.000  H
  C27      1.0000 0.32680  0.61120  0.88240  Biso   1.000  C
  C28      1.0000 0.91400  0.63150  0.85800  Biso   1.000  C
  C29      1.0000 0.93520  0.82710  0.61580  Biso   1.000  C
  C30      1.0000 0.34810  0.80420  0.64540  Biso   1.000  C
  In4      1.0000 0.46828  0.10183  0.44818  Biso   1.000  In
  O28      1.0000 0.57710  0.16150  0.56310  Biso   1.000  O
  O29      1.0000 0.68070  0.01860  0.62430  Biso   1.000  O
  O30      1.0000 0.98690  0.12140  0.57370  Biso   1.000  O
  O31      1.0000 0.25660  0.11030  0.66220  Biso   1.000  O
  O32      1.0000 0.23280  0.30130  0.91560  Biso   1.000  O
  O33      1.0000 0.97750  0.40180  0.90140  Biso   1.000  O
  O34      1.0000 0.66600  0.27610  0.92410  Biso   1.000  O
  O35      1.0000 0.53410  0.37200  0.82790  Biso   1.000  O
  O36      1.0000 0.69060  0.98720  0.47100  Biso   1.000  O
  C31      1.0000 0.78130  0.16920  0.68480  Biso   1.000  C
  C32      1.0000 0.97730  0.17480  0.69980  Biso   1.000  C
  C33      1.0000 0.07070  0.22190  0.76740  Biso   1.000  C
  H7       1.0000 0.20480  0.22440  0.77870  Biso   1.000  H
  C34      1.0000 0.96720  0.26480  0.81800  Biso   1.000  C
  C35      1.0000 0.76930  0.25960  0.80250  Biso   1.000  C
  C36      1.0000 0.67770  0.21150  0.73640  Biso   1.000  C
  H8       1.0000 0.54370  0.20720  0.72600  Biso   1.000  H
  C37      1.0000 0.67320  0.11120  0.61760  Biso   1.000  C
  C38      1.0000 0.08600  0.13150  0.64200  Biso   1.000  C
  C39      1.0000 0.06480  0.32710  0.88420  Biso   1.000  C
  C40      1.0000 0.65190  0.30420  0.85460  Biso   1.000  C
  In5      1.0000 0.00000  0.50000  0.00000  Biso   1.000  In
  In6      1.0000 0.00000  0.00000  0.50000  Biso   1.000  In
