data_CATART03_clean
_audit_creation_date              2014-07-02
_audit_creation_method            'Materials Studio'
_symmetry_space_group_name_H-M    'P1'
_symmetry_Int_Tables_number       1
_symmetry_cell_setting            triclinic
loop_
_symmetry_equiv_pos_as_xyz
  x,y,z
_cell_length_a                    9.2197
_cell_length_b                    9.6228
_cell_length_c                    10.5649
_cell_angle_alpha                 90.0000
_cell_angle_beta                  90.0000
_cell_angle_gamma                 90.0000
loop_
_atom_site_label
_atom_site_type_symbol
_atom_site_fract_x
_atom_site_fract_y
_atom_site_fract_z
_atom_site_U_iso_or_equiv
_atom_site_adp_type
_atom_site_occupancy
Ca1    Ca    0.81393   0.68112   0.32289   0.01267  Uiso   1.00
Ca2    Ca    0.31393   0.81888   0.67711   0.01267  Uiso   1.00
Ca3    Ca    0.68607   0.31888   0.82289   0.01267  Uiso   1.00
Ca4    Ca    0.18607   0.18112   0.17711   0.01267  Uiso   1.00
H1     H     0.68912   0.26255   0.34276   0.01267  Uiso   1.00
H2     H     0.75094   0.17378   0.14285   0.01267  Uiso   1.00
H3     H     0.57131   0.45464   0.33983   0.01267  Uiso   1.00
H4     H     0.87631   0.31303   0.03443   0.01267  Uiso   1.00
H5     H     0.18912   0.23745   0.65724   0.01267  Uiso   1.00
H6     H     0.25094   0.32622   0.85715   0.01267  Uiso   1.00
H7     H     0.07131   0.04536   0.66017   0.01267  Uiso   1.00
H8     H     0.37631   0.18697   0.96557   0.01267  Uiso   1.00
H9     H     0.81088   0.73745   0.84276   0.01267  Uiso   1.00
H10    H     0.74906   0.82622   0.64285   0.01267  Uiso   1.00
H11    H     0.92869   0.54536   0.83983   0.01267  Uiso   1.00
H12    H     0.62369   0.68697   0.53443   0.01267  Uiso   1.00
H13    H     0.31088   0.76255   0.15724   0.01267  Uiso   1.00
H14    H     0.24906   0.67378   0.35715   0.01267  Uiso   1.00
H15    H     0.42869   0.95464   0.16017   0.01267  Uiso   1.00
H16    H     0.12369   0.81303   0.46557   0.01267  Uiso   1.00
C1     C     0.89000   0.35690   0.29590   0.01267  Uiso   1.00
C2     C     0.72630   0.33900   0.27560   0.01267  Uiso   1.00
C3     C     0.70220   0.27360   0.14220   0.01267  Uiso   1.00
C4     C     0.54140   0.26070   0.10620   0.01267  Uiso   1.00
C5     C     0.39000   0.14310   0.70410   0.01267  Uiso   1.00
C6     C     0.22630   0.16100   0.72440   0.01267  Uiso   1.00
C7     C     0.20220   0.22640   0.85780   0.01267  Uiso   1.00
C8     C     0.04140   0.23930   0.89380   0.01267  Uiso   1.00
C9     C     0.61000   0.64310   0.79590   0.01267  Uiso   1.00
C10    C     0.77370   0.66100   0.77560   0.01267  Uiso   1.00
C11    C     0.79780   0.72640   0.64220   0.01267  Uiso   1.00
C12    C     0.95860   0.73930   0.60620   0.01267  Uiso   1.00
C13    C     0.11000   0.85690   0.20410   0.01267  Uiso   1.00
C14    C     0.27370   0.83900   0.22440   0.01267  Uiso   1.00
C15    C     0.29780   0.77360   0.35780   0.01267  Uiso   1.00
C16    C     0.45860   0.76070   0.39380   0.01267  Uiso   1.00
O1     O     0.94201   0.47005   0.32557   0.01267  Uiso   1.00
O2     O     0.96154   0.24580   0.28371   0.01267  Uiso   1.00
O3     O     0.66052   0.47417   0.28152   0.01267  Uiso   1.00
O4     O     0.77303   0.35473   0.04798   0.01267  Uiso   1.00
O5     O     0.45173   0.23519   0.18936   0.01267  Uiso   1.00
O6     O     0.51541   0.26735   0.98667   0.01267  Uiso   1.00
O7     O     0.44201   0.02995   0.67443   0.01267  Uiso   1.00
O8     O     0.46154   0.25420   0.71629   0.01267  Uiso   1.00
O9     O     0.16052   0.02583   0.71848   0.01267  Uiso   1.00
O10    O     0.27303   0.14527   0.95202   0.01267  Uiso   1.00
O11    O     0.95173   0.26481   0.81064   0.01267  Uiso   1.00
O12    O     0.01541   0.23265   0.01333   0.01267  Uiso   1.00
O13    O     0.55799   0.52995   0.82557   0.01267  Uiso   1.00
O14    O     0.53846   0.75420   0.78371   0.01267  Uiso   1.00
O15    O     0.83948   0.52583   0.78152   0.01267  Uiso   1.00
O16    O     0.72697   0.64527   0.54798   0.01267  Uiso   1.00
O17    O     0.04827   0.76481   0.68936   0.01267  Uiso   1.00
O18    O     0.98459   0.73265   0.48667   0.01267  Uiso   1.00
O19    O     0.05799   0.97005   0.17443   0.01267  Uiso   1.00
O20    O     0.03846   0.74580   0.21629   0.01267  Uiso   1.00
O21    O     0.33948   0.97417   0.21848   0.01267  Uiso   1.00
O22    O     0.22697   0.85473   0.45202   0.01267  Uiso   1.00
O23    O     0.54827   0.73519   0.31064   0.01267  Uiso   1.00
O24    O     0.48459   0.76735   0.51333   0.01267  Uiso   1.00
