data_image0
_cell_length_a       18.279
_cell_length_b       7.33
_cell_length_c       11.601
_cell_angle_alpha    90
_cell_angle_beta     90
_cell_angle_gamma    90

_symmetry_space_group_name_H-M    "P 1"
_symmetry_int_tables_number       1

loop_
  _symmetry_equiv_pos_as_xyz
  'x, y, z'

loop_
  _atom_site_label
  _atom_site_occupancy
  _atom_site_fract_x
  _atom_site_fract_y
  _atom_site_fract_z
  _atom_site_thermal_displace_type
  _atom_site_B_iso_or_equiv
  _atom_site_type_symbol
  O1       1.0000 0.58196  0.40160  0.61080  Biso   1.000  O
  C1       1.0000 0.71600  0.09100  0.72360  Biso   1.000  C
  N1       1.0000 0.69040  0.92200  0.69100  Biso   1.000  N
  O2       1.0000 0.70960  0.84700  0.59000  Biso   1.000  O
  O3       1.0000 0.65030  0.85900  0.77900  Biso   1.000  O
  O4       1.0000 0.08196  0.90160  0.11080  Biso   1.000  O
  C2       1.0000 0.21600  0.59100  0.22360  Biso   1.000  C
  N2       1.0000 0.19040  0.42200  0.19100  Biso   1.000  N
  O5       1.0000 0.20960  0.34700  0.09000  Biso   1.000  O
  O6       1.0000 0.15030  0.35900  0.27900  Biso   1.000  O
  O7       1.0000 0.41804  0.09840  0.61080  Biso   1.000  O
  C3       1.0000 0.28400  0.40900  0.72360  Biso   1.000  C
  N3       1.0000 0.30960  0.57800  0.69100  Biso   1.000  N
  O8       1.0000 0.29040  0.65300  0.59000  Biso   1.000  O
  O9       1.0000 0.34970  0.64100  0.77900  Biso   1.000  O
  O10      1.0000 0.91804  0.59840  0.11080  Biso   1.000  O
  C4       1.0000 0.78400  0.90900  0.22360  Biso   1.000  C
  N4       1.0000 0.80960  0.07800  0.19100  Biso   1.000  N
  O11      1.0000 0.79040  0.15300  0.09000  Biso   1.000  O
  O12      1.0000 0.84970  0.14100  0.27900  Biso   1.000  O
  O13      1.0000 0.41804  0.90160  0.38920  Biso   1.000  O
  C5       1.0000 0.28400  0.59100  0.27640  Biso   1.000  C
  N5       1.0000 0.30960  0.42200  0.30900  Biso   1.000  N
  O14      1.0000 0.29040  0.34700  0.41000  Biso   1.000  O
  O15      1.0000 0.34970  0.35900  0.22100  Biso   1.000  O
  O16      1.0000 0.91804  0.40160  0.88920  Biso   1.000  O
  C6       1.0000 0.78400  0.09100  0.77640  Biso   1.000  C
  N6       1.0000 0.80960  0.92200  0.80900  Biso   1.000  N
  O17      1.0000 0.79040  0.84700  0.91000  Biso   1.000  O
  O18      1.0000 0.84970  0.85900  0.72100  Biso   1.000  O
  O19      1.0000 0.58196  0.59840  0.38920  Biso   1.000  O
  C7       1.0000 0.71600  0.90900  0.27640  Biso   1.000  C
  N7       1.0000 0.69040  0.07800  0.30900  Biso   1.000  N
  O20      1.0000 0.70960  0.15300  0.41000  Biso   1.000  O
  O21      1.0000 0.65030  0.14100  0.22100  Biso   1.000  O
  O22      1.0000 0.08196  0.09840  0.88920  Biso   1.000  O
  C8       1.0000 0.21600  0.40900  0.77640  Biso   1.000  C
  N8       1.0000 0.19040  0.57800  0.80900  Biso   1.000  N
  O23      1.0000 0.20960  0.65300  0.91000  Biso   1.000  O
  O24      1.0000 0.15030  0.64100  0.72100  Biso   1.000  O
  O25      1.0000 0.41804  0.59840  0.38920  Biso   1.000  O
  C9       1.0000 0.28400  0.90900  0.27640  Biso   1.000  C
  N9       1.0000 0.30960  0.07800  0.30900  Biso   1.000  N
  O26      1.0000 0.29040  0.15300  0.41000  Biso   1.000  O
  O27      1.0000 0.34970  0.14100  0.22100  Biso   1.000  O
  O28      1.0000 0.91804  0.09840  0.88920  Biso   1.000  O
  C10      1.0000 0.78400  0.40900  0.77640  Biso   1.000  C
  N10      1.0000 0.80960  0.57800  0.80900  Biso   1.000  N
  O29      1.0000 0.79040  0.65300  0.91000  Biso   1.000  O
  O30      1.0000 0.84970  0.64100  0.72100  Biso   1.000  O
  O31      1.0000 0.58196  0.90160  0.38920  Biso   1.000  O
  C11      1.0000 0.71600  0.59100  0.27640  Biso   1.000  C
  N11      1.0000 0.69040  0.42200  0.30900  Biso   1.000  N
  O32      1.0000 0.70960  0.34700  0.41000  Biso   1.000  O
  O33      1.0000 0.65030  0.35900  0.22100  Biso   1.000  O
  O34      1.0000 0.08196  0.40160  0.88920  Biso   1.000  O
  C12      1.0000 0.21600  0.09100  0.77640  Biso   1.000  C
  N12      1.0000 0.19040  0.92200  0.80900  Biso   1.000  N
  O35      1.0000 0.20960  0.84700  0.91000  Biso   1.000  O
  O36      1.0000 0.15030  0.85900  0.72100  Biso   1.000  O
  O37      1.0000 0.58196  0.09840  0.61080  Biso   1.000  O
  C13      1.0000 0.71600  0.40900  0.72360  Biso   1.000  C
  N13      1.0000 0.69040  0.57800  0.69100  Biso   1.000  N
  O38      1.0000 0.70960  0.65300  0.59000  Biso   1.000  O
  O39      1.0000 0.65030  0.64100  0.77900  Biso   1.000  O
  O40      1.0000 0.08196  0.59840  0.11080  Biso   1.000  O
  C14      1.0000 0.21600  0.90900  0.22360  Biso   1.000  C
  N14      1.0000 0.19040  0.07800  0.19100  Biso   1.000  N
  O41      1.0000 0.20960  0.15300  0.09000  Biso   1.000  O
  O42      1.0000 0.15030  0.14100  0.27900  Biso   1.000  O
  O43      1.0000 0.41804  0.40160  0.61080  Biso   1.000  O
  C15      1.0000 0.28400  0.09100  0.72360  Biso   1.000  C
  N15      1.0000 0.30960  0.92200  0.69100  Biso   1.000  N
  O44      1.0000 0.29040  0.84700  0.59000  Biso   1.000  O
  O45      1.0000 0.34970  0.85900  0.77900  Biso   1.000  O
  O46      1.0000 0.91804  0.90160  0.11080  Biso   1.000  O
  C16      1.0000 0.78400  0.59100  0.22360  Biso   1.000  C
  N16      1.0000 0.80960  0.42200  0.19100  Biso   1.000  N
  O47      1.0000 0.79040  0.34700  0.09000  Biso   1.000  O
  O48      1.0000 0.84970  0.35900  0.27900  Biso   1.000  O
  Sc1      1.0000 0.50000  0.50000  0.50000  Biso   1.000  Sc
  Sc2      1.0000 0.00000  0.00000  0.00000  Biso   1.000  Sc
  Sc3      1.0000 0.50000  0.00000  0.50000  Biso   1.000  Sc
  Sc4      1.0000 0.00000  0.50000  0.00000  Biso   1.000  Sc
  O49      1.0000 0.50000  0.25000  0.41800  Biso   1.000  O
  O50      1.0000 0.00000  0.75000  0.91800  Biso   1.000  O
  O51      1.0000 0.50000  0.75000  0.58200  Biso   1.000  O
  O52      1.0000 0.00000  0.25000  0.08200  Biso   1.000  O
  C17      1.0000 0.60990  0.25000  0.63380  Biso   1.000  C
  C18      1.0000 0.68270  0.25000  0.69460  Biso   1.000  C
  C19      1.0000 0.10990  0.75000  0.13380  Biso   1.000  C
  C20      1.0000 0.18270  0.75000  0.19460  Biso   1.000  C
  C21      1.0000 0.39010  0.25000  0.63380  Biso   1.000  C
  C22      1.0000 0.31730  0.25000  0.69460  Biso   1.000  C
  C23      1.0000 0.89010  0.75000  0.13380  Biso   1.000  C
  C24      1.0000 0.81730  0.75000  0.19460  Biso   1.000  C
  C25      1.0000 0.39010  0.75000  0.36620  Biso   1.000  C
  C26      1.0000 0.31730  0.75000  0.30540  Biso   1.000  C
  C27      1.0000 0.89010  0.25000  0.86620  Biso   1.000  C
  C28      1.0000 0.81730  0.25000  0.80540  Biso   1.000  C
  C29      1.0000 0.60990  0.75000  0.36620  Biso   1.000  C
  C30      1.0000 0.68270  0.75000  0.30540  Biso   1.000  C
  C31      1.0000 0.10990  0.25000  0.86620  Biso   1.000  C
  C32      1.0000 0.18270  0.25000  0.80540  Biso   1.000  C
