data_image0
_cell_length_a       13.3444
_cell_length_b       18.782
_cell_length_c       5.849
_cell_angle_alpha    90
_cell_angle_beta     97.711
_cell_angle_gamma    90

_symmetry_space_group_name_H-M    "P 1"
_symmetry_int_tables_number       1

loop_
  _symmetry_equiv_pos_as_xyz
  'x, y, z'

loop_
  _atom_site_label
  _atom_site_occupancy
  _atom_site_fract_x
  _atom_site_fract_y
  _atom_site_fract_z
  _atom_site_thermal_displace_type
  _atom_site_B_iso_or_equiv
  _atom_site_type_symbol
  La1      1.0000 0.62890  0.25000  0.33510  Biso   1.000  La
  P1       1.0000 0.43990  0.08530  0.14400  Biso   1.000  P
  P2       1.0000 0.73310  0.13360  0.86300  Biso   1.000  P
  O1       1.0000 0.42300  0.07430  0.88100  Biso   1.000  O
  O2       1.0000 0.46300  0.16360  0.20600  Biso   1.000  O
  O3       1.0000 0.52490  0.03660  0.25800  Biso   1.000  O
  O4       1.0000 0.84260  0.13800  0.80700  Biso   1.000  O
  O5       1.0000 0.66100  0.17580  0.68400  Biso   1.000  O
  O6       1.0000 0.72900  0.16130  0.10900  Biso   1.000  O
  C1       1.0000 0.32480  0.06240  0.26100  Biso   1.000  C
  C2       1.0000 0.69400  0.04170  0.84500  Biso   1.000  C
  N1       1.0000 0.26740  0.99270  0.24900  Biso   1.000  N
  C3       1.0000 0.16430  0.00550  0.31800  Biso   1.000  C
  C4       1.0000 0.15500  0.98130  0.55800  Biso   1.000  C
  C5       1.0000 0.04700  0.97850  0.60400  Biso   1.000  C
  P3       1.0000 0.54240  0.90450  0.78000  Biso   1.000  P
  P4       1.0000 0.28030  0.86510  0.10630  Biso   1.000  P
  O7       1.0000 0.56300  0.90910  0.04500  Biso   1.000  O
  O8       1.0000 0.50330  0.83040  0.70000  Biso   1.000  O
  O9       1.0000 0.46620  0.96240  0.68400  Biso   1.000  O
  O10      1.0000 0.17310  0.83260  0.08000  Biso   1.000  O
  O11      1.0000 0.33080  0.86280  0.35800  Biso   1.000  O
  O12      1.0000 0.34740  0.82840  0.94800  Biso   1.000  O
  C6       1.0000 0.65970  0.92070  0.66400  Biso   1.000  C
  C7       1.0000 0.26600  0.95710  0.01800  Biso   1.000  C
  N2       1.0000 0.71830  0.98970  0.66300  Biso   1.000  N
  C8       1.0000 0.82960  0.98170  0.64900  Biso   1.000  C
  C9       1.0000 0.86260  0.98080  0.41500  Biso   1.000  C
  C10      1.0000 0.96970  0.95870  0.40400  Biso   1.000  C
  La2      1.0000 0.37110  0.75000  0.66490  Biso   1.000  La
  P5       1.0000 0.56010  0.58530  0.85600  Biso   1.000  P
  P6       1.0000 0.26690  0.63360  0.13700  Biso   1.000  P
  O13      1.0000 0.57700  0.57430  0.11900  Biso   1.000  O
  O14      1.0000 0.53700  0.66360  0.79400  Biso   1.000  O
  O15      1.0000 0.47510  0.53660  0.74200  Biso   1.000  O
  O16      1.0000 0.15740  0.63800  0.19300  Biso   1.000  O
  O17      1.0000 0.33900  0.67580  0.31600  Biso   1.000  O
  O18      1.0000 0.27100  0.66130  0.89100  Biso   1.000  O
  C11      1.0000 0.67520  0.56240  0.73900  Biso   1.000  C
  C12      1.0000 0.30600  0.54170  0.15500  Biso   1.000  C
  N3       1.0000 0.73260  0.49270  0.75100  Biso   1.000  N
  C13      1.0000 0.83570  0.50550  0.68200  Biso   1.000  C
  C14      1.0000 0.84500  0.48130  0.44200  Biso   1.000  C
  C15      1.0000 0.95300  0.47850  0.39600  Biso   1.000  C
  P7       1.0000 0.45760  0.40450  0.22000  Biso   1.000  P
  P8       1.0000 0.71970  0.36510  0.89370  Biso   1.000  P
  O19      1.0000 0.43700  0.40910  0.95500  Biso   1.000  O
  O20      1.0000 0.49670  0.33040  0.30000  Biso   1.000  O
  O21      1.0000 0.53380  0.46240  0.31600  Biso   1.000  O
  O22      1.0000 0.82690  0.33260  0.92000  Biso   1.000  O
  O23      1.0000 0.66920  0.36280  0.64200  Biso   1.000  O
  O24      1.0000 0.65260  0.32840  0.05200  Biso   1.000  O
  C16      1.0000 0.34030  0.42070  0.33600  Biso   1.000  C
  C17      1.0000 0.73400  0.45710  0.98200  Biso   1.000  C
  N4       1.0000 0.28170  0.48970  0.33700  Biso   1.000  N
  C18      1.0000 0.17040  0.48170  0.35100  Biso   1.000  C
  C19      1.0000 0.13740  0.48080  0.58500  Biso   1.000  C
  C20      1.0000 0.03030  0.45870  0.59600  Biso   1.000  C
