data_image0
_cell_length_a       12.5035
_cell_length_b       18.1874
_cell_length_c       5.82
_cell_angle_alpha    90
_cell_angle_beta     101.923
_cell_angle_gamma    90

_symmetry_space_group_name_H-M    "P 1"
_symmetry_int_tables_number       1

loop_
  _symmetry_equiv_pos_as_xyz
  'x, y, z'

loop_
  _atom_site_label
  _atom_site_occupancy
  _atom_site_fract_x
  _atom_site_fract_y
  _atom_site_fract_z
  _atom_site_thermal_displace_type
  _atom_site_B_iso_or_equiv
  _atom_site_type_symbol
  La1      1.0000 0.66950  0.25000  0.37630  Biso   1.000  La
  P1       1.0000 0.46520  0.08890  0.18000  Biso   1.000  P
  P2       1.0000 0.74790  0.11260  0.91400  Biso   1.000  P
  O1       1.0000 0.42990  0.08920  0.91400  Biso   1.000  O
  O2       1.0000 0.49960  0.16820  0.25900  Biso   1.000  O
  O3       1.0000 0.54930  0.03010  0.27800  Biso   1.000  O
  O4       1.0000 0.87300  0.10660  0.93100  Biso   1.000  O
  O5       1.0000 0.69510  0.16300  0.71000  Biso   1.000  O
  O6       1.0000 0.71850  0.13410  0.15100  Biso   1.000  O
  C1       1.0000 0.34840  0.07320  0.31900  Biso   1.000  C
  C2       1.0000 0.69090  0.02290  0.83300  Biso   1.000  C
  N1       1.0000 0.24290  0.03200  0.28700  Biso   1.000  N
  C3       1.0000 0.15290  0.08780  0.27400  Biso   1.000  C
  C4       1.0000 0.12370  0.09920  0.51000  Biso   1.000  C
  C5       1.0000 0.01660  0.06520  0.52400  Biso   1.000  C
  P3       1.0000 0.55320  0.89860  0.79700  Biso   1.000  P
  P4       1.0000 0.20680  0.88040  0.07300  Biso   1.000  P
  O7       1.0000 0.56740  0.86590  0.04500  Biso   1.000  O
  O8       1.0000 0.48310  0.84860  0.60200  Biso   1.000  O
  O9       1.0000 0.50780  0.97590  0.76700  Biso   1.000  O
  O10      1.0000 0.08200  0.86800  0.04100  Biso   1.000  O
  O11      1.0000 0.26800  0.84680  0.30600  Biso   1.000  O
  O12      1.0000 0.24840  0.84870  0.86000  Biso   1.000  O
  C6       1.0000 0.68850  0.89430  0.72100  Biso   1.000  C
  C7       1.0000 0.23120  0.97830  0.08700  Biso   1.000  C
  N2       1.0000 0.69970  0.97150  0.63600  Biso   1.000  N
  C8       1.0000 0.79070  0.98630  0.51000  Biso   1.000  C
  C9       1.0000 0.90300  0.96270  0.64300  Biso   1.000  C
  C10      1.0000 0.99900  0.98490  0.54100  Biso   1.000  C
  La2      1.0000 0.33050  0.75000  0.62370  Biso   1.000  La
  P5       1.0000 0.53480  0.58890  0.82000  Biso   1.000  P
  P6       1.0000 0.25210  0.61260  0.08600  Biso   1.000  P
  O13      1.0000 0.57010  0.58920  0.08600  Biso   1.000  O
  O14      1.0000 0.50040  0.66820  0.74100  Biso   1.000  O
  O15      1.0000 0.45070  0.53010  0.72200  Biso   1.000  O
  O16      1.0000 0.12700  0.60660  0.06900  Biso   1.000  O
  O17      1.0000 0.30490  0.66300  0.29000  Biso   1.000  O
  O18      1.0000 0.28150  0.63410  0.84900  Biso   1.000  O
  C11      1.0000 0.65160  0.57320  0.68100  Biso   1.000  C
  C12      1.0000 0.30910  0.52290  0.16700  Biso   1.000  C
  N3       1.0000 0.75710  0.53200  0.71300  Biso   1.000  N
  C13      1.0000 0.84710  0.58780  0.72600  Biso   1.000  C
  C14      1.0000 0.87630  0.59920  0.49000  Biso   1.000  C
  C15      1.0000 0.98340  0.56520  0.47600  Biso   1.000  C
  P7       1.0000 0.44680  0.39860  0.20300  Biso   1.000  P
  P8       1.0000 0.79320  0.38040  0.92700  Biso   1.000  P
  O19      1.0000 0.43260  0.36590  0.95500  Biso   1.000  O
  O20      1.0000 0.51690  0.34860  0.39800  Biso   1.000  O
  O21      1.0000 0.49220  0.47590  0.23300  Biso   1.000  O
  O22      1.0000 0.91800  0.36800  0.95900  Biso   1.000  O
  O23      1.0000 0.73200  0.34680  0.69400  Biso   1.000  O
  O24      1.0000 0.75160  0.34870  0.14000  Biso   1.000  O
  C16      1.0000 0.31150  0.39430  0.27900  Biso   1.000  C
  C17      1.0000 0.76880  0.47830  0.91300  Biso   1.000  C
  N4       1.0000 0.30030  0.47150  0.36400  Biso   1.000  N
  C18      1.0000 0.20930  0.48630  0.49000  Biso   1.000  C
  C19      1.0000 0.09700  0.46270  0.35700  Biso   1.000  C
  C20      1.0000 0.00100  0.48490  0.45900  Biso   1.000  C
