data_CAWDOU02_clean
_audit_creation_date              2014-07-02
_audit_creation_method            'Materials Studio'
_symmetry_space_group_name_H-M    'P1'
_symmetry_Int_Tables_number       1
_symmetry_cell_setting            triclinic
loop_
_symmetry_equiv_pos_as_xyz
  x,y,z
_cell_length_a                    13.9077
_cell_length_b                    16.4355
_cell_length_c                    16.4355
_cell_angle_alpha                 90.0000
_cell_angle_beta                  90.0000
_cell_angle_gamma                 90.0000
loop_
_atom_site_label
_atom_site_type_symbol
_atom_site_fract_x
_atom_site_fract_y
_atom_site_fract_z
_atom_site_U_iso_or_equiv
_atom_site_adp_type
_atom_site_occupancy
Cu1    Cu    0.50000   0.81739   0.81739   0.01267  Uiso   1.00
Cu2    Cu    0.00000   0.18261   0.18261   0.01267  Uiso   1.00
Cu3    Cu    0.25000   0.68261   0.31739   0.01267  Uiso   1.00
Cu4    Cu    0.75000   0.31739   0.68261   0.01267  Uiso   1.00
H1     H     0.61660   0.96790   0.78130   0.01267  Uiso   1.00
H2     H     0.75110   0.00420   0.70990   0.01267  Uiso   1.00
H3     H     0.77430   0.77420   0.63500   0.01267  Uiso   1.00
H4     H     0.64240   0.74260   0.71080   0.01267  Uiso   1.00
H5     H     0.22920   0.86000   0.37060   0.01267  Uiso   1.00
H6     H     0.13050   0.93840   0.45020   0.01267  Uiso   1.00
H7     H     0.97540   0.73930   0.49650   0.01267  Uiso   1.00
H8     H     0.07910   0.66580   0.41860   0.01267  Uiso   1.00
H9     H     0.11660   0.03210   0.21870   0.01267  Uiso   1.00
H10    H     0.25110   0.99580   0.29010   0.01267  Uiso   1.00
H11    H     0.27430   0.22580   0.36500   0.01267  Uiso   1.00
H12    H     0.14240   0.25740   0.28920   0.01267  Uiso   1.00
H13    H     0.72920   0.14000   0.62940   0.01267  Uiso   1.00
H14    H     0.63050   0.06160   0.54980   0.01267  Uiso   1.00
H15    H     0.47540   0.26070   0.50350   0.01267  Uiso   1.00
H16    H     0.57910   0.33420   0.58140   0.01267  Uiso   1.00
H17    H     0.36660   0.71870   0.46790   0.01267  Uiso   1.00
H18    H     0.50110   0.79010   0.50420   0.01267  Uiso   1.00
H19    H     0.52430   0.86500   0.27420   0.01267  Uiso   1.00
H20    H     0.39240   0.78920   0.24260   0.01267  Uiso   1.00
H21    H     0.97920   0.12940   0.36000   0.01267  Uiso   1.00
H22    H     0.88050   0.04980   0.43840   0.01267  Uiso   1.00
H23    H     0.72540   0.00350   0.23930   0.01267  Uiso   1.00
H24    H     0.82910   0.08140   0.16580   0.01267  Uiso   1.00
H25    H     0.86660   0.28130   0.53210   0.01267  Uiso   1.00
H26    H     0.00110   0.20990   0.49580   0.01267  Uiso   1.00
H27    H     0.02430   0.13500   0.72580   0.01267  Uiso   1.00
H28    H     0.89240   0.21080   0.75740   0.01267  Uiso   1.00
H29    H     0.47920   0.87060   0.64000   0.01267  Uiso   1.00
H30    H     0.38050   0.95020   0.56160   0.01267  Uiso   1.00
H31    H     0.22540   0.99650   0.76070   0.01267  Uiso   1.00
H32    H     0.32910   0.91860   0.83420   0.01267  Uiso   1.00
H33    H     0.13340   0.53210   0.28130   0.01267  Uiso   1.00
H34    H     0.99890   0.49580   0.20990   0.01267  Uiso   1.00
H35    H     0.97570   0.72580   0.13500   0.01267  Uiso   1.00
H36    H     0.10760   0.75740   0.21080   0.01267  Uiso   1.00
H37    H     0.52080   0.64000   0.87060   0.01267  Uiso   1.00
H38    H     0.61950   0.56160   0.95020   0.01267  Uiso   1.00
H39    H     0.77460   0.76070   0.99650   0.01267  Uiso   1.00
H40    H     0.67090   0.83420   0.91860   0.01267  Uiso   1.00
H41    H     0.63340   0.46790   0.71870   0.01267  Uiso   1.00
H42    H     0.49890   0.50420   0.79010   0.01267  Uiso   1.00
H43    H     0.47570   0.27420   0.86500   0.01267  Uiso   1.00
H44    H     0.60760   0.24260   0.78920   0.01267  Uiso   1.00
H45    H     0.02080   0.36000   0.12940   0.01267  Uiso   1.00
H46    H     0.11950   0.43840   0.04980   0.01267  Uiso   1.00
H47    H     0.27460   0.23930   0.00350   0.01267  Uiso   1.00
H48    H     0.17090   0.16580   0.08140   0.01267  Uiso   1.00
H49    H     0.38340   0.78130   0.96790   0.01267  Uiso   1.00
H50    H     0.24890   0.70990   0.00420   0.01267  Uiso   1.00
H51    H     0.22570   0.63500   0.77420   0.01267  Uiso   1.00
H52    H     0.35760   0.71080   0.74260   0.01267  Uiso   1.00
H53    H     0.77080   0.37060   0.86000   0.01267  Uiso   1.00
H54    H     0.86950   0.45020   0.93840   0.01267  Uiso   1.00
H55    H     0.02460   0.49650   0.73930   0.01267  Uiso   1.00
H56    H     0.92090   0.41860   0.66580   0.01267  Uiso   1.00
H57    H     0.88340   0.21870   0.03210   0.01267  Uiso   1.00
H58    H     0.74890   0.29010   0.99580   0.01267  Uiso   1.00
H59    H     0.72570   0.36500   0.22580   0.01267  Uiso   1.00
H60    H     0.85760   0.28920   0.25740   0.01267  Uiso   1.00
H61    H     0.27080   0.62940   0.14000   0.01267  Uiso   1.00
H62    H     0.36950   0.54980   0.06160   0.01267  Uiso   1.00
H63    H     0.52460   0.50350   0.26070   0.01267  Uiso   1.00
H64    H     0.42090   0.58140   0.33420   0.01267  Uiso   1.00
C1     C     0.64984   0.92824   0.75239   0.01267  Uiso   1.00
C2     C     0.72963   0.95062   0.70907   0.01267  Uiso   1.00
C3     C     0.77765   0.89270   0.66421   0.01267  Uiso   1.00
C4     C     0.74368   0.81448   0.66516   0.01267  Uiso   1.00
C5     C     0.66459   0.79598   0.71063   0.01267  Uiso   1.00
C6     C     0.86237   0.91365   0.61570   0.01267  Uiso   1.00
C7     C     0.97886   0.89365   0.53617   0.01267  Uiso   1.00
C8     C     0.17775   0.83533   0.39693   0.01267  Uiso   1.00
C9     C     0.11896   0.88298   0.44458   0.01267  Uiso   1.00
C10    C     0.04187   0.84641   0.48418   0.01267  Uiso   1.00
C11    C     0.02753   0.76505   0.47220   0.01267  Uiso   1.00
C12    C     0.08950   0.72137   0.42470   0.01267  Uiso   1.00
C13    C     0.14984   0.07176   0.24761   0.01267  Uiso   1.00
C14    C     0.22963   0.04938   0.29093   0.01267  Uiso   1.00
C15    C     0.27765   0.10730   0.33579   0.01267  Uiso   1.00
C16    C     0.24368   0.18552   0.33484   0.01267  Uiso   1.00
C17    C     0.16459   0.20402   0.28937   0.01267  Uiso   1.00
C18    C     0.36237   0.08635   0.38430   0.01267  Uiso   1.00
C19    C     0.47886   0.10635   0.46383   0.01267  Uiso   1.00
C20    C     0.67775   0.16467   0.60307   0.01267  Uiso   1.00
C21    C     0.61896   0.11702   0.55542   0.01267  Uiso   1.00
C22    C     0.54187   0.15359   0.51582   0.01267  Uiso   1.00
C23    C     0.52753   0.23495   0.52780   0.01267  Uiso   1.00
C24    C     0.58950   0.27863   0.57530   0.01267  Uiso   1.00
C25    C     0.39984   0.74761   0.42824   0.01267  Uiso   1.00
C26    C     0.47963   0.79093   0.45062   0.01267  Uiso   1.00
C27    C     0.52765   0.83579   0.39270   0.01267  Uiso   1.00
C28    C     0.49368   0.83484   0.31448   0.01267  Uiso   1.00
C29    C     0.41459   0.78937   0.29598   0.01267  Uiso   1.00
C30    C     0.61237   0.88430   0.41365   0.01267  Uiso   1.00
C31    C     0.72886   0.96383   0.39365   0.01267  Uiso   1.00
C32    C     0.92775   0.10307   0.33533   0.01267  Uiso   1.00
C33    C     0.86896   0.05542   0.38298   0.01267  Uiso   1.00
C34    C     0.79187   0.01582   0.34641   0.01267  Uiso   1.00
C35    C     0.77753   0.02780   0.26505   0.01267  Uiso   1.00
C36    C     0.83950   0.07530   0.22137   0.01267  Uiso   1.00
C37    C     0.89984   0.25239   0.57176   0.01267  Uiso   1.00
C38    C     0.97963   0.20907   0.54938   0.01267  Uiso   1.00
C39    C     0.02765   0.16421   0.60730   0.01267  Uiso   1.00
C40    C     0.99368   0.16516   0.68552   0.01267  Uiso   1.00
C41    C     0.91459   0.21063   0.70402   0.01267  Uiso   1.00
C42    C     0.11237   0.11570   0.58635   0.01267  Uiso   1.00
C43    C     0.22886   0.03617   0.60635   0.01267  Uiso   1.00
C44    C     0.42775   0.89693   0.66467   0.01267  Uiso   1.00
C45    C     0.36896   0.94458   0.61702   0.01267  Uiso   1.00
C46    C     0.29187   0.98418   0.65359   0.01267  Uiso   1.00
C47    C     0.27753   0.97220   0.73495   0.01267  Uiso   1.00
C48    C     0.33950   0.92470   0.77863   0.01267  Uiso   1.00
C49    C     0.10016   0.57176   0.25239   0.01267  Uiso   1.00
C50    C     0.02037   0.54938   0.20907   0.01267  Uiso   1.00
C51    C     0.97235   0.60730   0.16421   0.01267  Uiso   1.00
C52    C     0.00632   0.68552   0.16516   0.01267  Uiso   1.00
C53    C     0.08541   0.70402   0.21063   0.01267  Uiso   1.00
C54    C     0.88763   0.58635   0.11570   0.01267  Uiso   1.00
C55    C     0.77114   0.60635   0.03617   0.01267  Uiso   1.00
C56    C     0.57225   0.66467   0.89693   0.01267  Uiso   1.00
C57    C     0.63104   0.61702   0.94458   0.01267  Uiso   1.00
C58    C     0.70813   0.65359   0.98418   0.01267  Uiso   1.00
C59    C     0.72247   0.73495   0.97220   0.01267  Uiso   1.00
C60    C     0.66050   0.77863   0.92470   0.01267  Uiso   1.00
C61    C     0.60016   0.42824   0.74761   0.01267  Uiso   1.00
C62    C     0.52037   0.45062   0.79093   0.01267  Uiso   1.00
C63    C     0.47235   0.39270   0.83579   0.01267  Uiso   1.00
C64    C     0.50632   0.31448   0.83484   0.01267  Uiso   1.00
C65    C     0.58541   0.29598   0.78937   0.01267  Uiso   1.00
C66    C     0.38763   0.41365   0.88430   0.01267  Uiso   1.00
C67    C     0.27114   0.39365   0.96383   0.01267  Uiso   1.00
C68    C     0.07225   0.33533   0.10307   0.01267  Uiso   1.00
C69    C     0.13104   0.38298   0.05542   0.01267  Uiso   1.00
C70    C     0.20813   0.34641   0.01582   0.01267  Uiso   1.00
C71    C     0.22247   0.26505   0.02780   0.01267  Uiso   1.00
C72    C     0.16050   0.22137   0.07530   0.01267  Uiso   1.00
C73    C     0.35016   0.75239   0.92824   0.01267  Uiso   1.00
C74    C     0.27037   0.70907   0.95062   0.01267  Uiso   1.00
C75    C     0.22235   0.66421   0.89270   0.01267  Uiso   1.00
C76    C     0.25632   0.66516   0.81448   0.01267  Uiso   1.00
C77    C     0.33541   0.71063   0.79598   0.01267  Uiso   1.00
C78    C     0.13763   0.61570   0.91365   0.01267  Uiso   1.00
C79    C     0.02114   0.53617   0.89365   0.01267  Uiso   1.00
C80    C     0.82225   0.39693   0.83533   0.01267  Uiso   1.00
C81    C     0.88104   0.44458   0.88298   0.01267  Uiso   1.00
C82    C     0.95813   0.48418   0.84641   0.01267  Uiso   1.00
C83    C     0.97247   0.47220   0.76505   0.01267  Uiso   1.00
C84    C     0.91050   0.42470   0.72137   0.01267  Uiso   1.00
C85    C     0.85016   0.24761   0.07176   0.01267  Uiso   1.00
C86    C     0.77037   0.29093   0.04938   0.01267  Uiso   1.00
C87    C     0.72235   0.33579   0.10730   0.01267  Uiso   1.00
C88    C     0.75632   0.33484   0.18552   0.01267  Uiso   1.00
C89    C     0.83541   0.28937   0.20402   0.01267  Uiso   1.00
C90    C     0.63763   0.38430   0.08635   0.01267  Uiso   1.00
C91    C     0.52114   0.46383   0.10635   0.01267  Uiso   1.00
C92    C     0.32225   0.60307   0.16467   0.01267  Uiso   1.00
C93    C     0.38104   0.55542   0.11702   0.01267  Uiso   1.00
C94    C     0.45813   0.51582   0.15359   0.01267  Uiso   1.00
C95    C     0.47247   0.52780   0.23495   0.01267  Uiso   1.00
C96    C     0.41050   0.57530   0.27863   0.01267  Uiso   1.00
N1     N     0.61770   0.85134   0.75481   0.01267  Uiso   1.00
N2     N     0.90454   0.98259   0.60882   0.01267  Uiso   1.00
N3     N     0.98208   0.96985   0.55522   0.01267  Uiso   1.00
N4     N     0.16479   0.75546   0.38654   0.01267  Uiso   1.00
N5     N     0.11770   0.14866   0.24519   0.01267  Uiso   1.00
N6     N     0.40454   0.01741   0.39118   0.01267  Uiso   1.00
N7     N     0.48208   0.03015   0.44478   0.01267  Uiso   1.00
N8     N     0.66479   0.24454   0.61346   0.01267  Uiso   1.00
N9     N     0.36770   0.74519   0.35134   0.01267  Uiso   1.00
N10    N     0.65454   0.89118   0.48259   0.01267  Uiso   1.00
N11    N     0.73208   0.94478   0.46985   0.01267  Uiso   1.00
N12    N     0.91479   0.11346   0.25546   0.01267  Uiso   1.00
N13    N     0.86770   0.25481   0.64866   0.01267  Uiso   1.00
N14    N     0.15454   0.10882   0.51741   0.01267  Uiso   1.00
N15    N     0.23208   0.05522   0.53015   0.01267  Uiso   1.00
N16    N     0.41479   0.88654   0.74454   0.01267  Uiso   1.00
N17    N     0.13230   0.64866   0.25481   0.01267  Uiso   1.00
N18    N     0.84546   0.51741   0.10882   0.01267  Uiso   1.00
N19    N     0.76792   0.53015   0.05522   0.01267  Uiso   1.00
N20    N     0.58521   0.74454   0.88654   0.01267  Uiso   1.00
N21    N     0.63230   0.35134   0.74519   0.01267  Uiso   1.00
N22    N     0.34546   0.48259   0.89118   0.01267  Uiso   1.00
N23    N     0.26792   0.46985   0.94478   0.01267  Uiso   1.00
N24    N     0.08521   0.25546   0.11346   0.01267  Uiso   1.00
N25    N     0.38230   0.75481   0.85134   0.01267  Uiso   1.00
N26    N     0.09546   0.60882   0.98259   0.01267  Uiso   1.00
N27    N     0.01792   0.55522   0.96985   0.01267  Uiso   1.00
N28    N     0.83521   0.38654   0.75546   0.01267  Uiso   1.00
N29    N     0.88230   0.24519   0.14866   0.01267  Uiso   1.00
N30    N     0.59546   0.39118   0.01741   0.01267  Uiso   1.00
N31    N     0.51792   0.44478   0.03015   0.01267  Uiso   1.00
N32    N     0.33521   0.61346   0.24454   0.01267  Uiso   1.00
O1     O     0.90366   0.85382   0.57143   0.01267  Uiso   1.00
O2     O     0.40366   0.14618   0.42857   0.01267  Uiso   1.00
O3     O     0.65366   0.92857   0.35382   0.01267  Uiso   1.00
O4     O     0.15366   0.07143   0.64618   0.01267  Uiso   1.00
O5     O     0.84634   0.64618   0.07143   0.01267  Uiso   1.00
O6     O     0.34634   0.35382   0.92857   0.01267  Uiso   1.00
O7     O     0.09634   0.57143   0.85382   0.01267  Uiso   1.00
O8     O     0.59634   0.42857   0.14618   0.01267  Uiso   1.00
