data_CAWGAJ_clean
_audit_creation_date              2014-07-02
_audit_creation_method            'Materials Studio'
_symmetry_space_group_name_H-M    'P1'
_symmetry_Int_Tables_number       1
_symmetry_cell_setting            triclinic
loop_
_symmetry_equiv_pos_as_xyz
  x,y,z
_cell_length_a                    9.4630
_cell_length_b                    16.7534
_cell_length_c                    22.3836
_cell_angle_alpha                 90.0000
_cell_angle_beta                  90.0000
_cell_angle_gamma                 91.8990
loop_
_atom_site_label
_atom_site_type_symbol
_atom_site_fract_x
_atom_site_fract_y
_atom_site_fract_z
_atom_site_U_iso_or_equiv
_atom_site_adp_type
_atom_site_occupancy
U1     U     0.54298   0.13558   0.25189   0.01267  Uiso   1.00
U2     U     0.90573   0.26493   0.25392   0.01267  Uiso   1.00
U3     U     0.45702   0.36442   0.75189   0.01267  Uiso   1.00
U4     U     0.09427   0.23507   0.75392   0.01267  Uiso   1.00
U5     U     0.45702   0.86442   0.74811   0.01267  Uiso   1.00
U6     U     0.09427   0.73507   0.74608   0.01267  Uiso   1.00
U7     U     0.54298   0.63558   0.24811   0.01267  Uiso   1.00
U8     U     0.90573   0.76493   0.24608   0.01267  Uiso   1.00
Zn1    Zn    0.84113   0.00546   0.25405   0.01267  Uiso   1.00
Zn2    Zn    0.22604   0.94958   0.24631   0.01267  Uiso   1.00
Zn3    Zn    0.15887   0.49454   0.75405   0.01267  Uiso   1.00
Zn4    Zn    0.77396   0.55042   0.74631   0.01267  Uiso   1.00
Zn5    Zn    0.15887   0.99454   0.74595   0.01267  Uiso   1.00
Zn6    Zn    0.77396   0.05042   0.75369   0.01267  Uiso   1.00
Zn7    Zn    0.84113   0.50546   0.24595   0.01267  Uiso   1.00
Zn8    Zn    0.22604   0.44958   0.25369   0.01267  Uiso   1.00
H1     H     0.97450   0.09030   0.15030   0.01267  Uiso   1.00
H2     H     0.95290   0.10480   0.04900   0.01267  Uiso   1.00
H3     H     0.66440   0.93090   0.15340   0.01267  Uiso   1.00
H4     H     0.63090   0.94280   0.05290   0.01267  Uiso   1.00
H5     H     0.86020   0.14420   0.96430   0.01267  Uiso   1.00
H6     H     0.85440   0.15030   0.86260   0.01267  Uiso   1.00
H7     H     0.69020   0.92290   0.95470   0.01267  Uiso   1.00
H8     H     0.69510   0.93360   0.85320   0.01267  Uiso   1.00
H9     H     0.95200   0.11060   0.35430   0.01267  Uiso   1.00
H10    H     0.92720   0.13020   0.45490   0.01267  Uiso   1.00
H11    H     0.69660   0.92360   0.35890   0.01267  Uiso   1.00
H12    H     0.66650   0.93660   0.45970   0.01267  Uiso   1.00
H13    H     0.97510   0.09760   0.54870   0.01267  Uiso   1.00
H14    H     0.96030   0.10410   0.65070   0.01267  Uiso   1.00
H15    H     0.58490   0.99680   0.54710   0.01267  Uiso   1.00
H16    H     0.57970   0.00840   0.64860   0.01267  Uiso   1.00
H17    H     0.02550   0.40970   0.65030   0.01267  Uiso   1.00
H18    H     0.04710   0.39520   0.54900   0.01267  Uiso   1.00
H19    H     0.33560   0.56910   0.65340   0.01267  Uiso   1.00
H20    H     0.36910   0.55720   0.55290   0.01267  Uiso   1.00
H21    H     0.13980   0.35580   0.46430   0.01267  Uiso   1.00
H22    H     0.14560   0.34970   0.36260   0.01267  Uiso   1.00
H23    H     0.30980   0.57710   0.45470   0.01267  Uiso   1.00
H24    H     0.30490   0.56640   0.35320   0.01267  Uiso   1.00
H25    H     0.04800   0.38940   0.85430   0.01267  Uiso   1.00
H26    H     0.07280   0.36980   0.95490   0.01267  Uiso   1.00
H27    H     0.30340   0.57640   0.85890   0.01267  Uiso   1.00
H28    H     0.33350   0.56340   0.95970   0.01267  Uiso   1.00
H29    H     0.02490   0.40240   0.04870   0.01267  Uiso   1.00
H30    H     0.03970   0.39590   0.15070   0.01267  Uiso   1.00
H31    H     0.41510   0.50320   0.04710   0.01267  Uiso   1.00
H32    H     0.42030   0.49160   0.14860   0.01267  Uiso   1.00
H33    H     0.02550   0.90970   0.84970   0.01267  Uiso   1.00
H34    H     0.04710   0.89520   0.95100   0.01267  Uiso   1.00
H35    H     0.33560   0.06910   0.84660   0.01267  Uiso   1.00
H36    H     0.36910   0.05720   0.94710   0.01267  Uiso   1.00
H37    H     0.13980   0.85580   0.03570   0.01267  Uiso   1.00
H38    H     0.14560   0.84970   0.13740   0.01267  Uiso   1.00
H39    H     0.30980   0.07710   0.04530   0.01267  Uiso   1.00
H40    H     0.30490   0.06640   0.14680   0.01267  Uiso   1.00
H41    H     0.04800   0.88940   0.64570   0.01267  Uiso   1.00
H42    H     0.07280   0.86980   0.54510   0.01267  Uiso   1.00
H43    H     0.30340   0.07640   0.64110   0.01267  Uiso   1.00
H44    H     0.33350   0.06340   0.54030   0.01267  Uiso   1.00
H45    H     0.02490   0.90240   0.45130   0.01267  Uiso   1.00
H46    H     0.03970   0.89590   0.34930   0.01267  Uiso   1.00
H47    H     0.41510   0.00320   0.45290   0.01267  Uiso   1.00
H48    H     0.42030   0.99160   0.35140   0.01267  Uiso   1.00
H49    H     0.97450   0.59030   0.34970   0.01267  Uiso   1.00
H50    H     0.95290   0.60480   0.45100   0.01267  Uiso   1.00
H51    H     0.66440   0.43090   0.34660   0.01267  Uiso   1.00
H52    H     0.63090   0.44280   0.44710   0.01267  Uiso   1.00
H53    H     0.86020   0.64420   0.53570   0.01267  Uiso   1.00
H54    H     0.85440   0.65030   0.63740   0.01267  Uiso   1.00
H55    H     0.69020   0.42290   0.54530   0.01267  Uiso   1.00
H56    H     0.69510   0.43360   0.64680   0.01267  Uiso   1.00
H57    H     0.95200   0.61060   0.14570   0.01267  Uiso   1.00
H58    H     0.92720   0.63020   0.04510   0.01267  Uiso   1.00
H59    H     0.69660   0.42360   0.14110   0.01267  Uiso   1.00
H60    H     0.66650   0.43660   0.04030   0.01267  Uiso   1.00
H61    H     0.97510   0.59760   0.95130   0.01267  Uiso   1.00
H62    H     0.96030   0.60410   0.84930   0.01267  Uiso   1.00
H63    H     0.58490   0.49680   0.95290   0.01267  Uiso   1.00
H64    H     0.57970   0.50840   0.85140   0.01267  Uiso   1.00
C1     C     0.90540   0.06005   0.13020   0.01267  Uiso   1.00
C2     C     0.89300   0.06906   0.06937   0.01267  Uiso   1.00
C3     C     0.72250   0.96650   0.13198   0.01267  Uiso   1.00
C4     C     0.70250   0.97278   0.07165   0.01267  Uiso   1.00
C5     C     0.79010   0.02435   0.03843   0.01267  Uiso   1.00
C6     C     0.77900   0.03201   0.97239   0.01267  Uiso   1.00
C7     C     0.82610   0.10028   0.94264   0.01267  Uiso   1.00
C8     C     0.82290   0.10354   0.88143   0.01267  Uiso   1.00
C9     C     0.72660   0.96945   0.93698   0.01267  Uiso   1.00
C10    C     0.72860   0.97664   0.87599   0.01267  Uiso   1.00
C11    C     0.89360   0.07532   0.37587   0.01267  Uiso   1.00
C12    C     0.87970   0.08745   0.43638   0.01267  Uiso   1.00
C13    C     0.74400   0.96539   0.37863   0.01267  Uiso   1.00
C14    C     0.72500   0.97294   0.43921   0.01267  Uiso   1.00
C15    C     0.79360   0.03506   0.46968   0.01267  Uiso   1.00
C16    C     0.78240   0.04456   0.53543   0.01267  Uiso   1.00
C17    C     0.89420   0.07798   0.56809   0.01267  Uiso   1.00
C18    C     0.88420   0.08189   0.62942   0.01267  Uiso   1.00
C19    C     0.66300   0.01865   0.56719   0.01267  Uiso   1.00
C20    C     0.66090   0.02541   0.62818   0.01267  Uiso   1.00
C21    C     0.09460   0.43995   0.63020   0.01267  Uiso   1.00
C22    C     0.10700   0.43094   0.56937   0.01267  Uiso   1.00
C23    C     0.27750   0.53350   0.63198   0.01267  Uiso   1.00
C24    C     0.29750   0.52722   0.57165   0.01267  Uiso   1.00
C25    C     0.20990   0.47565   0.53843   0.01267  Uiso   1.00
C26    C     0.22100   0.46799   0.47239   0.01267  Uiso   1.00
C27    C     0.17390   0.39972   0.44264   0.01267  Uiso   1.00
C28    C     0.17710   0.39646   0.38143   0.01267  Uiso   1.00
C29    C     0.27340   0.53055   0.43698   0.01267  Uiso   1.00
C30    C     0.27140   0.52336   0.37599   0.01267  Uiso   1.00
C31    C     0.10640   0.42468   0.87587   0.01267  Uiso   1.00
C32    C     0.12030   0.41255   0.93638   0.01267  Uiso   1.00
C33    C     0.25600   0.53461   0.87863   0.01267  Uiso   1.00
C34    C     0.27500   0.52706   0.93921   0.01267  Uiso   1.00
C35    C     0.20640   0.46494   0.96968   0.01267  Uiso   1.00
C36    C     0.21760   0.45544   0.03543   0.01267  Uiso   1.00
C37    C     0.10580   0.42202   0.06809   0.01267  Uiso   1.00
C38    C     0.11580   0.41811   0.12942   0.01267  Uiso   1.00
C39    C     0.33700   0.48135   0.06719   0.01267  Uiso   1.00
C40    C     0.33910   0.47459   0.12818   0.01267  Uiso   1.00
C41    C     0.09460   0.93995   0.86980   0.01267  Uiso   1.00
C42    C     0.10700   0.93094   0.93063   0.01267  Uiso   1.00
C43    C     0.27750   0.03350   0.86802   0.01267  Uiso   1.00
C44    C     0.29750   0.02722   0.92835   0.01267  Uiso   1.00
C45    C     0.20990   0.97565   0.96157   0.01267  Uiso   1.00
C46    C     0.22100   0.96799   0.02761   0.01267  Uiso   1.00
C47    C     0.17390   0.89972   0.05736   0.01267  Uiso   1.00
C48    C     0.17710   0.89646   0.11857   0.01267  Uiso   1.00
C49    C     0.27340   0.03055   0.06302   0.01267  Uiso   1.00
C50    C     0.27140   0.02336   0.12401   0.01267  Uiso   1.00
C51    C     0.10640   0.92468   0.62413   0.01267  Uiso   1.00
C52    C     0.12030   0.91255   0.56362   0.01267  Uiso   1.00
C53    C     0.25600   0.03461   0.62137   0.01267  Uiso   1.00
C54    C     0.27500   0.02706   0.56079   0.01267  Uiso   1.00
C55    C     0.20640   0.96494   0.53032   0.01267  Uiso   1.00
C56    C     0.21760   0.95544   0.46457   0.01267  Uiso   1.00
C57    C     0.10580   0.92202   0.43191   0.01267  Uiso   1.00
C58    C     0.11580   0.91811   0.37058   0.01267  Uiso   1.00
C59    C     0.33700   0.98135   0.43281   0.01267  Uiso   1.00
C60    C     0.33910   0.97459   0.37182   0.01267  Uiso   1.00
C61    C     0.90540   0.56005   0.36980   0.01267  Uiso   1.00
C62    C     0.89300   0.56906   0.43063   0.01267  Uiso   1.00
C63    C     0.72250   0.46650   0.36802   0.01267  Uiso   1.00
C64    C     0.70250   0.47278   0.42835   0.01267  Uiso   1.00
C65    C     0.79010   0.52435   0.46157   0.01267  Uiso   1.00
C66    C     0.77900   0.53201   0.52761   0.01267  Uiso   1.00
C67    C     0.82610   0.60028   0.55736   0.01267  Uiso   1.00
C68    C     0.82290   0.60354   0.61857   0.01267  Uiso   1.00
C69    C     0.72660   0.46945   0.56302   0.01267  Uiso   1.00
C70    C     0.72860   0.47664   0.62401   0.01267  Uiso   1.00
C71    C     0.89360   0.57532   0.12413   0.01267  Uiso   1.00
C72    C     0.87970   0.58745   0.06362   0.01267  Uiso   1.00
C73    C     0.74400   0.46539   0.12137   0.01267  Uiso   1.00
C74    C     0.72500   0.47294   0.06079   0.01267  Uiso   1.00
C75    C     0.79360   0.53506   0.03032   0.01267  Uiso   1.00
C76    C     0.78240   0.54456   0.96457   0.01267  Uiso   1.00
C77    C     0.89420   0.57798   0.93191   0.01267  Uiso   1.00
C78    C     0.88420   0.58189   0.87058   0.01267  Uiso   1.00
C79    C     0.66300   0.51865   0.93281   0.01267  Uiso   1.00
C80    C     0.66090   0.52541   0.87182   0.01267  Uiso   1.00
N1     N     0.82200   0.00943   0.16172   0.01267  Uiso   1.00
N2     N     0.77630   0.04236   0.84763   0.01267  Uiso   1.00
N3     N     0.82750   0.01542   0.34654   0.01267  Uiso   1.00
N4     N     0.77080   0.05542   0.65988   0.01267  Uiso   1.00
N5     N     0.17800   0.49057   0.66172   0.01267  Uiso   1.00
N6     N     0.22370   0.45764   0.34763   0.01267  Uiso   1.00
N7     N     0.17250   0.48458   0.84654   0.01267  Uiso   1.00
N8     N     0.22920   0.44458   0.15988   0.01267  Uiso   1.00
N9     N     0.17800   0.99057   0.83828   0.01267  Uiso   1.00
N10    N     0.22370   0.95764   0.15237   0.01267  Uiso   1.00
N11    N     0.17250   0.98458   0.65346   0.01267  Uiso   1.00
N12    N     0.22920   0.94458   0.34012   0.01267  Uiso   1.00
N13    N     0.82200   0.50943   0.33828   0.01267  Uiso   1.00
N14    N     0.77630   0.54236   0.65237   0.01267  Uiso   1.00
N15    N     0.82750   0.51542   0.15346   0.01267  Uiso   1.00
N16    N     0.77080   0.55542   0.84012   0.01267  Uiso   1.00
F1     F     0.66016   0.25826   0.24943   0.01267  Uiso   1.00
F2     F     0.34523   0.05660   0.25125   0.01267  Uiso   1.00
F3     F     0.61807   0.00711   0.25616   0.01267  Uiso   1.00
F4     F     0.80602   0.13317   0.25452   0.01267  Uiso   1.00
F5     F     0.37049   0.22418   0.24765   0.01267  Uiso   1.00
F6     F     0.10487   0.34305   0.25561   0.01267  Uiso   1.00
F7     F     0.82802   0.38775   0.24166   0.01267  Uiso   1.00
F8     F     0.05136   0.02158   0.25234   0.01267  Uiso   1.00
F9     F     0.33984   0.24174   0.74943   0.01267  Uiso   1.00
F10    F     0.65477   0.44340   0.75125   0.01267  Uiso   1.00
F11    F     0.38193   0.49289   0.75616   0.01267  Uiso   1.00
F12    F     0.19398   0.36683   0.75452   0.01267  Uiso   1.00
F13    F     0.62951   0.27582   0.74765   0.01267  Uiso   1.00
F14    F     0.89513   0.15695   0.75561   0.01267  Uiso   1.00
F15    F     0.17198   0.11225   0.74166   0.01267  Uiso   1.00
F16    F     0.94864   0.47842   0.75234   0.01267  Uiso   1.00
F17    F     0.33984   0.74174   0.75057   0.01267  Uiso   1.00
F18    F     0.65477   0.94340   0.74875   0.01267  Uiso   1.00
F19    F     0.38193   0.99289   0.74384   0.01267  Uiso   1.00
F20    F     0.19398   0.86683   0.74548   0.01267  Uiso   1.00
F21    F     0.62951   0.77582   0.75235   0.01267  Uiso   1.00
F22    F     0.89513   0.65695   0.74439   0.01267  Uiso   1.00
F23    F     0.17198   0.61225   0.75834   0.01267  Uiso   1.00
F24    F     0.94864   0.97842   0.74766   0.01267  Uiso   1.00
F25    F     0.66016   0.75826   0.25057   0.01267  Uiso   1.00
F26    F     0.34523   0.55660   0.24875   0.01267  Uiso   1.00
F27    F     0.61807   0.50711   0.24384   0.01267  Uiso   1.00
F28    F     0.80602   0.63317   0.24548   0.01267  Uiso   1.00
F29    F     0.37049   0.72418   0.25235   0.01267  Uiso   1.00
F30    F     0.10487   0.84305   0.24439   0.01267  Uiso   1.00
F31    F     0.82802   0.88775   0.25834   0.01267  Uiso   1.00
F32    F     0.05136   0.52158   0.24766   0.01267  Uiso   1.00
