data_CAXPIC_clean
_audit_creation_date              2014-07-02
_audit_creation_method            'Materials Studio'
_symmetry_space_group_name_H-M    'P1'
_symmetry_Int_Tables_number       1
_symmetry_cell_setting            triclinic
loop_
_symmetry_equiv_pos_as_xyz
  x,y,z
_cell_length_a                    9.2020
_cell_length_b                    11.0880
_cell_length_c                    11.9920
_cell_angle_alpha                 108.5800
_cell_angle_beta                  91.4000
_cell_angle_gamma                 104.7100
loop_
_atom_site_label
_atom_site_type_symbol
_atom_site_fract_x
_atom_site_fract_y
_atom_site_fract_z
_atom_site_U_iso_or_equiv
_atom_site_adp_type
_atom_site_occupancy
Co1    Co    0.15461   0.26731   0.38008   0.01267  Uiso   1.00
Co2    Co    0.08090   0.70040   0.83640   0.01267  Uiso   1.00
Co3    Co    0.84539   0.73269   0.61992   0.01267  Uiso   1.00
Co4    Co    0.91910   0.29960   0.16360   0.01267  Uiso   1.00
Co5    Co    0.50000   0.50000   0.50000   0.01267  Uiso   1.00
H1     H     0.80830   0.97020   0.43990   0.01267  Uiso   1.00
H2     H     0.55210   0.04740   0.21340   0.01267  Uiso   1.00
H3     H     0.36380   0.79560   0.37700   0.01267  Uiso   1.00
H4     H     0.84810   0.49500   0.88980   0.01267  Uiso   1.00
H5     H     0.46950   0.26920   0.96300   0.01267  Uiso   1.00
H6     H     0.43830   0.47120   0.74300   0.01267  Uiso   1.00
H7     H     0.64510   0.31660   0.29720   0.01267  Uiso   1.00
H8     H     0.03170   0.58450   0.40350   0.01267  Uiso   1.00
H9     H     0.19170   0.02980   0.56010   0.01267  Uiso   1.00
H10    H     0.44790   0.95260   0.78660   0.01267  Uiso   1.00
H11    H     0.63620   0.20440   0.62300   0.01267  Uiso   1.00
H12    H     0.15190   0.50500   0.11020   0.01267  Uiso   1.00
H13    H     0.53050   0.73080   0.03700   0.01267  Uiso   1.00
H14    H     0.56170   0.52880   0.25700   0.01267  Uiso   1.00
H15    H     0.35490   0.68340   0.70280   0.01267  Uiso   1.00
H16    H     0.96830   0.41550   0.59650   0.01267  Uiso   1.00
C1     C     0.61520   0.78430   0.48920   0.01267  Uiso   1.00
C2     C     0.58940   0.86490   0.41720   0.01267  Uiso   1.00
C3     C     0.71370   0.95540   0.40060   0.01267  Uiso   1.00
C4     C     0.69620   0.02440   0.32450   0.01267  Uiso   1.00
C5     C     0.56050   0.00760   0.26990   0.01267  Uiso   1.00
C6     C     0.43420   0.93160   0.29720   0.01267  Uiso   1.00
C7     C     0.44910   0.85470   0.36560   0.01267  Uiso   1.00
C8     C     0.83710   0.11050   0.29500   0.01267  Uiso   1.00
C9     C     0.71790   0.59240   0.74410   0.01267  Uiso   1.00
C10    C     0.64960   0.50340   0.81160   0.01267  Uiso   1.00
C11    C     0.74320   0.46510   0.88300   0.01267  Uiso   1.00
C12    C     0.67240   0.38260   0.94120   0.01267  Uiso   1.00
C13    C     0.51520   0.32880   0.92610   0.01267  Uiso   1.00
C14    C     0.42930   0.36810   0.85330   0.01267  Uiso   1.00
C15    C     0.49700   0.45070   0.79480   0.01267  Uiso   1.00
C16    C     0.75970   0.33970   0.02160   0.01267  Uiso   1.00
C17    C     0.71990   0.39380   0.33850   0.01267  Uiso   1.00
C18    C     0.93040   0.53850   0.39700   0.01267  Uiso   1.00
C19    C     0.38480   0.21570   0.51080   0.01267  Uiso   1.00
C20    C     0.41060   0.13510   0.58280   0.01267  Uiso   1.00
C21    C     0.28630   0.04460   0.59940   0.01267  Uiso   1.00
C22    C     0.30380   0.97560   0.67550   0.01267  Uiso   1.00
C23    C     0.43950   0.99240   0.73010   0.01267  Uiso   1.00
C24    C     0.56580   0.06840   0.70280   0.01267  Uiso   1.00
C25    C     0.55090   0.14530   0.63440   0.01267  Uiso   1.00
C26    C     0.16290   0.88950   0.70500   0.01267  Uiso   1.00
C27    C     0.28210   0.40760   0.25590   0.01267  Uiso   1.00
C28    C     0.35040   0.49660   0.18840   0.01267  Uiso   1.00
C29    C     0.25680   0.53490   0.11700   0.01267  Uiso   1.00
C30    C     0.32760   0.61740   0.05880   0.01267  Uiso   1.00
C31    C     0.48480   0.67120   0.07390   0.01267  Uiso   1.00
C32    C     0.57070   0.63190   0.14670   0.01267  Uiso   1.00
C33    C     0.50300   0.54930   0.20520   0.01267  Uiso   1.00
C34    C     0.24030   0.66030   0.97840   0.01267  Uiso   1.00
C35    C     0.28010   0.60620   0.66150   0.01267  Uiso   1.00
C36    C     0.06960   0.46150   0.60300   0.01267  Uiso   1.00
N1     N     0.83770   0.57820   0.47040   0.01267  Uiso   1.00
N2     N     0.70080   0.48350   0.42730   0.01267  Uiso   1.00
N3     N     0.86440   0.42390   0.31050   0.01267  Uiso   1.00
N4     N     0.28130   0.91750   0.24530   0.01267  Uiso   1.00
N5     N     0.26500   0.31010   0.83500   0.01267  Uiso   1.00
N6     N     0.16230   0.42180   0.52960   0.01267  Uiso   1.00
N7     N     0.29920   0.51650   0.57270   0.01267  Uiso   1.00
N8     N     0.13560   0.57610   0.68950   0.01267  Uiso   1.00
N9     N     0.71870   0.08250   0.75470   0.01267  Uiso   1.00
N10    N     0.73500   0.68990   0.16500   0.01267  Uiso   1.00
O1     O     0.95090   0.15630   0.37480   0.01267  Uiso   1.00
O2     O     0.72870   0.82620   0.56230   0.01267  Uiso   1.00
O3     O     0.64080   0.60980   0.66890   0.01267  Uiso   1.00
O4     O     0.85990   0.65510   0.76070   0.01267  Uiso   1.00
O5     O     0.51340   0.67780   0.47010   0.01267  Uiso   1.00
O6     O     0.82970   0.13790   0.20620   0.01267  Uiso   1.00
O7     O     0.90340   0.38400   0.03730   0.01267  Uiso   1.00
O8     O     0.69410   0.27230   0.07620   0.01267  Uiso   1.00
O9     O     0.27500   0.98450   0.18610   0.01267  Uiso   1.00
O10    O     0.17510   0.84090   0.26450   0.01267  Uiso   1.00
O11    O     0.21020   0.24360   0.89100   0.01267  Uiso   1.00
O12    O     0.19730   0.34110   0.77010   0.01267  Uiso   1.00
O13    O     0.04910   0.84370   0.62520   0.01267  Uiso   1.00
O14    O     0.27130   0.17380   0.43770   0.01267  Uiso   1.00
O15    O     0.35920   0.39020   0.33110   0.01267  Uiso   1.00
O16    O     0.14010   0.34490   0.23930   0.01267  Uiso   1.00
O17    O     0.48660   0.32220   0.52990   0.01267  Uiso   1.00
O18    O     0.17030   0.86210   0.79380   0.01267  Uiso   1.00
O19    O     0.09660   0.61600   0.96270   0.01267  Uiso   1.00
O20    O     0.30590   0.72770   0.92380   0.01267  Uiso   1.00
O21    O     0.72500   0.01550   0.81390   0.01267  Uiso   1.00
O22    O     0.82490   0.15910   0.73550   0.01267  Uiso   1.00
O23    O     0.78980   0.75640   0.10900   0.01267  Uiso   1.00
O24    O     0.80270   0.65890   0.22990   0.01267  Uiso   1.00
