data_image0
_cell_length_a       20.9357
_cell_length_b       20.9357
_cell_length_c       34.8126
_cell_angle_alpha    90
_cell_angle_beta     90
_cell_angle_gamma    120

_symmetry_space_group_name_H-M    "P 1"
_symmetry_int_tables_number       1

loop_
  _symmetry_equiv_pos_as_xyz
  'x, y, z'

loop_
  _atom_site_label
  _atom_site_occupancy
  _atom_site_fract_x
  _atom_site_fract_y
  _atom_site_fract_z
  _atom_site_thermal_displace_type
  _atom_site_B_iso_or_equiv
  _atom_site_type_symbol
  Al1      1.0000 0.27673  0.07328  0.51482  Biso   1.000  Al
  O1       1.0000 0.30910  0.10410  0.56894  Biso   1.000  O
  C1       1.0000 0.32460  0.10150  0.64753  Biso   1.000  C
  O2       1.0000 0.35413  0.05828  0.51150  Biso   1.000  O
  C2       1.0000 0.44070  0.94280  0.48560  Biso   1.000  C
  O3       1.0000 0.24980  0.02720  0.47231  Biso   1.000  O
  C3       1.0000 0.27990  0.06070  0.43830  Biso   1.000  C
  N1       1.0000 0.32927  0.04213  0.62283  Biso   1.000  N
  N2       1.0000 0.37140  0.87540  0.47120  Biso   1.000  N
  Al2      1.0000 0.94340  0.40661  0.84815  Biso   1.000  Al
  O4       1.0000 0.97577  0.43743  0.90227  Biso   1.000  O
  C4       1.0000 0.99127  0.43483  0.98086  Biso   1.000  C
  O5       1.0000 0.02080  0.39161  0.84483  Biso   1.000  O
  C5       1.0000 0.10737  0.27613  0.81893  Biso   1.000  C
  O6       1.0000 0.91647  0.36053  0.80564  Biso   1.000  O
  C6       1.0000 0.94657  0.39403  0.77163  Biso   1.000  C
  N3       1.0000 0.99594  0.37546  0.95616  Biso   1.000  N
  N4       1.0000 0.03807  0.20873  0.80453  Biso   1.000  N
  Al3      1.0000 0.61006  0.73995  0.18149  Biso   1.000  Al
  O7       1.0000 0.64243  0.77077  0.23561  Biso   1.000  O
  C7       1.0000 0.65793  0.76817  0.31420  Biso   1.000  C
  O8       1.0000 0.68746  0.72495  0.17817  Biso   1.000  O
  C8       1.0000 0.77403  0.60947  0.15227  Biso   1.000  C
  O9       1.0000 0.58313  0.69387  0.13898  Biso   1.000  O
  C9       1.0000 0.61323  0.72737  0.10497  Biso   1.000  C
  N5       1.0000 0.66260  0.70880  0.28950  Biso   1.000  N
  N6       1.0000 0.70473  0.54207  0.13787  Biso   1.000  N
  Al4      1.0000 0.92672  0.20345  0.51482  Biso   1.000  Al
  O10      1.0000 0.89590  0.20500  0.56894  Biso   1.000  O
  C10      1.0000 0.89850  0.22310  0.64753  Biso   1.000  C
  O11      1.0000 0.94172  0.29585  0.51150  Biso   1.000  O
  C11      1.0000 0.05720  0.49790  0.48560  Biso   1.000  C
  O12      1.0000 0.97280  0.22260  0.47231  Biso   1.000  O
  C12      1.0000 0.93930  0.21920  0.43830  Biso   1.000  C
  N7       1.0000 0.95787  0.28714  0.62283  Biso   1.000  N
  N8       1.0000 0.12460  0.49600  0.47120  Biso   1.000  N
  Al5      1.0000 0.59339  0.53678  0.84815  Biso   1.000  Al
  O13      1.0000 0.56257  0.53833  0.90227  Biso   1.000  O
  C13      1.0000 0.56517  0.55643  0.98086  Biso   1.000  C
  O14      1.0000 0.60839  0.62918  0.84483  Biso   1.000  O
  C14      1.0000 0.72387  0.83123  0.81893  Biso   1.000  C
  O15      1.0000 0.63947  0.55593  0.80564  Biso   1.000  O
  C15      1.0000 0.60597  0.55253  0.77163  Biso   1.000  C
  N9       1.0000 0.62454  0.62047  0.95616  Biso   1.000  N
  N10      1.0000 0.79127  0.82933  0.80453  Biso   1.000  N
  Al6      1.0000 0.26005  0.87012  0.18149  Biso   1.000  Al
  O16      1.0000 0.22923  0.87167  0.23561  Biso   1.000  O
  C16      1.0000 0.23183  0.88977  0.31420  Biso   1.000  C
  O17      1.0000 0.27505  0.96252  0.17817  Biso   1.000  O
  C17      1.0000 0.39053  0.16457  0.15227  Biso   1.000  C
  O18      1.0000 0.30613  0.88927  0.13898  Biso   1.000  O
  C18      1.0000 0.27263  0.88587  0.10497  Biso   1.000  C
  N11      1.0000 0.29120  0.95381  0.28950  Biso   1.000  N
  N12      1.0000 0.45793  0.16267  0.13787  Biso   1.000  N
  Al7      1.0000 0.79655  0.72327  0.51482  Biso   1.000  Al
  O19      1.0000 0.79500  0.69090  0.56894  Biso   1.000  O
  C19      1.0000 0.77690  0.67540  0.64753  Biso   1.000  C
  O20      1.0000 0.70415  0.64587  0.51150  Biso   1.000  O
  C20      1.0000 0.50210  0.55930  0.48560  Biso   1.000  C
  O21      1.0000 0.77740  0.75020  0.47231  Biso   1.000  O
  C21      1.0000 0.78080  0.72010  0.43830  Biso   1.000  C
  N13      1.0000 0.71286  0.67073  0.62283  Biso   1.000  N
  N14      1.0000 0.50400  0.62860  0.47120  Biso   1.000  N
  Al8      1.0000 0.46322  0.05660  0.84815  Biso   1.000  Al
  O22      1.0000 0.46167  0.02423  0.90227  Biso   1.000  O
  C22      1.0000 0.44357  0.00873  0.98086  Biso   1.000  C
  O23      1.0000 0.37082  0.97920  0.84483  Biso   1.000  O
  C23      1.0000 0.16877  0.89263  0.81893  Biso   1.000  C
  O24      1.0000 0.44407  0.08353  0.80564  Biso   1.000  O
  C24      1.0000 0.44747  0.05343  0.77163  Biso   1.000  C
  N15      1.0000 0.37953  0.00406  0.95616  Biso   1.000  N
  N16      1.0000 0.17067  0.96193  0.80453  Biso   1.000  N
  Al9      1.0000 0.12988  0.38994  0.18149  Biso   1.000  Al
  O25      1.0000 0.12833  0.35757  0.23561  Biso   1.000  O
  C25      1.0000 0.11023  0.34207  0.31420  Biso   1.000  C
  O26      1.0000 0.03748  0.31254  0.17817  Biso   1.000  O
  C26      1.0000 0.83543  0.22597  0.15227  Biso   1.000  C
  O27      1.0000 0.11073  0.41687  0.13898  Biso   1.000  O
  C27      1.0000 0.11413  0.38677  0.10497  Biso   1.000  C
  N17      1.0000 0.04619  0.33740  0.28950  Biso   1.000  N
  N18      1.0000 0.83733  0.29527  0.13787  Biso   1.000  N
  Al10     1.0000 0.07328  0.27673  0.48518  Biso   1.000  Al
  O28      1.0000 0.10410  0.30910  0.43106  Biso   1.000  O
  C28      1.0000 0.10150  0.32460  0.35247  Biso   1.000  C
  O29      1.0000 0.05828  0.35413  0.48850  Biso   1.000  O
  C29      1.0000 0.94280  0.44070  0.51440  Biso   1.000  C
  O30      1.0000 0.02720  0.24980  0.52769  Biso   1.000  O
  C30      1.0000 0.06070  0.27990  0.56170  Biso   1.000  C
  N19      1.0000 0.04213  0.32927  0.37717  Biso   1.000  N
  N20      1.0000 0.87540  0.37140  0.52880  Biso   1.000  N
  Al11     1.0000 0.73995  0.61006  0.81851  Biso   1.000  Al
  O31      1.0000 0.77077  0.64243  0.76439  Biso   1.000  O
  C31      1.0000 0.76817  0.65793  0.68580  Biso   1.000  C
  O32      1.0000 0.72495  0.68746  0.82183  Biso   1.000  O
  C32      1.0000 0.60947  0.77403  0.84773  Biso   1.000  C
  O33      1.0000 0.69387  0.58313  0.86102  Biso   1.000  O
  C33      1.0000 0.72737  0.61323  0.89503  Biso   1.000  C
  N21      1.0000 0.70880  0.66260  0.71050  Biso   1.000  N
  N22      1.0000 0.54207  0.70473  0.86213  Biso   1.000  N
  Al12     1.0000 0.40661  0.94340  0.15185  Biso   1.000  Al
  O34      1.0000 0.43743  0.97577  0.09773  Biso   1.000  O
  C34      1.0000 0.43483  0.99127  0.01914  Biso   1.000  C
  O35      1.0000 0.39161  0.02080  0.15517  Biso   1.000  O
  C35      1.0000 0.27613  0.10737  0.18107  Biso   1.000  C
  O36      1.0000 0.36053  0.91647  0.19436  Biso   1.000  O
  C36      1.0000 0.39403  0.94657  0.22837  Biso   1.000  C
  N23      1.0000 0.37546  0.99594  0.04384  Biso   1.000  N
  N24      1.0000 0.20873  0.03807  0.19547  Biso   1.000  N
  Al13     1.0000 0.20345  0.92672  0.48518  Biso   1.000  Al
  O37      1.0000 0.20500  0.89590  0.43106  Biso   1.000  O
  C37      1.0000 0.22310  0.89850  0.35247  Biso   1.000  C
  O38      1.0000 0.29585  0.94172  0.48850  Biso   1.000  O
  C38      1.0000 0.49790  0.05720  0.51440  Biso   1.000  C
  O39      1.0000 0.22260  0.97280  0.52769  Biso   1.000  O
  C39      1.0000 0.21920  0.93930  0.56170  Biso   1.000  C
  N25      1.0000 0.28714  0.95787  0.37717  Biso   1.000  N
  N26      1.0000 0.49600  0.12460  0.52880  Biso   1.000  N
  Al14     1.0000 0.87012  0.26005  0.81851  Biso   1.000  Al
  O40      1.0000 0.87167  0.22923  0.76439  Biso   1.000  O
  C40      1.0000 0.88977  0.23183  0.68580  Biso   1.000  C
  O41      1.0000 0.96252  0.27505  0.82183  Biso   1.000  O
  C41      1.0000 0.16457  0.39053  0.84773  Biso   1.000  C
  O42      1.0000 0.88927  0.30613  0.86102  Biso   1.000  O
  C42      1.0000 0.88587  0.27263  0.89503  Biso   1.000  C
  N27      1.0000 0.95381  0.29120  0.71050  Biso   1.000  N
  N28      1.0000 0.16267  0.45793  0.86213  Biso   1.000  N
  Al15     1.0000 0.53678  0.59339  0.15185  Biso   1.000  Al
  O43      1.0000 0.53833  0.56257  0.09773  Biso   1.000  O
  C43      1.0000 0.55643  0.56517  0.01914  Biso   1.000  C
  O44      1.0000 0.62918  0.60839  0.15517  Biso   1.000  O
  C44      1.0000 0.83123  0.72387  0.18107  Biso   1.000  C
  O45      1.0000 0.55593  0.63947  0.19436  Biso   1.000  O
  C45      1.0000 0.55253  0.60597  0.22837  Biso   1.000  C
  N29      1.0000 0.62047  0.62454  0.04384  Biso   1.000  N
  N30      1.0000 0.82933  0.79127  0.19547  Biso   1.000  N
  Al16     1.0000 0.72327  0.79655  0.48518  Biso   1.000  Al
  O46      1.0000 0.69090  0.79500  0.43106  Biso   1.000  O
  C46      1.0000 0.67540  0.77690  0.35247  Biso   1.000  C
  O47      1.0000 0.64587  0.70415  0.48850  Biso   1.000  O
  C47      1.0000 0.55930  0.50210  0.51440  Biso   1.000  C
  O48      1.0000 0.75020  0.77740  0.52769  Biso   1.000  O
  C48      1.0000 0.72010  0.78080  0.56170  Biso   1.000  C
  N31      1.0000 0.67073  0.71286  0.37717  Biso   1.000  N
  N32      1.0000 0.62860  0.50400  0.52880  Biso   1.000  N
  Al17     1.0000 0.38994  0.12988  0.81851  Biso   1.000  Al
  O49      1.0000 0.35757  0.12833  0.76439  Biso   1.000  O
  C49      1.0000 0.34207  0.11023  0.68580  Biso   1.000  C
  O50      1.0000 0.31254  0.03748  0.82183  Biso   1.000  O
  C50      1.0000 0.22597  0.83543  0.84773  Biso   1.000  C
  O51      1.0000 0.41687  0.11073  0.86102  Biso   1.000  O
  C51      1.0000 0.38677  0.11413  0.89503  Biso   1.000  C
  N33      1.0000 0.33740  0.04619  0.71050  Biso   1.000  N
  N34      1.0000 0.29527  0.83733  0.86213  Biso   1.000  N
  Al18     1.0000 0.05660  0.46322  0.15185  Biso   1.000  Al
  O52      1.0000 0.02423  0.46167  0.09773  Biso   1.000  O
  C52      1.0000 0.00873  0.44357  0.01914  Biso   1.000  C
  O53      1.0000 0.97920  0.37082  0.15517  Biso   1.000  O
  C53      1.0000 0.89263  0.16877  0.18107  Biso   1.000  C
  O54      1.0000 0.08353  0.44407  0.19436  Biso   1.000  O
  C54      1.0000 0.05343  0.44747  0.22837  Biso   1.000  C
  N35      1.0000 0.00406  0.37953  0.04384  Biso   1.000  N
  N36      1.0000 0.96193  0.17067  0.19547  Biso   1.000  N
  Al19     1.0000 0.72327  0.92672  0.48518  Biso   1.000  Al
  O55      1.0000 0.69090  0.89590  0.43106  Biso   1.000  O
  C55      1.0000 0.67540  0.89850  0.35247  Biso   1.000  C
  O56      1.0000 0.64587  0.94172  0.48850  Biso   1.000  O
  C56      1.0000 0.55930  0.05720  0.51440  Biso   1.000  C
  O57      1.0000 0.75020  0.97280  0.52769  Biso   1.000  O
  C57      1.0000 0.72010  0.93930  0.56170  Biso   1.000  C
  N37      1.0000 0.67073  0.95787  0.37717  Biso   1.000  N
  N38      1.0000 0.62860  0.12460  0.52880  Biso   1.000  N
  Al20     1.0000 0.38994  0.26005  0.81851  Biso   1.000  Al
  O58      1.0000 0.35757  0.22923  0.76439  Biso   1.000  O
  C58      1.0000 0.34207  0.23183  0.68580  Biso   1.000  C
  O59      1.0000 0.31254  0.27505  0.82183  Biso   1.000  O
  C59      1.0000 0.22597  0.39053  0.84773  Biso   1.000  C
  O60      1.0000 0.41687  0.30613  0.86102  Biso   1.000  O
  C60      1.0000 0.38677  0.27263  0.89503  Biso   1.000  C
  N39      1.0000 0.33740  0.29120  0.71050  Biso   1.000  N
  N40      1.0000 0.29527  0.45793  0.86213  Biso   1.000  N
  Al21     1.0000 0.05660  0.59339  0.15185  Biso   1.000  Al
  O61      1.0000 0.02423  0.56257  0.09773  Biso   1.000  O
  C61      1.0000 0.00873  0.56517  0.01914  Biso   1.000  C
  O62      1.0000 0.97920  0.60839  0.15517  Biso   1.000  O
  C62      1.0000 0.89263  0.72387  0.18107  Biso   1.000  C
  O63      1.0000 0.08353  0.63947  0.19436  Biso   1.000  O
  C63      1.0000 0.05343  0.60597  0.22837  Biso   1.000  C
  N41      1.0000 0.00406  0.62454  0.04384  Biso   1.000  N
  N42      1.0000 0.96193  0.79127  0.19547  Biso   1.000  N
  Al22     1.0000 0.07328  0.79655  0.48518  Biso   1.000  Al
  O64      1.0000 0.10410  0.79500  0.43106  Biso   1.000  O
  C64      1.0000 0.10150  0.77690  0.35247  Biso   1.000  C
  O65      1.0000 0.05828  0.70415  0.48850  Biso   1.000  O
  C65      1.0000 0.94280  0.50210  0.51440  Biso   1.000  C
  O66      1.0000 0.02720  0.77740  0.52769  Biso   1.000  O
  C66      1.0000 0.06070  0.78080  0.56170  Biso   1.000  C
  N43      1.0000 0.04213  0.71286  0.37717  Biso   1.000  N
  N44      1.0000 0.87540  0.50400  0.52880  Biso   1.000  N
  Al23     1.0000 0.73995  0.12988  0.81851  Biso   1.000  Al
  O67      1.0000 0.77077  0.12833  0.76439  Biso   1.000  O
  C67      1.0000 0.76817  0.11023  0.68580  Biso   1.000  C
  O68      1.0000 0.72495  0.03748  0.82183  Biso   1.000  O
  C68      1.0000 0.60947  0.83543  0.84773  Biso   1.000  C
  O69      1.0000 0.69387  0.11073  0.86102  Biso   1.000  O
  C69      1.0000 0.72737  0.11413  0.89503  Biso   1.000  C
  N45      1.0000 0.70880  0.04619  0.71050  Biso   1.000  N
  N46      1.0000 0.54207  0.83733  0.86213  Biso   1.000  N
  Al24     1.0000 0.40661  0.46322  0.15185  Biso   1.000  Al
  O70      1.0000 0.43743  0.46167  0.09773  Biso   1.000  O
  C70      1.0000 0.43483  0.44357  0.01914  Biso   1.000  C
  O71      1.0000 0.39161  0.37082  0.15517  Biso   1.000  O
  C71      1.0000 0.27613  0.16877  0.18107  Biso   1.000  C
  O72      1.0000 0.36053  0.44407  0.19436  Biso   1.000  O
  C72      1.0000 0.39403  0.44747  0.22837  Biso   1.000  C
  N47      1.0000 0.37546  0.37953  0.04384  Biso   1.000  N
  N48      1.0000 0.20873  0.17067  0.19547  Biso   1.000  N
  Al25     1.0000 0.20345  0.27673  0.48518  Biso   1.000  Al
  O73      1.0000 0.20500  0.30910  0.43106  Biso   1.000  O
  C73      1.0000 0.22310  0.32460  0.35247  Biso   1.000  C
  O74      1.0000 0.29585  0.35413  0.48850  Biso   1.000  O
  C74      1.0000 0.49790  0.44070  0.51440  Biso   1.000  C
  O75      1.0000 0.22260  0.24980  0.52769  Biso   1.000  O
  C75      1.0000 0.21920  0.27990  0.56170  Biso   1.000  C
  N49      1.0000 0.28714  0.32927  0.37717  Biso   1.000  N
  N50      1.0000 0.49600  0.37140  0.52880  Biso   1.000  N
  Al26     1.0000 0.87012  0.61006  0.81851  Biso   1.000  Al
  O76      1.0000 0.87167  0.64243  0.76439  Biso   1.000  O
  C76      1.0000 0.88977  0.65793  0.68580  Biso   1.000  C
  O77      1.0000 0.96252  0.68746  0.82183  Biso   1.000  O
  C77      1.0000 0.16457  0.77403  0.84773  Biso   1.000  C
  O78      1.0000 0.88927  0.58313  0.86102  Biso   1.000  O
  C78      1.0000 0.88587  0.61323  0.89503  Biso   1.000  C
  N51      1.0000 0.95381  0.66260  0.71050  Biso   1.000  N
  N52      1.0000 0.16267  0.70473  0.86213  Biso   1.000  N
  Al27     1.0000 0.53678  0.94340  0.15185  Biso   1.000  Al
  O79      1.0000 0.53833  0.97577  0.09773  Biso   1.000  O
  C79      1.0000 0.55643  0.99127  0.01914  Biso   1.000  C
  O80      1.0000 0.62918  0.02080  0.15517  Biso   1.000  O
  C80      1.0000 0.83123  0.10737  0.18107  Biso   1.000  C
  O81      1.0000 0.55593  0.91647  0.19436  Biso   1.000  O
  C81      1.0000 0.55253  0.94657  0.22837  Biso   1.000  C
  N53      1.0000 0.62047  0.99594  0.04384  Biso   1.000  N
  N54      1.0000 0.82933  0.03807  0.19547  Biso   1.000  N
  Al28     1.0000 0.92672  0.72327  0.51482  Biso   1.000  Al
  O82      1.0000 0.89590  0.69090  0.56894  Biso   1.000  O
  C82      1.0000 0.89850  0.67540  0.64753  Biso   1.000  C
  O83      1.0000 0.94172  0.64587  0.51150  Biso   1.000  O
  C83      1.0000 0.05720  0.55930  0.48560  Biso   1.000  C
  O84      1.0000 0.97280  0.75020  0.47231  Biso   1.000  O
  C84      1.0000 0.93930  0.72010  0.43830  Biso   1.000  C
  N55      1.0000 0.95787  0.67073  0.62283  Biso   1.000  N
  N56      1.0000 0.12460  0.62860  0.47120  Biso   1.000  N
  Al29     1.0000 0.59339  0.05660  0.84815  Biso   1.000  Al
  O85      1.0000 0.56257  0.02423  0.90227  Biso   1.000  O
  C85      1.0000 0.56517  0.00873  0.98086  Biso   1.000  C
  O86      1.0000 0.60839  0.97920  0.84483  Biso   1.000  O
  C86      1.0000 0.72387  0.89263  0.81893  Biso   1.000  C
  O87      1.0000 0.63947  0.08353  0.80564  Biso   1.000  O
  C87      1.0000 0.60597  0.05343  0.77163  Biso   1.000  C
  N57      1.0000 0.62454  0.00406  0.95616  Biso   1.000  N
  N58      1.0000 0.79127  0.96193  0.80453  Biso   1.000  N
  Al30     1.0000 0.26005  0.38994  0.18149  Biso   1.000  Al
  O88      1.0000 0.22923  0.35757  0.23561  Biso   1.000  O
  C88      1.0000 0.23183  0.34207  0.31420  Biso   1.000  C
  O89      1.0000 0.27505  0.31254  0.17817  Biso   1.000  O
  C89      1.0000 0.39053  0.22597  0.15227  Biso   1.000  C
  O90      1.0000 0.30613  0.41687  0.13898  Biso   1.000  O
  C90      1.0000 0.27263  0.38677  0.10497  Biso   1.000  C
  N59      1.0000 0.29120  0.33740  0.28950  Biso   1.000  N
  N60      1.0000 0.45793  0.29527  0.13787  Biso   1.000  N
  Al31     1.0000 0.79655  0.07328  0.51482  Biso   1.000  Al
  O91      1.0000 0.79500  0.10410  0.56894  Biso   1.000  O
  C91      1.0000 0.77690  0.10150  0.64753  Biso   1.000  C
  O92      1.0000 0.70415  0.05828  0.51150  Biso   1.000  O
  C92      1.0000 0.50210  0.94280  0.48560  Biso   1.000  C
  O93      1.0000 0.77740  0.02720  0.47231  Biso   1.000  O
  C93      1.0000 0.78080  0.06070  0.43830  Biso   1.000  C
  N61      1.0000 0.71286  0.04213  0.62283  Biso   1.000  N
  N62      1.0000 0.50400  0.87540  0.47120  Biso   1.000  N
  Al32     1.0000 0.46322  0.40661  0.84815  Biso   1.000  Al
  O94      1.0000 0.46167  0.43743  0.90227  Biso   1.000  O
  C94      1.0000 0.44357  0.43483  0.98086  Biso   1.000  C
  O95      1.0000 0.37082  0.39161  0.84483  Biso   1.000  O
  C95      1.0000 0.16877  0.27613  0.81893  Biso   1.000  C
  O96      1.0000 0.44407  0.36053  0.80564  Biso   1.000  O
  C96      1.0000 0.44747  0.39403  0.77163  Biso   1.000  C
  N63      1.0000 0.37953  0.37546  0.95616  Biso   1.000  N
  N64      1.0000 0.17067  0.20873  0.80453  Biso   1.000  N
  Al33     1.0000 0.12988  0.73995  0.18149  Biso   1.000  Al
  O97      1.0000 0.12833  0.77077  0.23561  Biso   1.000  O
  C97      1.0000 0.11023  0.76817  0.31420  Biso   1.000  C
  O98      1.0000 0.03748  0.72495  0.17817  Biso   1.000  O
  C98      1.0000 0.83543  0.60947  0.15227  Biso   1.000  C
  O99      1.0000 0.11073  0.69387  0.13898  Biso   1.000  O
  C99      1.0000 0.11413  0.72737  0.10497  Biso   1.000  C
  N65      1.0000 0.04619  0.70880  0.28950  Biso   1.000  N
  N66      1.0000 0.83733  0.54207  0.13787  Biso   1.000  N
  Al34     1.0000 0.27673  0.20345  0.51482  Biso   1.000  Al
  O100     1.0000 0.30910  0.20500  0.56894  Biso   1.000  O
  C100     1.0000 0.32460  0.22310  0.64753  Biso   1.000  C
  O101     1.0000 0.35413  0.29585  0.51150  Biso   1.000  O
  C101     1.0000 0.44070  0.49790  0.48560  Biso   1.000  C
  O102     1.0000 0.24980  0.22260  0.47231  Biso   1.000  O
  C102     1.0000 0.27990  0.21920  0.43830  Biso   1.000  C
  N67      1.0000 0.32927  0.28714  0.62283  Biso   1.000  N
  N68      1.0000 0.37140  0.49600  0.47120  Biso   1.000  N
  Al35     1.0000 0.94340  0.53678  0.84815  Biso   1.000  Al
  O103     1.0000 0.97577  0.53833  0.90227  Biso   1.000  O
  C103     1.0000 0.99127  0.55643  0.98086  Biso   1.000  C
  O104     1.0000 0.02080  0.62918  0.84483  Biso   1.000  O
  C104     1.0000 0.10737  0.83123  0.81893  Biso   1.000  C
  O105     1.0000 0.91647  0.55593  0.80564  Biso   1.000  O
  C105     1.0000 0.94657  0.55253  0.77163  Biso   1.000  C
  N69      1.0000 0.99594  0.62047  0.95616  Biso   1.000  N
  N70      1.0000 0.03807  0.82933  0.80453  Biso   1.000  N
  Al36     1.0000 0.61006  0.87012  0.18149  Biso   1.000  Al
  O106     1.0000 0.64243  0.87167  0.23561  Biso   1.000  O
  C106     1.0000 0.65793  0.88977  0.31420  Biso   1.000  C
  O107     1.0000 0.68746  0.96252  0.17817  Biso   1.000  O
  C107     1.0000 0.77403  0.16457  0.15227  Biso   1.000  C
  O108     1.0000 0.58313  0.88927  0.13898  Biso   1.000  O
  C108     1.0000 0.61323  0.88587  0.10497  Biso   1.000  C
  N71      1.0000 0.66260  0.95381  0.28950  Biso   1.000  N
  N72      1.0000 0.70473  0.16267  0.13787  Biso   1.000  N
  C109     1.0000 0.31580  0.15790  0.58680  Biso   1.000  C
  C110     1.0000 0.33190  0.16595  0.63200  Biso   1.000  C
  O109     1.0000 0.33150  0.16575  0.50190  Biso   1.000  O
  C111     1.0000 0.38640  0.19320  0.47730  Biso   1.000  C
  O110     1.0000 0.19670  0.09835  0.52002  Biso   1.000  O
  C112     1.0000 0.98247  0.49123  0.92013  Biso   1.000  C
  C113     1.0000 0.99857  0.49928  0.96533  Biso   1.000  C
  O111     1.0000 0.99817  0.49908  0.83523  Biso   1.000  O
  C114     1.0000 0.05307  0.52653  0.81063  Biso   1.000  C
  O112     1.0000 0.86337  0.43168  0.85335  Biso   1.000  O
  C115     1.0000 0.64913  0.82457  0.25347  Biso   1.000  C
  C116     1.0000 0.66523  0.83262  0.29867  Biso   1.000  C
  O113     1.0000 0.66483  0.83242  0.16857  Biso   1.000  O
  C117     1.0000 0.71973  0.85987  0.14397  Biso   1.000  C
  O114     1.0000 0.53003  0.76502  0.18669  Biso   1.000  O
  C118     1.0000 0.84210  0.15790  0.58680  Biso   1.000  C
  C119     1.0000 0.83405  0.16595  0.63200  Biso   1.000  C
  O115     1.0000 0.83425  0.16575  0.50190  Biso   1.000  O
  C120     1.0000 0.80680  0.19320  0.47730  Biso   1.000  C
  O116     1.0000 0.90165  0.09835  0.52002  Biso   1.000  O
  C121     1.0000 0.50877  0.49123  0.92013  Biso   1.000  C
  C122     1.0000 0.50072  0.49928  0.96533  Biso   1.000  C
  O117     1.0000 0.50092  0.49908  0.83523  Biso   1.000  O
  C123     1.0000 0.47347  0.52653  0.81063  Biso   1.000  C
  O118     1.0000 0.56832  0.43168  0.85335  Biso   1.000  O
  C124     1.0000 0.17543  0.82457  0.25347  Biso   1.000  C
  C125     1.0000 0.16738  0.83262  0.29867  Biso   1.000  C
  O119     1.0000 0.16758  0.83242  0.16857  Biso   1.000  O
  C126     1.0000 0.14013  0.85987  0.14397  Biso   1.000  C
  O120     1.0000 0.23498  0.76502  0.18669  Biso   1.000  O
  C127     1.0000 0.84210  0.68420  0.58680  Biso   1.000  C
  C128     1.0000 0.83405  0.66810  0.63200  Biso   1.000  C
  O121     1.0000 0.83425  0.66850  0.50190  Biso   1.000  O
  C129     1.0000 0.80680  0.61360  0.47730  Biso   1.000  C
  O122     1.0000 0.90165  0.80330  0.52002  Biso   1.000  O
  C130     1.0000 0.50877  0.01753  0.92013  Biso   1.000  C
  C131     1.0000 0.50072  0.00143  0.96533  Biso   1.000  C
  O123     1.0000 0.50092  0.00183  0.83523  Biso   1.000  O
  C132     1.0000 0.47347  0.94693  0.81063  Biso   1.000  C
  O124     1.0000 0.56832  0.13663  0.85335  Biso   1.000  O
  C133     1.0000 0.17543  0.35087  0.25347  Biso   1.000  C
  C134     1.0000 0.16738  0.33477  0.29867  Biso   1.000  C
  O125     1.0000 0.16758  0.33517  0.16857  Biso   1.000  O
  C135     1.0000 0.14013  0.28027  0.14397  Biso   1.000  C
  O126     1.0000 0.23498  0.46997  0.18669  Biso   1.000  O
  C136     1.0000 0.15790  0.31580  0.41320  Biso   1.000  C
  C137     1.0000 0.16595  0.33190  0.36800  Biso   1.000  C
  O127     1.0000 0.16575  0.33150  0.49810  Biso   1.000  O
  C138     1.0000 0.19320  0.38640  0.52270  Biso   1.000  C
  O128     1.0000 0.09835  0.19670  0.47998  Biso   1.000  O
  C139     1.0000 0.82457  0.64913  0.74653  Biso   1.000  C
  C140     1.0000 0.83262  0.66523  0.70133  Biso   1.000  C
  O129     1.0000 0.83242  0.66483  0.83143  Biso   1.000  O
  C141     1.0000 0.85987  0.71973  0.85603  Biso   1.000  C
  O130     1.0000 0.76502  0.53003  0.81331  Biso   1.000  O
  C142     1.0000 0.49123  0.98247  0.07987  Biso   1.000  C
  C143     1.0000 0.49928  0.99857  0.03467  Biso   1.000  C
  O131     1.0000 0.49908  0.99817  0.16477  Biso   1.000  O
  C144     1.0000 0.52653  0.05307  0.18937  Biso   1.000  C
  O132     1.0000 0.43168  0.86337  0.14665  Biso   1.000  O
  C145     1.0000 0.15790  0.84210  0.41320  Biso   1.000  C
  C146     1.0000 0.16595  0.83405  0.36800  Biso   1.000  C
  O133     1.0000 0.16575  0.83425  0.49810  Biso   1.000  O
  C147     1.0000 0.19320  0.80680  0.52270  Biso   1.000  C
  O134     1.0000 0.09835  0.90165  0.47998  Biso   1.000  O
  C148     1.0000 0.82457  0.17543  0.74653  Biso   1.000  C
  C149     1.0000 0.83262  0.16738  0.70133  Biso   1.000  C
  O135     1.0000 0.83242  0.16758  0.83143  Biso   1.000  O
  C150     1.0000 0.85987  0.14013  0.85603  Biso   1.000  C
  O136     1.0000 0.76502  0.23498  0.81331  Biso   1.000  O
  C151     1.0000 0.49123  0.50877  0.07987  Biso   1.000  C
  C152     1.0000 0.49928  0.50072  0.03467  Biso   1.000  C
  O137     1.0000 0.49908  0.50092  0.16477  Biso   1.000  O
  C153     1.0000 0.52653  0.47347  0.18937  Biso   1.000  C
  O138     1.0000 0.43168  0.56832  0.14665  Biso   1.000  O
  C154     1.0000 0.68420  0.84210  0.41320  Biso   1.000  C
  C155     1.0000 0.66810  0.83405  0.36800  Biso   1.000  C
  O139     1.0000 0.66850  0.83425  0.49810  Biso   1.000  O
  C156     1.0000 0.61360  0.80680  0.52270  Biso   1.000  C
  O140     1.0000 0.80330  0.90165  0.47998  Biso   1.000  O
  C157     1.0000 0.35087  0.17543  0.74653  Biso   1.000  C
  C158     1.0000 0.33477  0.16738  0.70133  Biso   1.000  C
  O141     1.0000 0.33517  0.16758  0.83143  Biso   1.000  O
  C159     1.0000 0.28027  0.14013  0.85603  Biso   1.000  C
  O142     1.0000 0.46997  0.23498  0.81331  Biso   1.000  O
  C160     1.0000 0.01753  0.50877  0.07987  Biso   1.000  C
  C161     1.0000 0.00143  0.50072  0.03467  Biso   1.000  C
  O143     1.0000 0.00183  0.50092  0.16477  Biso   1.000  O
  C162     1.0000 0.94693  0.47347  0.18937  Biso   1.000  C
  O144     1.0000 0.13663  0.56832  0.14665  Biso   1.000  O
  C163     1.0000 0.36440  0.00000  0.50000  Biso   1.000  C
  C164     1.0000 0.43750  0.00000  0.50000  Biso   1.000  C
  C165     1.0000 0.03107  0.33333  0.83333  Biso   1.000  C
  C166     1.0000 0.10417  0.33333  0.83333  Biso   1.000  C
  C167     1.0000 0.69773  0.66667  0.16667  Biso   1.000  C
  C168     1.0000 0.77083  0.66667  0.16667  Biso   1.000  C
  C169     1.0000 0.00000  0.36440  0.50000  Biso   1.000  C
  C170     1.0000 0.00000  0.43750  0.50000  Biso   1.000  C
  C171     1.0000 0.66667  0.69773  0.83333  Biso   1.000  C
  C172     1.0000 0.66667  0.77083  0.83333  Biso   1.000  C
  C173     1.0000 0.33333  0.03107  0.16667  Biso   1.000  C
  C174     1.0000 0.33333  0.10417  0.16667  Biso   1.000  C
  C175     1.0000 0.63560  0.63560  0.50000  Biso   1.000  C
  C176     1.0000 0.56250  0.56250  0.50000  Biso   1.000  C
  C177     1.0000 0.30227  0.96893  0.83333  Biso   1.000  C
  C178     1.0000 0.22917  0.89583  0.83333  Biso   1.000  C
  C179     1.0000 0.96893  0.30227  0.16667  Biso   1.000  C
  C180     1.0000 0.89583  0.22917  0.16667  Biso   1.000  C
  C181     1.0000 0.63560  0.00000  0.50000  Biso   1.000  C
  C182     1.0000 0.56250  0.00000  0.50000  Biso   1.000  C
  C183     1.0000 0.30227  0.33333  0.83333  Biso   1.000  C
  C184     1.0000 0.22917  0.33333  0.83333  Biso   1.000  C
  C185     1.0000 0.96893  0.66667  0.16667  Biso   1.000  C
  C186     1.0000 0.89583  0.66667  0.16667  Biso   1.000  C
  C187     1.0000 0.00000  0.63560  0.50000  Biso   1.000  C
  C188     1.0000 0.00000  0.56250  0.50000  Biso   1.000  C
  C189     1.0000 0.66667  0.96893  0.83333  Biso   1.000  C
  C190     1.0000 0.66667  0.89583  0.83333  Biso   1.000  C
  C191     1.0000 0.33333  0.30227  0.16667  Biso   1.000  C
  C192     1.0000 0.33333  0.22917  0.16667  Biso   1.000  C
  C193     1.0000 0.36440  0.36440  0.50000  Biso   1.000  C
  C194     1.0000 0.43750  0.43750  0.50000  Biso   1.000  C
  C195     1.0000 0.03107  0.69773  0.83333  Biso   1.000  C
  C196     1.0000 0.10417  0.77083  0.83333  Biso   1.000  C
  C197     1.0000 0.69773  0.03107  0.16667  Biso   1.000  C
  C198     1.0000 0.77083  0.10417  0.16667  Biso   1.000  C
