data_CAXVII_clean
_audit_creation_date              2014-07-02
_audit_creation_method            'Materials Studio'
_symmetry_space_group_name_H-M    'P1'
_symmetry_Int_Tables_number       1
_symmetry_cell_setting            triclinic
loop_
_symmetry_equiv_pos_as_xyz
  x,y,z
_cell_length_a                    6.8945
_cell_length_b                    15.2403
_cell_length_c                    15.2403
_cell_angle_alpha                 62.2321
_cell_angle_beta                  81.3270
_cell_angle_gamma                 98.6730
loop_
_atom_site_label
_atom_site_type_symbol
_atom_site_fract_x
_atom_site_fract_y
_atom_site_fract_z
_atom_site_U_iso_or_equiv
_atom_site_adp_type
_atom_site_occupancy
Fe1    Fe    0.88900   0.67920   0.58740   0.01267  Uiso   1.00
Fe2    Fe    0.47640   0.58740   0.73340   0.01267  Uiso   1.00
Fe3    Fe    0.20980   0.73340   0.67920   0.01267  Uiso   1.00
Fe4    Fe    0.11100   0.32080   0.41260   0.01267  Uiso   1.00
Fe5    Fe    0.52360   0.41260   0.26660   0.01267  Uiso   1.00
Fe6    Fe    0.79020   0.26660   0.32080   0.01267  Uiso   1.00
H1     H     0.65830   0.03070   0.53780   0.01267  Uiso   1.00
H2     H     0.19610   0.53780   0.43150   0.01267  Uiso   1.00
H3     H     0.62760   0.43150   0.03070   0.01267  Uiso   1.00
H4     H     0.34170   0.96930   0.46220   0.01267  Uiso   1.00
H5     H     0.80390   0.46220   0.56850   0.01267  Uiso   1.00
H6     H     0.37240   0.56850   0.96930   0.01267  Uiso   1.00
C1     C     0.62860   0.82920   0.61740   0.01267  Uiso   1.00
C2     C     0.83810   0.91060   0.55120   0.01267  Uiso   1.00
C3     C     0.04580   0.90080   0.53540   0.01267  Uiso   1.00
C4     C     0.79760   0.00330   0.52750   0.01267  Uiso   1.00
C5     C     0.24600   0.61740   0.55340   0.01267  Uiso   1.00
C6     C     0.38930   0.55120   0.53820   0.01267  Uiso   1.00
C7     C     0.58120   0.53540   0.56380   0.01267  Uiso   1.00
C8     C     0.32510   0.52750   0.46920   0.01267  Uiso   1.00
C9     C     0.79940   0.55340   0.82920   0.01267  Uiso   1.00
C10    C     0.92750   0.53820   0.91060   0.01267  Uiso   1.00
C11    C     0.14500   0.56380   0.90080   0.01267  Uiso   1.00
C12    C     0.79430   0.46920   0.00330   0.01267  Uiso   1.00
C13    C     0.37140   0.17080   0.38260   0.01267  Uiso   1.00
C14    C     0.16190   0.08940   0.44880   0.01267  Uiso   1.00
C15    C     0.95420   0.09920   0.46460   0.01267  Uiso   1.00
C16    C     0.20240   0.99670   0.47250   0.01267  Uiso   1.00
C17    C     0.75400   0.38260   0.44660   0.01267  Uiso   1.00
C18    C     0.61070   0.44880   0.46180   0.01267  Uiso   1.00
C19    C     0.41880   0.46460   0.43620   0.01267  Uiso   1.00
C20    C     0.67490   0.47250   0.53080   0.01267  Uiso   1.00
C21    C     0.20060   0.44660   0.17080   0.01267  Uiso   1.00
C22    C     0.07250   0.46180   0.08940   0.01267  Uiso   1.00
C23    C     0.85500   0.43620   0.09920   0.01267  Uiso   1.00
C24    C     0.20570   0.53080   0.99670   0.01267  Uiso   1.00
O1     O     0.66800   0.74850   0.64650   0.01267  Uiso   1.00
O2     O     0.47360   0.84480   0.62400   0.01267  Uiso   1.00
O3     O     0.07700   0.81700   0.55600   0.01267  Uiso   1.00
O4     O     0.31450   0.64650   0.60500   0.01267  Uiso   1.00
O5     O     0.09760   0.62400   0.53120   0.01267  Uiso   1.00
O6     O     0.63300   0.55600   0.62700   0.01267  Uiso   1.00
O7     O     0.91950   0.60500   0.74850   0.01267  Uiso   1.00
O8     O     0.62880   0.53120   0.84480   0.01267  Uiso   1.00
O9     O     0.26000   0.62700   0.81700   0.01267  Uiso   1.00
O10    O     0.33200   0.25150   0.35350   0.01267  Uiso   1.00
O11    O     0.52640   0.15520   0.37600   0.01267  Uiso   1.00
O12    O     0.92300   0.18300   0.44400   0.01267  Uiso   1.00
O13    O     0.68550   0.35350   0.39500   0.01267  Uiso   1.00
O14    O     0.90240   0.37600   0.46880   0.01267  Uiso   1.00
O15    O     0.36700   0.44400   0.37300   0.01267  Uiso   1.00
O16    O     0.08050   0.39500   0.25150   0.01267  Uiso   1.00
O17    O     0.37120   0.46880   0.15520   0.01267  Uiso   1.00
O18    O     0.74000   0.37300   0.18300   0.01267  Uiso   1.00
