data_CAXXEG_clean
_audit_creation_date              2014-07-02
_audit_creation_method            'Materials Studio'
_symmetry_space_group_name_H-M    'P1'
_symmetry_Int_Tables_number       1
_symmetry_cell_setting            triclinic
loop_
_symmetry_equiv_pos_as_xyz
  x,y,z
_cell_length_a                    13.0989
_cell_length_b                    18.4444
_cell_length_c                    22.0504
_cell_angle_alpha                 90.0000
_cell_angle_beta                  103.2020
_cell_angle_gamma                 90.0000
loop_
_atom_site_label
_atom_site_type_symbol
_atom_site_fract_x
_atom_site_fract_y
_atom_site_fract_z
_atom_site_U_iso_or_equiv
_atom_site_adp_type
_atom_site_occupancy
Ni1    Ni    0.71587   0.78274   0.87511   0.01267  Uiso   1.00
Ni2    Ni    0.61261   0.14078   0.12878   0.01267  Uiso   1.00
Ni3    Ni    0.51467   0.73154   0.78426   0.01267  Uiso   1.00
Ni4    Ni    0.98916   0.38942   0.73287   0.01267  Uiso   1.00
Ni5    Ni    0.78413   0.28274   0.62489   0.01267  Uiso   1.00
Ni6    Ni    0.88739   0.64078   0.37122   0.01267  Uiso   1.00
Ni7    Ni    0.98533   0.23154   0.71574   0.01267  Uiso   1.00
Ni8    Ni    0.51084   0.88942   0.76713   0.01267  Uiso   1.00
Ni9    Ni    0.28413   0.21726   0.12489   0.01267  Uiso   1.00
Ni10   Ni    0.38739   0.85922   0.87122   0.01267  Uiso   1.00
Ni11   Ni    0.48533   0.26846   0.21574   0.01267  Uiso   1.00
Ni12   Ni    0.01084   0.61058   0.26713   0.01267  Uiso   1.00
Ni13   Ni    0.21587   0.71726   0.37511   0.01267  Uiso   1.00
Ni14   Ni    0.11261   0.35922   0.62878   0.01267  Uiso   1.00
Ni15   Ni    0.01467   0.76846   0.28426   0.01267  Uiso   1.00
Ni16   Ni    0.48916   0.11058   0.23287   0.01267  Uiso   1.00
H1     H     0.99700   0.50120   0.82800   0.01267  Uiso   1.00
H2     H     0.90660   0.59840   0.85480   0.01267  Uiso   1.00
H3     H     0.66310   0.54210   0.71470   0.01267  Uiso   1.00
H4     H     0.76430   0.44940   0.68940   0.01267  Uiso   1.00
H5     H     0.81140   0.81870   0.33040   0.01267  Uiso   1.00
H6     H     0.68700   0.90970   0.30730   0.01267  Uiso   1.00
H7     H     0.85280   0.99640   0.19180   0.01267  Uiso   1.00
H8     H     0.97430   0.90470   0.21880   0.01267  Uiso   1.00
H9     H     0.50470   0.12640   0.98720   0.01267  Uiso   1.00
H10    H     0.49870   0.04430   0.90630   0.01267  Uiso   1.00
H11    H     0.76040   0.95060   0.00930   0.01267  Uiso   1.00
H12    H     0.75780   0.03480   0.08660   0.01267  Uiso   1.00
H13    H     0.88620   0.67670   0.94560   0.01267  Uiso   1.00
H14    H     0.96060   0.64090   0.04690   0.01267  Uiso   1.00
H15    H     0.79720   0.79690   0.10960   0.01267  Uiso   1.00
H16    H     0.70860   0.81890   0.00760   0.01267  Uiso   1.00
H17    H     0.82570   0.78440   0.76810   0.01267  Uiso   1.00
H18    H     0.99000   0.78800   0.74600   0.01267  Uiso   1.00
H19    H     0.10380   0.85050   0.92260   0.01267  Uiso   1.00
H20    H     0.93490   0.85780   0.93650   0.01267  Uiso   1.00
H21    H     0.63600   0.19100   0.23400   0.01267  Uiso   1.00
H22    H     0.65100   0.81000   0.77100   0.01267  Uiso   1.00
H23    H     0.50300   0.00120   0.67200   0.01267  Uiso   1.00
H24    H     0.59340   0.09840   0.64520   0.01267  Uiso   1.00
H25    H     0.83690   0.04210   0.78530   0.01267  Uiso   1.00
H26    H     0.73570   0.94940   0.81060   0.01267  Uiso   1.00
H27    H     0.68860   0.31870   0.16960   0.01267  Uiso   1.00
H28    H     0.81300   0.40970   0.19270   0.01267  Uiso   1.00
H29    H     0.64720   0.49640   0.30820   0.01267  Uiso   1.00
H30    H     0.52570   0.40470   0.28120   0.01267  Uiso   1.00
H31    H     0.99530   0.62640   0.51280   0.01267  Uiso   1.00
H32    H     0.00130   0.54430   0.59370   0.01267  Uiso   1.00
H33    H     0.73960   0.45060   0.49070   0.01267  Uiso   1.00
H34    H     0.74220   0.53480   0.41340   0.01267  Uiso   1.00
H35    H     0.61380   0.17670   0.55440   0.01267  Uiso   1.00
H36    H     0.53940   0.14090   0.45310   0.01267  Uiso   1.00
H37    H     0.70280   0.29690   0.39040   0.01267  Uiso   1.00
H38    H     0.79140   0.31890   0.49240   0.01267  Uiso   1.00
H39    H     0.67430   0.28440   0.73190   0.01267  Uiso   1.00
H40    H     0.51000   0.28800   0.75400   0.01267  Uiso   1.00
H41    H     0.39620   0.35050   0.57740   0.01267  Uiso   1.00
H42    H     0.56510   0.35780   0.56350   0.01267  Uiso   1.00
H43    H     0.86400   0.69100   0.26600   0.01267  Uiso   1.00
H44    H     0.84900   0.31000   0.72900   0.01267  Uiso   1.00
H45    H     0.00300   0.49880   0.17200   0.01267  Uiso   1.00
H46    H     0.09340   0.40160   0.14520   0.01267  Uiso   1.00
H47    H     0.33690   0.45790   0.28530   0.01267  Uiso   1.00
H48    H     0.23570   0.55060   0.31060   0.01267  Uiso   1.00
H49    H     0.18860   0.18130   0.66960   0.01267  Uiso   1.00
H50    H     0.31300   0.09030   0.69270   0.01267  Uiso   1.00
H51    H     0.14720   0.00360   0.80820   0.01267  Uiso   1.00
H52    H     0.02570   0.09530   0.78120   0.01267  Uiso   1.00
H53    H     0.49530   0.87360   0.01280   0.01267  Uiso   1.00
H54    H     0.50130   0.95570   0.09370   0.01267  Uiso   1.00
H55    H     0.23960   0.04940   0.99070   0.01267  Uiso   1.00
H56    H     0.24220   0.96520   0.91340   0.01267  Uiso   1.00
H57    H     0.11380   0.32330   0.05440   0.01267  Uiso   1.00
H58    H     0.03940   0.35910   0.95310   0.01267  Uiso   1.00
H59    H     0.20280   0.20310   0.89040   0.01267  Uiso   1.00
H60    H     0.29140   0.18110   0.99240   0.01267  Uiso   1.00
H61    H     0.17430   0.21560   0.23190   0.01267  Uiso   1.00
H62    H     0.01000   0.21200   0.25400   0.01267  Uiso   1.00
H63    H     0.89620   0.14950   0.07740   0.01267  Uiso   1.00
H64    H     0.06510   0.14220   0.06350   0.01267  Uiso   1.00
H65    H     0.36400   0.80900   0.76600   0.01267  Uiso   1.00
H66    H     0.34900   0.19000   0.22900   0.01267  Uiso   1.00
H67    H     0.49700   0.99880   0.32800   0.01267  Uiso   1.00
H68    H     0.40660   0.90160   0.35480   0.01267  Uiso   1.00
H69    H     0.16310   0.95790   0.21470   0.01267  Uiso   1.00
H70    H     0.26430   0.05060   0.18940   0.01267  Uiso   1.00
H71    H     0.31140   0.68130   0.83040   0.01267  Uiso   1.00
H72    H     0.18700   0.59030   0.80730   0.01267  Uiso   1.00
H73    H     0.35280   0.50360   0.69180   0.01267  Uiso   1.00
H74    H     0.47430   0.59530   0.71880   0.01267  Uiso   1.00
H75    H     0.00470   0.37360   0.48720   0.01267  Uiso   1.00
H76    H     0.99870   0.45570   0.40630   0.01267  Uiso   1.00
H77    H     0.26040   0.54940   0.50930   0.01267  Uiso   1.00
H78    H     0.25780   0.46520   0.58660   0.01267  Uiso   1.00
H79    H     0.38620   0.82330   0.44560   0.01267  Uiso   1.00
H80    H     0.46060   0.85910   0.54690   0.01267  Uiso   1.00
H81    H     0.29720   0.70310   0.60960   0.01267  Uiso   1.00
H82    H     0.20860   0.68110   0.50760   0.01267  Uiso   1.00
H83    H     0.32570   0.71560   0.26810   0.01267  Uiso   1.00
H84    H     0.49000   0.71200   0.24600   0.01267  Uiso   1.00
H85    H     0.60380   0.64950   0.42260   0.01267  Uiso   1.00
H86    H     0.43490   0.64220   0.43650   0.01267  Uiso   1.00
H87    H     0.13600   0.30900   0.73400   0.01267  Uiso   1.00
H88    H     0.15100   0.69000   0.27100   0.01267  Uiso   1.00
C1     C     0.92860   0.51090   0.80380   0.01267  Uiso   1.00
C2     C     0.87500   0.56860   0.82053   0.01267  Uiso   1.00
C3     C     0.77430   0.58280   0.78676   0.01267  Uiso   1.00
C4     C     0.73310   0.53580   0.73805   0.01267  Uiso   1.00
C5     C     0.79340   0.48010   0.72360   0.01267  Uiso   1.00
C6     C     0.71300   0.64610   0.80290   0.01267  Uiso   1.00
C7     C     0.81990   0.85540   0.30166   0.01267  Uiso   1.00
C8     C     0.74460   0.90910   0.28783   0.01267  Uiso   1.00
C9     C     0.75460   0.96230   0.24488   0.01267  Uiso   1.00
C10    C     0.84230   0.95990   0.22030   0.01267  Uiso   1.00
C11    C     0.91460   0.90520   0.23650   0.01267  Uiso   1.00
C12    C     0.67420   0.02180   0.22380   0.01267  Uiso   1.00
C13    C     0.55550   0.08870   0.99256   0.01267  Uiso   1.00
C14    C     0.55090   0.03990   0.94384   0.01267  Uiso   1.00
C15    C     0.62490   0.98430   0.95153   0.01267  Uiso   1.00
C16    C     0.70470   0.98470   0.00437   0.01267  Uiso   1.00
C17    C     0.70260   0.03550   0.05020   0.01267  Uiso   1.00
C18    C     0.61610   0.92400   0.90514   0.01267  Uiso   1.00
C19    C     0.86600   0.70060   0.97920   0.01267  Uiso   1.00
C20    C     0.91420   0.68120   0.03990   0.01267  Uiso   1.00
C21    C     0.81620   0.77110   0.07660   0.01267  Uiso   1.00
C22    C     0.76470   0.78510   0.01560   0.01267  Uiso   1.00
C23    C     0.89620   0.71890   0.08971   0.01267  Uiso   1.00
C24    C     0.94940   0.70540   0.15691   0.01267  Uiso   1.00
C25    C     0.51760   0.72980   0.92249   0.01267  Uiso   1.00
C26    C     0.53150   0.66640   0.96790   0.01267  Uiso   1.00
C27    C     0.57340   0.59940   0.94490   0.01267  Uiso   1.00
C28    C     0.88200   0.79950   0.80090   0.01267  Uiso   1.00
C29    C     0.98200   0.79990   0.78660   0.01267  Uiso   1.00
C30    C     0.06620   0.81780   0.83280   0.01267  Uiso   1.00
C31    C     0.04700   0.83790   0.88920   0.01267  Uiso   1.00
C32    C     0.94440   0.83970   0.89780   0.01267  Uiso   1.00
C33    C     0.17700   0.81220   0.82280   0.01267  Uiso   1.00
C34    C     0.57140   0.01090   0.69620   0.01267  Uiso   1.00
C35    C     0.62500   0.06860   0.67947   0.01267  Uiso   1.00
C36    C     0.72570   0.08280   0.71324   0.01267  Uiso   1.00
C37    C     0.76690   0.03580   0.76195   0.01267  Uiso   1.00
C38    C     0.70660   0.98010   0.77640   0.01267  Uiso   1.00
C39    C     0.78700   0.14610   0.69710   0.01267  Uiso   1.00
C40    C     0.68010   0.35540   0.19834   0.01267  Uiso   1.00
C41    C     0.75540   0.40910   0.21217   0.01267  Uiso   1.00
C42    C     0.74540   0.46230   0.25512   0.01267  Uiso   1.00
C43    C     0.65770   0.45990   0.27970   0.01267  Uiso   1.00
C44    C     0.58540   0.40520   0.26350   0.01267  Uiso   1.00
C45    C     0.82580   0.52180   0.27620   0.01267  Uiso   1.00
C46    C     0.94450   0.58870   0.50744   0.01267  Uiso   1.00
C47    C     0.94910   0.53990   0.55616   0.01267  Uiso   1.00
C48    C     0.87510   0.48430   0.54847   0.01267  Uiso   1.00
C49    C     0.79530   0.48470   0.49563   0.01267  Uiso   1.00
C50    C     0.79740   0.53550   0.44980   0.01267  Uiso   1.00
C51    C     0.88390   0.42400   0.59486   0.01267  Uiso   1.00
C52    C     0.63400   0.20060   0.52080   0.01267  Uiso   1.00
C53    C     0.58580   0.18120   0.46010   0.01267  Uiso   1.00
C54    C     0.68380   0.27110   0.42340   0.01267  Uiso   1.00
C55    C     0.73530   0.28510   0.48440   0.01267  Uiso   1.00
C56    C     0.60380   0.21890   0.41029   0.01267  Uiso   1.00
C57    C     0.55060   0.20540   0.34309   0.01267  Uiso   1.00
C58    C     0.98240   0.22980   0.57751   0.01267  Uiso   1.00
C59    C     0.96850   0.16640   0.53210   0.01267  Uiso   1.00
C60    C     0.92660   0.09940   0.55510   0.01267  Uiso   1.00
C61    C     0.61800   0.29950   0.69910   0.01267  Uiso   1.00
C62    C     0.51800   0.29990   0.71340   0.01267  Uiso   1.00
C63    C     0.43380   0.31780   0.66720   0.01267  Uiso   1.00
C64    C     0.45300   0.33790   0.61080   0.01267  Uiso   1.00
C65    C     0.55560   0.33970   0.60220   0.01267  Uiso   1.00
C66    C     0.32300   0.31220   0.67720   0.01267  Uiso   1.00
C67    C     0.07140   0.48910   0.19620   0.01267  Uiso   1.00
C68    C     0.12500   0.43140   0.17947   0.01267  Uiso   1.00
C69    C     0.22570   0.41720   0.21324   0.01267  Uiso   1.00
C70    C     0.26690   0.46420   0.26195   0.01267  Uiso   1.00
C71    C     0.20660   0.51990   0.27640   0.01267  Uiso   1.00
C72    C     0.28700   0.35390   0.19710   0.01267  Uiso   1.00
C73    C     0.18010   0.14460   0.69834   0.01267  Uiso   1.00
C74    C     0.25540   0.09090   0.71217   0.01267  Uiso   1.00
C75    C     0.24540   0.03770   0.75512   0.01267  Uiso   1.00
C76    C     0.15770   0.04010   0.77970   0.01267  Uiso   1.00
C77    C     0.08540   0.09480   0.76350   0.01267  Uiso   1.00
C78    C     0.32580   0.97820   0.77620   0.01267  Uiso   1.00
C79    C     0.44450   0.91130   0.00744   0.01267  Uiso   1.00
C80    C     0.44910   0.96010   0.05616   0.01267  Uiso   1.00
C81    C     0.37510   0.01570   0.04847   0.01267  Uiso   1.00
C82    C     0.29530   0.01530   0.99563   0.01267  Uiso   1.00
C83    C     0.29740   0.96450   0.94980   0.01267  Uiso   1.00
C84    C     0.38390   0.07600   0.09486   0.01267  Uiso   1.00
C85    C     0.13400   0.29940   0.02080   0.01267  Uiso   1.00
C86    C     0.08580   0.31880   0.96010   0.01267  Uiso   1.00
C87    C     0.18380   0.22890   0.92340   0.01267  Uiso   1.00
C88    C     0.23530   0.21490   0.98440   0.01267  Uiso   1.00
C89    C     0.10380   0.28110   0.91029   0.01267  Uiso   1.00
C90    C     0.05060   0.29460   0.84309   0.01267  Uiso   1.00
C91    C     0.48240   0.27020   0.07751   0.01267  Uiso   1.00
C92    C     0.46850   0.33360   0.03210   0.01267  Uiso   1.00
C93    C     0.42660   0.40060   0.05510   0.01267  Uiso   1.00
C94    C     0.11800   0.20050   0.19910   0.01267  Uiso   1.00
C95    C     0.01800   0.20010   0.21340   0.01267  Uiso   1.00
C96    C     0.93380   0.18220   0.16720   0.01267  Uiso   1.00
C97    C     0.95300   0.16210   0.11080   0.01267  Uiso   1.00
C98    C     0.05560   0.16030   0.10220   0.01267  Uiso   1.00
C99    C     0.82300   0.18780   0.17720   0.01267  Uiso   1.00
C100   C     0.42860   0.98910   0.30380   0.01267  Uiso   1.00
C101   C     0.37500   0.93140   0.32053   0.01267  Uiso   1.00
C102   C     0.27430   0.91720   0.28676   0.01267  Uiso   1.00
C103   C     0.23310   0.96420   0.23805   0.01267  Uiso   1.00
C104   C     0.29340   0.01990   0.22360   0.01267  Uiso   1.00
C105   C     0.21300   0.85390   0.30290   0.01267  Uiso   1.00
C106   C     0.31990   0.64460   0.80166   0.01267  Uiso   1.00
C107   C     0.24460   0.59090   0.78783   0.01267  Uiso   1.00
C108   C     0.25460   0.53770   0.74488   0.01267  Uiso   1.00
C109   C     0.34230   0.54010   0.72030   0.01267  Uiso   1.00
C110   C     0.41460   0.59480   0.73650   0.01267  Uiso   1.00
C111   C     0.17420   0.47820   0.72380   0.01267  Uiso   1.00
C112   C     0.05550   0.41130   0.49256   0.01267  Uiso   1.00
C113   C     0.05090   0.46010   0.44384   0.01267  Uiso   1.00
C114   C     0.12490   0.51570   0.45153   0.01267  Uiso   1.00
C115   C     0.20470   0.51530   0.50437   0.01267  Uiso   1.00
C116   C     0.20260   0.46450   0.55020   0.01267  Uiso   1.00
C117   C     0.11610   0.57600   0.40514   0.01267  Uiso   1.00
C118   C     0.36600   0.79940   0.47920   0.01267  Uiso   1.00
C119   C     0.41420   0.81880   0.53990   0.01267  Uiso   1.00
C120   C     0.31620   0.72890   0.57660   0.01267  Uiso   1.00
C121   C     0.26470   0.71490   0.51560   0.01267  Uiso   1.00
C122   C     0.39620   0.78110   0.58971   0.01267  Uiso   1.00
C123   C     0.44940   0.79460   0.65691   0.01267  Uiso   1.00
C124   C     0.01760   0.77020   0.42249   0.01267  Uiso   1.00
C125   C     0.03150   0.83360   0.46790   0.01267  Uiso   1.00
C126   C     0.07340   0.90060   0.44490   0.01267  Uiso   1.00
C127   C     0.38200   0.70050   0.30090   0.01267  Uiso   1.00
C128   C     0.48200   0.70010   0.28660   0.01267  Uiso   1.00
C129   C     0.56620   0.68220   0.33280   0.01267  Uiso   1.00
C130   C     0.54700   0.66210   0.38920   0.01267  Uiso   1.00
C131   C     0.44440   0.66030   0.39780   0.01267  Uiso   1.00
C132   C     0.67700   0.68780   0.32280   0.01267  Uiso   1.00
N1     N     0.89040   0.46778   0.75551   0.01267  Uiso   1.00
N2     N     0.90390   0.85211   0.27691   0.01267  Uiso   1.00
N3     N     0.62700   0.08567   0.04635   0.01267  Uiso   1.00
N4     N     0.79250   0.75160   0.96677   0.01267  Uiso   1.00
N5     N     0.85500   0.81760   0.85480   0.01267  Uiso   1.00
N6     N     0.60960   0.96778   0.74449   0.01267  Uiso   1.00
N7     N     0.59610   0.35211   0.22309   0.01267  Uiso   1.00
N8     N     0.87300   0.58567   0.45365   0.01267  Uiso   1.00
N9     N     0.70750   0.25160   0.53323   0.01267  Uiso   1.00
N10    N     0.64500   0.31760   0.64520   0.01267  Uiso   1.00
N11    N     0.10960   0.53222   0.24449   0.01267  Uiso   1.00
N12    N     0.09610   0.14789   0.72309   0.01267  Uiso   1.00
N13    N     0.37300   0.91433   0.95365   0.01267  Uiso   1.00
N14    N     0.20750   0.24840   0.03323   0.01267  Uiso   1.00
N15    N     0.14500   0.18240   0.14520   0.01267  Uiso   1.00
N16    N     0.39040   0.03222   0.25551   0.01267  Uiso   1.00
N17    N     0.40390   0.64789   0.77691   0.01267  Uiso   1.00
N18    N     0.12700   0.41433   0.54635   0.01267  Uiso   1.00
N19    N     0.29250   0.74840   0.46677   0.01267  Uiso   1.00
N20    N     0.35500   0.68240   0.35480   0.01267  Uiso   1.00
O1     O     0.58540   0.18647   0.20696   0.01267  Uiso   1.00
O2     O     0.62460   0.81177   0.79095   0.01267  Uiso   1.00
O3     O     0.62110   0.65420   0.77180   0.01267  Uiso   1.00
O4     O     0.76060   0.68525   0.84677   0.01267  Uiso   1.00
O5     O     0.68490   0.05442   0.17579   0.01267  Uiso   1.00
O6     O     0.60780   0.03304   0.25475   0.01267  Uiso   1.00
O7     O     0.96840   0.76145   0.18950   0.01267  Uiso   1.00
O8     O     0.96820   0.64119   0.17391   0.01267  Uiso   1.00
O9     O     0.53150   0.92014   0.86299   0.01267  Uiso   1.00
O10    O     0.69200   0.88155   0.91284   0.01267  Uiso   1.00
O11    O     0.45520   0.77838   0.92862   0.01267  Uiso   1.00
O12    O     0.57250   0.72944   0.88191   0.01267  Uiso   1.00
O13    O     0.18870   0.80780   0.76930   0.01267  Uiso   1.00
O14    O     0.24830   0.81370   0.87120   0.01267  Uiso   1.00
O15    O     0.91460   0.68647   0.29304   0.01267  Uiso   1.00
O16    O     0.87540   0.31177   0.70905   0.01267  Uiso   1.00
O17    O     0.87890   0.15420   0.72820   0.01267  Uiso   1.00
O18    O     0.73940   0.18525   0.65323   0.01267  Uiso   1.00
O19    O     0.81510   0.55442   0.32421   0.01267  Uiso   1.00
O20    O     0.89220   0.53304   0.24525   0.01267  Uiso   1.00
O21    O     0.53160   0.26145   0.31050   0.01267  Uiso   1.00
O22    O     0.53180   0.14119   0.32609   0.01267  Uiso   1.00
O23    O     0.96850   0.42014   0.63701   0.01267  Uiso   1.00
O24    O     0.80800   0.38155   0.58716   0.01267  Uiso   1.00
O25    O     0.04480   0.27838   0.57138   0.01267  Uiso   1.00
O26    O     0.92750   0.22944   0.61809   0.01267  Uiso   1.00
O27    O     0.31130   0.30780   0.73070   0.01267  Uiso   1.00
O28    O     0.25170   0.31370   0.62880   0.01267  Uiso   1.00
O29    O     0.41460   0.81353   0.79304   0.01267  Uiso   1.00
O30    O     0.37540   0.18823   0.20905   0.01267  Uiso   1.00
O31    O     0.37890   0.34580   0.22820   0.01267  Uiso   1.00
O32    O     0.23940   0.31475   0.15323   0.01267  Uiso   1.00
O33    O     0.31510   0.94558   0.82421   0.01267  Uiso   1.00
O34    O     0.39220   0.96696   0.74525   0.01267  Uiso   1.00
O35    O     0.03160   0.23855   0.81050   0.01267  Uiso   1.00
O36    O     0.03180   0.35881   0.82609   0.01267  Uiso   1.00
O37    O     0.46850   0.07986   0.13701   0.01267  Uiso   1.00
O38    O     0.30800   0.11845   0.08716   0.01267  Uiso   1.00
O39    O     0.54480   0.22162   0.07138   0.01267  Uiso   1.00
O40    O     0.42750   0.27056   0.11809   0.01267  Uiso   1.00
O41    O     0.81130   0.19220   0.23070   0.01267  Uiso   1.00
O42    O     0.75170   0.18630   0.12880   0.01267  Uiso   1.00
O43    O     0.08540   0.31353   0.70696   0.01267  Uiso   1.00
O44    O     0.12460   0.68823   0.29095   0.01267  Uiso   1.00
O45    O     0.12110   0.84580   0.27180   0.01267  Uiso   1.00
O46    O     0.26060   0.81475   0.34677   0.01267  Uiso   1.00
O47    O     0.18490   0.44558   0.67579   0.01267  Uiso   1.00
O48    O     0.10780   0.46696   0.75475   0.01267  Uiso   1.00
O49    O     0.46840   0.73855   0.68950   0.01267  Uiso   1.00
O50    O     0.46820   0.85881   0.67391   0.01267  Uiso   1.00
O51    O     0.03150   0.57986   0.36299   0.01267  Uiso   1.00
O52    O     0.19200   0.61845   0.41284   0.01267  Uiso   1.00
O53    O     0.95520   0.72162   0.42862   0.01267  Uiso   1.00
O54    O     0.07250   0.77056   0.38191   0.01267  Uiso   1.00
O55    O     0.68870   0.69220   0.26930   0.01267  Uiso   1.00
O56    O     0.74830   0.68630   0.37120   0.01267  Uiso   1.00
