data_image0
_cell_length_a       12.3919
_cell_length_b       12.3919
_cell_length_c       7.9043
_cell_angle_alpha    90
_cell_angle_beta     90
_cell_angle_gamma    90

_symmetry_space_group_name_H-M    "P 1"
_symmetry_int_tables_number       1

loop_
  _symmetry_equiv_pos_as_xyz
  'x, y, z'

loop_
  _atom_site_label
  _atom_site_occupancy
  _atom_site_fract_x
  _atom_site_fract_y
  _atom_site_fract_z
  _atom_site_thermal_displace_type
  _atom_site_B_iso_or_equiv
  _atom_site_type_symbol
  Cu1      1.0000 0.51429  0.82313  0.80505  Biso   1.000  Cu
  C1       1.0000 0.66370  0.64510  0.72270  Biso   1.000  C
  C2       1.0000 0.67520  0.61850  0.90880  Biso   1.000  C
  H1       1.0000 0.71940  0.55430  0.91980  Biso   1.000  H
  H2       1.0000 0.60440  0.60170  0.95400  Biso   1.000  H
  C3       1.0000 0.72510  0.70820  0.01550  Biso   1.000  C
  H3       1.0000 0.73360  0.68480  0.13190  Biso   1.000  H
  H4       1.0000 0.79550  0.72800  0.97140  Biso   1.000  H
  C4       1.0000 0.68080  0.88390  0.12700  Biso   1.000  C
  H5       1.0000 0.75880  0.88910  0.13390  Biso   1.000  H
  H6       1.0000 0.65360  0.86520  0.23830  Biso   1.000  H
  C5       1.0000 0.63480  0.99020  0.07310  Biso   1.000  C
  H7       1.0000 0.65890  0.04580  0.15090  Biso   1.000  H
  H8       1.0000 0.66210  0.00810  0.96160  Biso   1.000  H
  C6       1.0000 0.51530  0.98970  0.06850  Biso   1.000  C
  N1       1.0000 0.60010  0.72410  0.66690  Biso   1.000  N
  N2       1.0000 0.60730  0.72370  0.49650  Biso   1.000  N
  N3       1.0000 0.67370  0.64610  0.45260  Biso   1.000  N
  N4       1.0000 0.70830  0.59820  0.59460  Biso   1.000  N
  N5       1.0000 0.45480  0.92110  0.97680  Biso   1.000  N
  N6       1.0000 0.35000  0.94540  0.00570  Biso   1.000  N
  N7       1.0000 0.34220  0.02310  0.11340  Biso   1.000  N
  N8       1.0000 0.44720  0.05240  0.15850  Biso   1.000  N
  O1       1.0000 0.65100  0.80000  0.00610  Biso   1.000  O
  Cu2      1.0000 0.48571  0.17687  0.30505  Biso   1.000  Cu
  C7       1.0000 0.33630  0.35490  0.22270  Biso   1.000  C
  C8       1.0000 0.32480  0.38150  0.40880  Biso   1.000  C
  H9       1.0000 0.28060  0.44570  0.41980  Biso   1.000  H
  H10      1.0000 0.39560  0.39830  0.45400  Biso   1.000  H
  C9       1.0000 0.27490  0.29180  0.51550  Biso   1.000  C
  H11      1.0000 0.26640  0.31520  0.63190  Biso   1.000  H
  H12      1.0000 0.20450  0.27200  0.47140  Biso   1.000  H
  C10      1.0000 0.31920  0.11610  0.62700  Biso   1.000  C
  H13      1.0000 0.24120  0.11090  0.63390  Biso   1.000  H
  H14      1.0000 0.34640  0.13480  0.73830  Biso   1.000  H
  C11      1.0000 0.36520  0.00980  0.57310  Biso   1.000  C
  H15      1.0000 0.34110  0.95420  0.65090  Biso   1.000  H
  H16      1.0000 0.33790  0.99190  0.46160  Biso   1.000  H
  C12      1.0000 0.48470  0.01030  0.56850  Biso   1.000  C
  N9       1.0000 0.39990  0.27590  0.16690  Biso   1.000  N
  N10      1.0000 0.39270  0.27630  0.99650  Biso   1.000  N
  N11      1.0000 0.32630  0.35390  0.95260  Biso   1.000  N
  N12      1.0000 0.29170  0.40180  0.09460  Biso   1.000  N
  N13      1.0000 0.54520  0.07890  0.47680  Biso   1.000  N
  N14      1.0000 0.65000  0.05460  0.50570  Biso   1.000  N
  N15      1.0000 0.65780  0.97690  0.61340  Biso   1.000  N
  N16      1.0000 0.55280  0.94760  0.65850  Biso   1.000  N
  O2       1.0000 0.34900  0.20000  0.50610  Biso   1.000  O
  Cu3      1.0000 0.17687  0.51429  0.05505  Biso   1.000  Cu
  C13      1.0000 0.35490  0.66370  0.97270  Biso   1.000  C
  C14      1.0000 0.38150  0.67520  0.15880  Biso   1.000  C
  H17      1.0000 0.44570  0.71940  0.16980  Biso   1.000  H
  H18      1.0000 0.39830  0.60440  0.20400  Biso   1.000  H
  C15      1.0000 0.29180  0.72510  0.26550  Biso   1.000  C
  H19      1.0000 0.31520  0.73360  0.38190  Biso   1.000  H
  H20      1.0000 0.27200  0.79550  0.22140  Biso   1.000  H
  C16      1.0000 0.11610  0.68080  0.37700  Biso   1.000  C
  H21      1.0000 0.11090  0.75880  0.38390  Biso   1.000  H
  H22      1.0000 0.13480  0.65360  0.48830  Biso   1.000  H
  C17      1.0000 0.00980  0.63480  0.32310  Biso   1.000  C
  H23      1.0000 0.95420  0.65890  0.40090  Biso   1.000  H
  H24      1.0000 0.99190  0.66210  0.21160  Biso   1.000  H
  C18      1.0000 0.01030  0.51530  0.31850  Biso   1.000  C
  N17      1.0000 0.27590  0.60010  0.91690  Biso   1.000  N
  N18      1.0000 0.27630  0.60730  0.74650  Biso   1.000  N
  N19      1.0000 0.35390  0.67370  0.70260  Biso   1.000  N
  N20      1.0000 0.40180  0.70830  0.84460  Biso   1.000  N
  N21      1.0000 0.07890  0.45480  0.22680  Biso   1.000  N
  N22      1.0000 0.05460  0.35000  0.25570  Biso   1.000  N
  N23      1.0000 0.97690  0.34220  0.36340  Biso   1.000  N
  N24      1.0000 0.94760  0.44720  0.40850  Biso   1.000  N
  O3       1.0000 0.20000  0.65100  0.25610  Biso   1.000  O
  Cu4      1.0000 0.82313  0.48571  0.55505  Biso   1.000  Cu
  C19      1.0000 0.64510  0.33630  0.47270  Biso   1.000  C
  C20      1.0000 0.61850  0.32480  0.65880  Biso   1.000  C
  H25      1.0000 0.55430  0.28060  0.66980  Biso   1.000  H
  H26      1.0000 0.60170  0.39560  0.70400  Biso   1.000  H
  C21      1.0000 0.70820  0.27490  0.76550  Biso   1.000  C
  H27      1.0000 0.68480  0.26640  0.88190  Biso   1.000  H
  H28      1.0000 0.72800  0.20450  0.72140  Biso   1.000  H
  C22      1.0000 0.88390  0.31920  0.87700  Biso   1.000  C
  H29      1.0000 0.88910  0.24120  0.88390  Biso   1.000  H
  H30      1.0000 0.86520  0.34640  0.98830  Biso   1.000  H
  C23      1.0000 0.99020  0.36520  0.82310  Biso   1.000  C
  H31      1.0000 0.04580  0.34110  0.90090  Biso   1.000  H
  H32      1.0000 0.00810  0.33790  0.71160  Biso   1.000  H
  C24      1.0000 0.98970  0.48470  0.81850  Biso   1.000  C
  N25      1.0000 0.72410  0.39990  0.41690  Biso   1.000  N
  N26      1.0000 0.72370  0.39270  0.24650  Biso   1.000  N
  N27      1.0000 0.64610  0.32630  0.20260  Biso   1.000  N
  N28      1.0000 0.59820  0.29170  0.34460  Biso   1.000  N
  N29      1.0000 0.92110  0.54520  0.72680  Biso   1.000  N
  N30      1.0000 0.94540  0.65000  0.75570  Biso   1.000  N
  N31      1.0000 0.02310  0.65780  0.86340  Biso   1.000  N
  N32      1.0000 0.05240  0.55280  0.90850  Biso   1.000  N
  O4       1.0000 0.80000  0.34900  0.75610  Biso   1.000  O
