data_CAYKEU_clean
_audit_creation_date              2014-07-02
_audit_creation_method            'Materials Studio'
_symmetry_space_group_name_H-M    'P1'
_symmetry_Int_Tables_number       1
_symmetry_cell_setting            triclinic
loop_
_symmetry_equiv_pos_as_xyz
  x,y,z
_cell_length_a                    11.5288
_cell_length_b                    12.3565
_cell_length_c                    21.8610
_cell_angle_alpha                 90.0000
_cell_angle_beta                  90.0000
_cell_angle_gamma                 117.8080
loop_
_atom_site_label
_atom_site_type_symbol
_atom_site_fract_x
_atom_site_fract_y
_atom_site_fract_z
_atom_site_U_iso_or_equiv
_atom_site_adp_type
_atom_site_occupancy
Pr1    Pr    0.95752  -0.00000   0.34657   0.01267  Uiso   1.00
Pr2    Pr    0.04248   0.00000   0.84657   0.01267  Uiso   1.00
Pr3    Pr    0.95752  -0.00000   0.15343   0.01267  Uiso   1.00
Pr4    Pr    0.04248   0.00000   0.65343   0.01267  Uiso   1.00
Pr5    Pr    0.27634   0.18688   0.25000   0.01267  Uiso   1.00
Pr6    Pr    0.72366   0.81312   0.75000   0.01267  Uiso   1.00
Pr7    Pr    0.08946   0.81312   0.25000   0.01267  Uiso   1.00
Pr8    Pr    0.91054   0.18688   0.75000   0.01267  Uiso   1.00
H1     H     0.42450   0.43880   0.38630   0.01267  Uiso   1.00
H2     H     0.76690   0.77880   0.47330   0.01267  Uiso   1.00
H3     H     0.57550   0.56120   0.88630   0.01267  Uiso   1.00
H4     H     0.23310   0.22120   0.97330   0.01267  Uiso   1.00
H5     H     0.98570   0.56120   0.11370   0.01267  Uiso   1.00
H6     H     0.98810   0.22120   0.02670   0.01267  Uiso   1.00
H7     H     0.01430   0.43880   0.61370   0.01267  Uiso   1.00
H8     H     0.01190   0.77880   0.52670   0.01267  Uiso   1.00
H9     H     0.57550   0.56120   0.61370   0.01267  Uiso   1.00
H10    H     0.23310   0.22120   0.52670   0.01267  Uiso   1.00
H11    H     0.42450   0.43880   0.11370   0.01267  Uiso   1.00
H12    H     0.76690   0.77880   0.02670   0.01267  Uiso   1.00
H13    H     0.01430   0.43880   0.88630   0.01267  Uiso   1.00
H14    H     0.01190   0.77880   0.97330   0.01267  Uiso   1.00
H15    H     0.98570   0.56120   0.38630   0.01267  Uiso   1.00
H16    H     0.98810   0.22120   0.47330   0.01267  Uiso   1.00
H17    H     0.19330   0.00000   0.34570   0.01267  Uiso   1.00
H18    H     0.80670   0.00000   0.84570   0.01267  Uiso   1.00
H19    H     0.19330   0.00000   0.15430   0.01267  Uiso   1.00
H20    H     0.80670   0.00000   0.65430   0.01267  Uiso   1.00
H21    H     0.03530   0.18840   0.25000   0.01267  Uiso   1.00
H22    H     0.96470   0.81160   0.75000   0.01267  Uiso   1.00
H23    H     0.84690   0.81160   0.25000   0.01267  Uiso   1.00
H24    H     0.15310   0.18840   0.75000   0.01267  Uiso   1.00
C1     C     0.22640   0.22440   0.40480   0.01267  Uiso   1.00
C2     C     0.31700   0.31660   0.44900   0.01267  Uiso   1.00
C3     C     0.41650   0.42400   0.42820   0.01267  Uiso   1.00
C4     C     0.50680   0.51260   0.46750   0.01267  Uiso   1.00
C5     C     0.61350   0.62460   0.44760   0.01267  Uiso   1.00
C6     C     0.69800   0.70640   0.48770   0.01267  Uiso   1.00
C7     C     0.77360   0.77560   0.90480   0.01267  Uiso   1.00
C8     C     0.68300   0.68340   0.94900   0.01267  Uiso   1.00
C9     C     0.58350   0.57600   0.92820   0.01267  Uiso   1.00
C10    C     0.49320   0.48740   0.96750   0.01267  Uiso   1.00
C11    C     0.38650   0.37540   0.94760   0.01267  Uiso   1.00
C12    C     0.30200   0.29360   0.98770   0.01267  Uiso   1.00
C13    C     0.00200   0.77560   0.09520   0.01267  Uiso   1.00
C14    C     0.00040   0.68340   0.05100   0.01267  Uiso   1.00
C15    C     0.99250   0.57600   0.07180   0.01267  Uiso   1.00
C16    C     0.99420   0.48740   0.03250   0.01267  Uiso   1.00
C17    C     0.98890   0.37540   0.05240   0.01267  Uiso   1.00
C18    C     0.99160   0.29360   0.01230   0.01267  Uiso   1.00
C19    C     0.99800   0.22440   0.59520   0.01267  Uiso   1.00
C20    C     0.99960   0.31660   0.55100   0.01267  Uiso   1.00
C21    C     0.00750   0.42400   0.57180   0.01267  Uiso   1.00
C22    C     0.00580   0.51260   0.53250   0.01267  Uiso   1.00
C23    C     0.01110   0.62460   0.55240   0.01267  Uiso   1.00
C24    C     0.00840   0.70640   0.51230   0.01267  Uiso   1.00
C25    C     0.77360   0.77560   0.59520   0.01267  Uiso   1.00
C26    C     0.68300   0.68340   0.55100   0.01267  Uiso   1.00
C27    C     0.58350   0.57600   0.57180   0.01267  Uiso   1.00
C28    C     0.49320   0.48740   0.53250   0.01267  Uiso   1.00
C29    C     0.38650   0.37540   0.55240   0.01267  Uiso   1.00
C30    C     0.30200   0.29360   0.51230   0.01267  Uiso   1.00
C31    C     0.22640   0.22440   0.09520   0.01267  Uiso   1.00
C32    C     0.31700   0.31660   0.05100   0.01267  Uiso   1.00
C33    C     0.41650   0.42400   0.07180   0.01267  Uiso   1.00
C34    C     0.50680   0.51260   0.03250   0.01267  Uiso   1.00
C35    C     0.61350   0.62460   0.05240   0.01267  Uiso   1.00
C36    C     0.69800   0.70640   0.01230   0.01267  Uiso   1.00
C37    C     0.99800   0.22440   0.90480   0.01267  Uiso   1.00
C38    C     0.99960   0.31660   0.94900   0.01267  Uiso   1.00
C39    C     0.00750   0.42400   0.92820   0.01267  Uiso   1.00
C40    C     0.00580   0.51260   0.96750   0.01267  Uiso   1.00
C41    C     0.01110   0.62460   0.94760   0.01267  Uiso   1.00
C42    C     0.00840   0.70640   0.98770   0.01267  Uiso   1.00
C43    C     0.00200   0.77560   0.40480   0.01267  Uiso   1.00
C44    C     0.00040   0.68340   0.44900   0.01267  Uiso   1.00
C45    C     0.99250   0.57600   0.42820   0.01267  Uiso   1.00
C46    C     0.99420   0.48740   0.46750   0.01267  Uiso   1.00
C47    C     0.98890   0.37540   0.44760   0.01267  Uiso   1.00
C48    C     0.99160   0.29360   0.48770   0.01267  Uiso   1.00
S1     S     0.63976   0.65964   0.36795   0.01267  Uiso   1.00
S2     S     0.36024   0.34036   0.86795   0.01267  Uiso   1.00
S3     S     0.98012   0.34036   0.13205   0.01267  Uiso   1.00
S4     S     0.01988   0.65964   0.63205   0.01267  Uiso   1.00
S5     S     0.36024   0.34036   0.63205   0.01267  Uiso   1.00
S6     S     0.63976   0.65964   0.13205   0.01267  Uiso   1.00
S7     S     0.01988   0.65964   0.86795   0.01267  Uiso   1.00
S8     S     0.98012   0.34036   0.36795   0.01267  Uiso   1.00
O1     O     0.25090   0.25120   0.34850   0.01267  Uiso   1.00
O2     O     0.13320   0.12680   0.42350   0.01267  Uiso   1.00
O3     O     0.74890   0.78080   0.36300   0.01267  Uiso   1.00
O4     O     0.51910   0.65100   0.34380   0.01267  Uiso   1.00
O5     O     0.66830   0.56580   0.34230   0.01267  Uiso   1.00
O6     O     0.74910   0.74880   0.84850   0.01267  Uiso   1.00
O7     O     0.86680   0.87320   0.92350   0.01267  Uiso   1.00
O8     O     0.25110   0.21920   0.86300   0.01267  Uiso   1.00
O9     O     0.48090   0.34900   0.84380   0.01267  Uiso   1.00
O10    O     0.33170   0.43420   0.84230   0.01267  Uiso   1.00
O11    O     0.99970   0.74880   0.15150   0.01267  Uiso   1.00
O12    O     0.00640   0.87320   0.07650   0.01267  Uiso   1.00
O13    O     0.96810   0.21920   0.13700   0.01267  Uiso   1.00
O14    O     0.86810   0.34900   0.15620   0.01267  Uiso   1.00
O15    O     0.10250   0.43420   0.15770   0.01267  Uiso   1.00
O16    O     0.00030   0.25120   0.65150   0.01267  Uiso   1.00
O17    O     0.99360   0.12680   0.57650   0.01267  Uiso   1.00
O18    O     0.03190   0.78080   0.63700   0.01267  Uiso   1.00
O19    O     0.13190   0.65100   0.65620   0.01267  Uiso   1.00
O20    O     0.89750   0.56580   0.65770   0.01267  Uiso   1.00
O21    O     0.74910   0.74880   0.65150   0.01267  Uiso   1.00
O22    O     0.86680   0.87320   0.57650   0.01267  Uiso   1.00
O23    O     0.25110   0.21920   0.63700   0.01267  Uiso   1.00
O24    O     0.48090   0.34900   0.65620   0.01267  Uiso   1.00
O25    O     0.33170   0.43420   0.65770   0.01267  Uiso   1.00
O26    O     0.25090   0.25120   0.15150   0.01267  Uiso   1.00
O27    O     0.13320   0.12680   0.07650   0.01267  Uiso   1.00
O28    O     0.74890   0.78080   0.13700   0.01267  Uiso   1.00
O29    O     0.51910   0.65100   0.15620   0.01267  Uiso   1.00
O30    O     0.66830   0.56580   0.15770   0.01267  Uiso   1.00
O31    O     0.00030   0.25120   0.84850   0.01267  Uiso   1.00
O32    O     0.99360   0.12680   0.92350   0.01267  Uiso   1.00
O33    O     0.03190   0.78080   0.86300   0.01267  Uiso   1.00
O34    O     0.13190   0.65100   0.84380   0.01267  Uiso   1.00
O35    O     0.89750   0.56580   0.84230   0.01267  Uiso   1.00
O36    O     0.99970   0.74880   0.34850   0.01267  Uiso   1.00
O37    O     0.00640   0.87320   0.42350   0.01267  Uiso   1.00
O38    O     0.96810   0.21920   0.36300   0.01267  Uiso   1.00
O39    O     0.86810   0.34900   0.34380   0.01267  Uiso   1.00
O40    O     0.10250   0.43420   0.34230   0.01267  Uiso   1.00
O41    O     0.15970   0.00000   0.31110   0.01267  Uiso   1.00
O42    O     0.84030   0.00000   0.81110   0.01267  Uiso   1.00
O43    O     0.15970   0.00000   0.18890   0.01267  Uiso   1.00
O44    O     0.84030   0.00000   0.68890   0.01267  Uiso   1.00
O45    O     0.03650   0.12020   0.25000   0.01267  Uiso   1.00
O46    O     0.96350   0.87980   0.75000   0.01267  Uiso   1.00
O47    O     0.91630   0.87980   0.25000   0.01267  Uiso   1.00
O48    O     0.08370   0.12020   0.75000   0.01267  Uiso   1.00
