data_CAYSOK_clean
_audit_creation_date              2014-07-02
_audit_creation_method            'Materials Studio'
_symmetry_space_group_name_H-M    'P1'
_symmetry_Int_Tables_number       1
_symmetry_cell_setting            triclinic
loop_
_symmetry_equiv_pos_as_xyz
  x,y,z
_cell_length_a                    9.3410
_cell_length_b                    19.1699
_cell_length_c                    19.1699
_cell_angle_alpha                 62.5853
_cell_angle_beta                  80.6524
_cell_angle_gamma                 99.3476
loop_
_atom_site_label
_atom_site_type_symbol
_atom_site_fract_x
_atom_site_fract_y
_atom_site_fract_z
_atom_site_U_iso_or_equiv
_atom_site_adp_type
_atom_site_occupancy
Mn1    Mn    0.00000   0.50000   0.00000   0.01267  Uiso   1.00
Mn2    Mn    0.00000   0.00000   0.50000   0.01267  Uiso   1.00
Mn3    Mn    0.50000   0.50000   0.50000   0.01267  Uiso   1.00
H1     H     0.74640   0.64720   0.78010   0.01267  Uiso   1.00
H2     H     0.58140   0.50680   0.85720   0.01267  Uiso   1.00
H3     H     0.41340   0.76400   0.88520   0.01267  Uiso   1.00
H4     H     0.24330   0.80400   0.79800   0.01267  Uiso   1.00
H5     H     0.61630   0.59280   0.98460   0.01267  Uiso   1.00
H6     H     0.82420   0.66880   0.98920   0.01267  Uiso   1.00
H7     H     0.59640   0.78620   0.05560   0.01267  Uiso   1.00
H8     H     0.38120   0.71650   0.05400   0.01267  Uiso   1.00
H9     H     0.16150   0.74220   0.68340   0.01267  Uiso   1.00
H10    H     0.83350   0.14180   0.43150   0.01267  Uiso   1.00
H11    H     0.12780   0.09110   0.30970   0.01267  Uiso   1.00
H12    H     0.85020   0.79180   0.80950   0.01267  Uiso   1.00
H13    H     0.52650   0.78010   0.57270   0.01267  Uiso   1.00
H14    H     0.43860   0.85720   0.63600   0.01267  Uiso   1.00
H15    H     0.29860   0.88520   0.35080   0.01267  Uiso   1.00
H16    H     0.04130   0.79800   0.39800   0.01267  Uiso   1.00
H17    H     0.60090   0.98460   0.42260   0.01267  Uiso   1.00
H18    H     0.81340   0.98920   0.34200   0.01267  Uiso   1.00
H19    H     0.65200   0.05560   0.15820   0.01267  Uiso   1.00
H20    H     0.43520   0.05400   0.22950   0.01267  Uiso   1.00
H21    H     0.84490   0.68340   0.57440   0.01267  Uiso   1.00
H22    H     0.26500   0.43150   0.42670   0.01267  Uiso   1.00
H23    H     0.43750   0.30970   0.59920   0.01267  Uiso   1.00
H24    H     0.65970   0.80950   0.39870   0.01267  Uiso   1.00
H25    H     0.09920   0.57270   0.64720   0.01267  Uiso   1.00
H26    H     0.07460   0.63600   0.50680   0.01267  Uiso   1.00
H27    H     0.64940   0.35080   0.76400   0.01267  Uiso   1.00
H28    H     0.43930   0.39800   0.80400   0.01267  Uiso   1.00
H29    H     0.02350   0.42260   0.59280   0.01267  Uiso   1.00
H30    H     0.15540   0.34200   0.66880   0.01267  Uiso   1.00
H31    H     0.81020   0.15820   0.78620   0.01267  Uiso   1.00
H32    H     0.66470   0.22950   0.71650   0.01267  Uiso   1.00
H33    H     0.41930   0.57440   0.74220   0.01267  Uiso   1.00
H34    H     0.69170   0.42670   0.14180   0.01267  Uiso   1.00
H35    H     0.03670   0.59920   0.09110   0.01267  Uiso   1.00
H36    H     0.05840   0.39870   0.79180   0.01267  Uiso   1.00
H37    H     0.25360   0.35280   0.21990   0.01267  Uiso   1.00
H38    H     0.41860   0.49320   0.14280   0.01267  Uiso   1.00
H39    H     0.58660   0.23600   0.11480   0.01267  Uiso   1.00
H40    H     0.75670   0.19600   0.20200   0.01267  Uiso   1.00
H41    H     0.38370   0.40720   0.01540   0.01267  Uiso   1.00
H42    H     0.17580   0.33120   0.01080   0.01267  Uiso   1.00
H43    H     0.40360   0.21380   0.94440   0.01267  Uiso   1.00
H44    H     0.61880   0.28350   0.94600   0.01267  Uiso   1.00
H45    H     0.83850   0.25780   0.31660   0.01267  Uiso   1.00
H46    H     0.16650   0.85820   0.56850   0.01267  Uiso   1.00
H47    H     0.87220   0.90890   0.69030   0.01267  Uiso   1.00
H48    H     0.14980   0.20820   0.19050   0.01267  Uiso   1.00
H49    H     0.47350   0.21990   0.42730   0.01267  Uiso   1.00
H50    H     0.56140   0.14280   0.36400   0.01267  Uiso   1.00
H51    H     0.70140   0.11480   0.64920   0.01267  Uiso   1.00
H52    H     0.95870   0.20200   0.60200   0.01267  Uiso   1.00
H53    H     0.39910   0.01540   0.57740   0.01267  Uiso   1.00
H54    H     0.18660   0.01080   0.65800   0.01267  Uiso   1.00
H55    H     0.34800   0.94440   0.84180   0.01267  Uiso   1.00
H56    H     0.56480   0.94600   0.77050   0.01267  Uiso   1.00
H57    H     0.15510   0.31660   0.42560   0.01267  Uiso   1.00
H58    H     0.73500   0.56850   0.57330   0.01267  Uiso   1.00
H59    H     0.56250   0.69030   0.40080   0.01267  Uiso   1.00
H60    H     0.34030   0.19050   0.60130   0.01267  Uiso   1.00
H61    H     0.90080   0.42730   0.35280   0.01267  Uiso   1.00
H62    H     0.92540   0.36400   0.49320   0.01267  Uiso   1.00
H63    H     0.35060   0.64920   0.23600   0.01267  Uiso   1.00
H64    H     0.56070   0.60200   0.19600   0.01267  Uiso   1.00
H65    H     0.97650   0.57740   0.40720   0.01267  Uiso   1.00
H66    H     0.84460   0.65800   0.33120   0.01267  Uiso   1.00
H67    H     0.18980   0.84180   0.21380   0.01267  Uiso   1.00
H68    H     0.33530   0.77050   0.28350   0.01267  Uiso   1.00
H69    H     0.58070   0.42560   0.25780   0.01267  Uiso   1.00
H70    H     0.30830   0.57330   0.85820   0.01267  Uiso   1.00
H71    H     0.96330   0.40080   0.90890   0.01267  Uiso   1.00
H72    H     0.94160   0.60130   0.20820   0.01267  Uiso   1.00
C1     C     0.12540   0.39330   0.13550   0.01267  Uiso   1.00
C2     C     0.75830   0.60400   0.82600   0.01267  Uiso   1.00
C3     C     0.66740   0.52680   0.86820   0.01267  Uiso   1.00
C4     C     0.73000   0.48210   0.93300   0.01267  Uiso   1.00
C5     C     0.67250   0.39930   0.98850   0.01267  Uiso   1.00
C6     C     0.73920   0.35490   0.04820   0.01267  Uiso   1.00
C7     C     0.32400   0.73040   0.89030   0.01267  Uiso   1.00
C8     C     0.23190   0.75250   0.84190   0.01267  Uiso   1.00
C9     C     0.11070   0.67930   0.87250   0.01267  Uiso   1.00
C10    C     0.00530   0.32410   0.16320   0.01267  Uiso   1.00
C11    C     0.47040   0.64610   0.01720   0.01267  Uiso   1.00
C12    C     0.60780   0.63240   0.99900   0.01267  Uiso   1.00
C13    C     0.73210   0.67850   0.00220   0.01267  Uiso   1.00
C14    C     0.60020   0.74650   0.04080   0.01267  Uiso   1.00
C15    C     0.47100   0.70520   0.03970   0.01267  Uiso   1.00
C16    C     0.99710   0.24770   0.23950   0.01267  Uiso   1.00
C17    C     0.90060   0.22560   0.31310   0.01267  Uiso   1.00
C18    C     0.89670   0.15490   0.38190   0.01267  Uiso   1.00
C19    C     0.06880   0.12530   0.31150   0.01267  Uiso   1.00
C20    C     0.91680   0.80390   0.76130   0.01267  Uiso   1.00
C21    C     0.26090   0.13550   0.47120   0.01267  Uiso   1.00
C22    C     0.58430   0.82600   0.57000   0.01267  Uiso   1.00
C23    C     0.53560   0.86820   0.60500   0.01267  Uiso   1.00
C24    C     0.66300   0.93300   0.58490   0.01267  Uiso   1.00
C25    C     0.66100   0.98850   0.61220   0.01267  Uiso   1.00
C26    C     0.78740   0.04820   0.59690   0.01267  Uiso   1.00
C27    C     0.21430   0.89030   0.37930   0.01267  Uiso   1.00
C28    C     0.07380   0.84190   0.40560   0.01267  Uiso   1.00
C29    C     0.98320   0.87250   0.44820   0.01267  Uiso   1.00
C30    C     0.16850   0.16320   0.51270   0.01267  Uiso   1.00
C31    C     0.48760   0.01720   0.33670   0.01267  Uiso   1.00
C32    C     0.60680   0.99900   0.36860   0.01267  Uiso   1.00
C33    C     0.73430   0.00220   0.31930   0.01267  Uiso   1.00
C34    C     0.64100   0.04080   0.21270   0.01267  Uiso   1.00
C35    C     0.51070   0.03970   0.25510   0.01267  Uiso   1.00
C36    C     0.23660   0.23950   0.51280   0.01267  Uiso   1.00
C37    C     0.21370   0.31310   0.46130   0.01267  Uiso   1.00
C38    C     0.27860   0.38190   0.46320   0.01267  Uiso   1.00
C39    C     0.38030   0.31150   0.56320   0.01267  Uiso   1.00
C40    C     0.67810   0.76130   0.43480   0.01267  Uiso   1.00
C41    C     0.73210   0.47120   0.39330   0.01267  Uiso   1.00
C42    C     0.15430   0.57000   0.60400   0.01267  Uiso   1.00
C43    C     0.14060   0.60500   0.52680   0.01267  Uiso   1.00
C44    C     0.24790   0.58490   0.48210   0.01267  Uiso   1.00
C45    C     0.27320   0.61220   0.39930   0.01267  Uiso   1.00
C46    C     0.38430   0.59690   0.35490   0.01267  Uiso   1.00
C47    C     0.59360   0.37930   0.73040   0.01267  Uiso   1.00
C48    C     0.47940   0.40560   0.75250   0.01267  Uiso   1.00
C49    C     0.43140   0.44820   0.67930   0.01267  Uiso   1.00
C50    C     0.68120   0.51270   0.32410   0.01267  Uiso   1.00
C51    C     0.82430   0.33670   0.64610   0.01267  Uiso   1.00
C52    C     0.97540   0.36860   0.63240   0.01267  Uiso   1.00
C53    C     0.05360   0.31930   0.67850   0.01267  Uiso   1.00
C54    C     0.85370   0.21270   0.74650   0.01267  Uiso   1.00
C55    C     0.76580   0.25510   0.70520   0.01267  Uiso   1.00
C56    C     0.74940   0.51280   0.24770   0.01267  Uiso   1.00
C57    C     0.67500   0.46130   0.22560   0.01267  Uiso   1.00
C58    C     0.74180   0.46320   0.15490   0.01267  Uiso   1.00
C59    C     0.94350   0.56320   0.12530   0.01267  Uiso   1.00
C60    C     0.11290   0.43480   0.80390   0.01267  Uiso   1.00
C61    C     0.87460   0.60670   0.86450   0.01267  Uiso   1.00
C62    C     0.24170   0.39600   0.17400   0.01267  Uiso   1.00
C63    C     0.33260   0.47320   0.13180   0.01267  Uiso   1.00
C64    C     0.27000   0.51790   0.06700   0.01267  Uiso   1.00
C65    C     0.32750   0.60070   0.01150   0.01267  Uiso   1.00
C66    C     0.26080   0.64510   0.95180   0.01267  Uiso   1.00
C67    C     0.67600   0.26960   0.10970   0.01267  Uiso   1.00
C68    C     0.76810   0.24750   0.15810   0.01267  Uiso   1.00
C69    C     0.88930   0.32070   0.12750   0.01267  Uiso   1.00
C70    C     0.99470   0.67590   0.83680   0.01267  Uiso   1.00
C71    C     0.52960   0.35390   0.98280   0.01267  Uiso   1.00
C72    C     0.39220   0.36760   0.00100   0.01267  Uiso   1.00
C73    C     0.26790   0.32150   0.99780   0.01267  Uiso   1.00
C74    C     0.39980   0.25350   0.95920   0.01267  Uiso   1.00
C75    C     0.52900   0.29480   0.96030   0.01267  Uiso   1.00
C76    C     0.00290   0.75230   0.76050   0.01267  Uiso   1.00
C77    C     0.09940   0.77440   0.68690   0.01267  Uiso   1.00
C78    C     0.10330   0.84510   0.61810   0.01267  Uiso   1.00
C79    C     0.93120   0.87470   0.68850   0.01267  Uiso   1.00
C80    C     0.08320   0.19610   0.23870   0.01267  Uiso   1.00
C81    C     0.73910   0.86450   0.52880   0.01267  Uiso   1.00
C82    C     0.41570   0.17400   0.43000   0.01267  Uiso   1.00
C83    C     0.46440   0.13180   0.39500   0.01267  Uiso   1.00
C84    C     0.33700   0.06700   0.41510   0.01267  Uiso   1.00
C85    C     0.33900   0.01150   0.38780   0.01267  Uiso   1.00
C86    C     0.21260   0.95180   0.40310   0.01267  Uiso   1.00
C87    C     0.78570   0.10970   0.62070   0.01267  Uiso   1.00
C88    C     0.92620   0.15810   0.59440   0.01267  Uiso   1.00
C89    C     0.01680   0.12750   0.55180   0.01267  Uiso   1.00
C90    C     0.83150   0.83680   0.48730   0.01267  Uiso   1.00
C91    C     0.51240   0.98280   0.66330   0.01267  Uiso   1.00
C92    C     0.39320   0.00100   0.63140   0.01267  Uiso   1.00
C93    C     0.26570   0.99780   0.68070   0.01267  Uiso   1.00
C94    C     0.35900   0.95920   0.78730   0.01267  Uiso   1.00
C95    C     0.48930   0.96030   0.74490   0.01267  Uiso   1.00
C96    C     0.76340   0.76050   0.48720   0.01267  Uiso   1.00
C97    C     0.78630   0.68690   0.53870   0.01267  Uiso   1.00
C98    C     0.72140   0.61810   0.53680   0.01267  Uiso   1.00
C99    C     0.61970   0.68850   0.43680   0.01267  Uiso   1.00
C100   C     0.32190   0.23870   0.56520   0.01267  Uiso   1.00
C101   C     0.26790   0.52880   0.60670   0.01267  Uiso   1.00
C102   C     0.84570   0.43000   0.39600   0.01267  Uiso   1.00
C103   C     0.85940   0.39500   0.47320   0.01267  Uiso   1.00
C104   C     0.75210   0.41510   0.51790   0.01267  Uiso   1.00
C105   C     0.72680   0.38780   0.60070   0.01267  Uiso   1.00
C106   C     0.61570   0.40310   0.64510   0.01267  Uiso   1.00
C107   C     0.40640   0.62070   0.26960   0.01267  Uiso   1.00
C108   C     0.52060   0.59440   0.24750   0.01267  Uiso   1.00
C109   C     0.56860   0.55180   0.32070   0.01267  Uiso   1.00
C110   C     0.31880   0.48730   0.67590   0.01267  Uiso   1.00
C111   C     0.17570   0.66330   0.35390   0.01267  Uiso   1.00
C112   C     0.02460   0.63140   0.36760   0.01267  Uiso   1.00
C113   C     0.94640   0.68070   0.32150   0.01267  Uiso   1.00
C114   C     0.14630   0.78730   0.25350   0.01267  Uiso   1.00
C115   C     0.23420   0.74490   0.29480   0.01267  Uiso   1.00
C116   C     0.25060   0.48720   0.75230   0.01267  Uiso   1.00
C117   C     0.32500   0.53870   0.77440   0.01267  Uiso   1.00
C118   C     0.25820   0.53680   0.84510   0.01267  Uiso   1.00
C119   C     0.05650   0.43680   0.87470   0.01267  Uiso   1.00
C120   C     0.88710   0.56520   0.19610   0.01267  Uiso   1.00
N1     N     0.14467   0.46894   0.06813   0.01267  Uiso   1.00
N2     N     0.87107   0.38614   0.05883   0.01267  Uiso   1.00
N3     N     0.73190   0.73400   0.02230   0.01267  Uiso   1.00
N4     N     0.97920   0.10360   0.38130   0.01267  Uiso   1.00
N5     N     0.21280   0.06813   0.46293   0.01267  Uiso   1.00
N6     N     0.92990   0.05883   0.55503   0.01267  Uiso   1.00
N7     N     0.75420   0.02230   0.24370   0.01267  Uiso   1.00
N8     N     0.36050   0.38130   0.51510   0.01267  Uiso   1.00
N9     N     0.67573   0.46293   0.46894   0.01267  Uiso   1.00
N10    N     0.48493   0.55503   0.38614   0.01267  Uiso   1.00
N11    N     0.99790   0.24370   0.73400   0.01267  Uiso   1.00
N12    N     0.87560   0.51510   0.10360   0.01267  Uiso   1.00
N13    N     0.85533   0.53106   0.93187   0.01267  Uiso   1.00
N14    N     0.12893   0.61386   0.94117   0.01267  Uiso   1.00
N15    N     0.26810   0.26600   0.97770   0.01267  Uiso   1.00
N16    N     0.02080   0.89640   0.61870   0.01267  Uiso   1.00
N17    N     0.78720   0.93187   0.53707   0.01267  Uiso   1.00
N18    N     0.07010   0.94117   0.44497   0.01267  Uiso   1.00
N19    N     0.24580   0.97770   0.75630   0.01267  Uiso   1.00
N20    N     0.63950   0.61870   0.48490   0.01267  Uiso   1.00
N21    N     0.32427   0.53707   0.53106   0.01267  Uiso   1.00
N22    N     0.51507   0.44497   0.61386   0.01267  Uiso   1.00
N23    N     0.00210   0.75630   0.26600   0.01267  Uiso   1.00
N24    N     0.12440   0.48490   0.89640   0.01267  Uiso   1.00
