data_CAYSIE_clean
_audit_creation_date              2014-07-02
_audit_creation_method            'Materials Studio'
_symmetry_space_group_name_H-M    'P1'
_symmetry_Int_Tables_number       1
_symmetry_cell_setting            triclinic
loop_
_symmetry_equiv_pos_as_xyz
  x,y,z
_cell_length_a                    9.3124
_cell_length_b                    19.1575
_cell_length_c                    19.1575
_cell_angle_alpha                 62.5730
_cell_angle_beta                  80.6751
_cell_angle_gamma                 99.3249
loop_
_atom_site_label
_atom_site_type_symbol
_atom_site_fract_x
_atom_site_fract_y
_atom_site_fract_z
_atom_site_U_iso_or_equiv
_atom_site_adp_type
_atom_site_occupancy
Co1    Co    0.00000   0.00000   0.50000   0.01267  Uiso   1.00
H1     H     0.52540   0.77940   0.57390   0.01267  Uiso   1.00
H2     H     0.43880   0.85490   0.63830   0.01267  Uiso   1.00
H3     H     0.29980   0.88660   0.34750   0.01267  Uiso   1.00
H4     H     0.04270   0.79640   0.40130   0.01267  Uiso   1.00
H5     H     0.60440   0.98600   0.42110   0.01267  Uiso   1.00
H6     H     0.81620   0.98870   0.34070   0.01267  Uiso   1.00
H7     H     0.65320   0.05600   0.15540   0.01267  Uiso   1.00
H8     H     0.42640   0.05350   0.22880   0.01267  Uiso   1.00
H9     H     0.84080   0.68300   0.57590   0.01267  Uiso   1.00
H10    H     0.73820   0.56710   0.57280   0.01267  Uiso   1.00
H11    H     0.56370   0.69050   0.39980   0.01267  Uiso   1.00
H12    H     0.65800   0.80950   0.39850   0.01267  Uiso   1.00
H13    H     0.47460   0.22060   0.42610   0.01267  Uiso   1.00
H14    H     0.56120   0.14510   0.36170   0.01267  Uiso   1.00
H15    H     0.70020   0.11340   0.65250   0.01267  Uiso   1.00
H16    H     0.95730   0.20360   0.59870   0.01267  Uiso   1.00
H17    H     0.39560   0.01400   0.57890   0.01267  Uiso   1.00
H18    H     0.18380   0.01130   0.65930   0.01267  Uiso   1.00
H19    H     0.34680   0.94400   0.84460   0.01267  Uiso   1.00
H20    H     0.57360   0.94650   0.77120   0.01267  Uiso   1.00
H21    H     0.15920   0.31700   0.42410   0.01267  Uiso   1.00
H22    H     0.26180   0.43290   0.42720   0.01267  Uiso   1.00
H23    H     0.43630   0.30950   0.60020   0.01267  Uiso   1.00
H24    H     0.34200   0.19050   0.60150   0.01267  Uiso   1.00
C1     C     0.26050   0.13590   0.47050   0.01267  Uiso   1.00
C2     C     0.58330   0.82520   0.57140   0.01267  Uiso   1.00
C3     C     0.53550   0.86670   0.60630   0.01267  Uiso   1.00
C4     C     0.66280   0.93360   0.58470   0.01267  Uiso   1.00
C5     C     0.65970   0.98920   0.61270   0.01267  Uiso   1.00
C6     C     0.78580   0.04810   0.59720   0.01267  Uiso   1.00
C7     C     0.21640   0.89080   0.37780   0.01267  Uiso   1.00
C8     C     0.07520   0.84160   0.40690   0.01267  Uiso   1.00
C9     C     0.98340   0.87250   0.44860   0.01267  Uiso   1.00
C10    C     0.17010   0.16380   0.51160   0.01267  Uiso   1.00
C11    C     0.48590   0.01670   0.33570   0.01267  Uiso   1.00
C12    C     0.60920   0.99950   0.36740   0.01267  Uiso   1.00
C13    C     0.73720   0.00270   0.31780   0.01267  Uiso   1.00
C14    C     0.64170   0.04150   0.20990   0.01267  Uiso   1.00
C15    C     0.50340   0.03990   0.25360   0.01267  Uiso   1.00
C16    C     0.23890   0.24030   0.51220   0.01267  Uiso   1.00
C17    C     0.21620   0.31410   0.46060   0.01267  Uiso   1.00
C18    C     0.27760   0.38350   0.46280   0.01267  Uiso   1.00
C19    C     0.62030   0.68890   0.43600   0.01267  Uiso   1.00
C20    C     0.67670   0.76120   0.43450   0.01267  Uiso   1.00
C21    C     0.73950   0.86410   0.52950   0.01267  Uiso   1.00
C22    C     0.41670   0.17480   0.42860   0.01267  Uiso   1.00
C23    C     0.46450   0.13330   0.39370   0.01267  Uiso   1.00
C24    C     0.33720   0.06640   0.41530   0.01267  Uiso   1.00
C25    C     0.34030   0.01080   0.38730   0.01267  Uiso   1.00
C26    C     0.21420   0.95190   0.40280   0.01267  Uiso   1.00
C27    C     0.78360   0.10920   0.62220   0.01267  Uiso   1.00
C28    C     0.92480   0.15840   0.59310   0.01267  Uiso   1.00
C29    C     0.01660   0.12750   0.55140   0.01267  Uiso   1.00
C30    C     0.82990   0.83620   0.48840   0.01267  Uiso   1.00
C31    C     0.51410   0.98330   0.66430   0.01267  Uiso   1.00
C32    C     0.39080   0.00050   0.63260   0.01267  Uiso   1.00
C33    C     0.26280   0.99730   0.68220   0.01267  Uiso   1.00
C34    C     0.35830   0.95850   0.79010   0.01267  Uiso   1.00
C35    C     0.49660   0.96010   0.74640   0.01267  Uiso   1.00
C36    C     0.76110   0.75970   0.48780   0.01267  Uiso   1.00
C37    C     0.78380   0.68590   0.53940   0.01267  Uiso   1.00
C38    C     0.72240   0.61650   0.53720   0.01267  Uiso   1.00
C39    C     0.37970   0.31110   0.56400   0.01267  Uiso   1.00
C40    C     0.32330   0.23880   0.56550   0.01267  Uiso   1.00
N1     N     0.21320   0.06830   0.46350   0.01267  Uiso   1.00
N2     N     0.93120   0.05960   0.55500   0.01267  Uiso   1.00
N3     N     0.75610   0.02430   0.24040   0.01267  Uiso   1.00
N4     N     0.35910   0.38190   0.51490   0.01267  Uiso   1.00
N5     N     0.78680   0.93170   0.53650   0.01267  Uiso   1.00
N6     N     0.06880   0.94040   0.44500   0.01267  Uiso   1.00
N7     N     0.24390   0.97570   0.75960   0.01267  Uiso   1.00
N8     N     0.64090   0.61810   0.48510   0.01267  Uiso   1.00
Co2    Co    0.50000   0.50000   0.50000   0.01267  Uiso   1.00
H25    H     0.09930   0.57390   0.64670   0.01267  Uiso   1.00
H26    H     0.07710   0.63830   0.50680   0.01267  Uiso   1.00
H27    H     0.64730   0.34750   0.76590   0.01267  Uiso   1.00
H28    H     0.44400   0.40130   0.80230   0.01267  Uiso   1.00
H29    H     0.02550   0.42110   0.59290   0.01267  Uiso   1.00
H30    H     0.15690   0.34070   0.67060   0.01267  Uiso   1.00
H31    H     0.80860   0.15540   0.78860   0.01267  Uiso   1.00
H32    H     0.65520   0.22880   0.71770   0.01267  Uiso   1.00
H33    H     0.41670   0.57590   0.74110   0.01267  Uiso   1.00
H34    H     0.31100   0.57280   0.86010   0.01267  Uiso   1.00
H35    H     0.96350   0.39980   0.90970   0.01267  Uiso   1.00
H36    H     0.05650   0.39850   0.79200   0.01267  Uiso   1.00
H37    H     0.90070   0.42610   0.35330   0.01267  Uiso   1.00
H38    H     0.92290   0.36170   0.49320   0.01267  Uiso   1.00
H39    H     0.35270   0.65250   0.23410   0.01267  Uiso   1.00
H40    H     0.55600   0.59870   0.19770   0.01267  Uiso   1.00
H41    H     0.97450   0.57890   0.40710   0.01267  Uiso   1.00
H42    H     0.84310   0.65930   0.32940   0.01267  Uiso   1.00
H43    H     0.19140   0.84460   0.21140   0.01267  Uiso   1.00
H44    H     0.34480   0.77120   0.28230   0.01267  Uiso   1.00
H45    H     0.58330   0.42410   0.25890   0.01267  Uiso   1.00
H46    H     0.68900   0.42720   0.13990   0.01267  Uiso   1.00
H47    H     0.03650   0.60020   0.09030   0.01267  Uiso   1.00
H48    H     0.94350   0.60150   0.20800   0.01267  Uiso   1.00
C41    C     0.73100   0.47050   0.39360   0.01267  Uiso   1.00
C42    C     0.15470   0.57140   0.60340   0.01267  Uiso   1.00
C43    C     0.14180   0.60630   0.52700   0.01267  Uiso   1.00
C44    C     0.24750   0.58470   0.48170   0.01267  Uiso   1.00
C45    C     0.27240   0.61270   0.39810   0.01267  Uiso   1.00
C46    C     0.38300   0.59720   0.35470   0.01267  Uiso   1.00
C47    C     0.59420   0.37780   0.73140   0.01267  Uiso   1.00
C48    C     0.48210   0.40690   0.75150   0.01267  Uiso   1.00
C49    C     0.43200   0.44860   0.67890   0.01267  Uiso   1.00
C50    C     0.68170   0.51160   0.32460   0.01267  Uiso   1.00
C51    C     0.82160   0.33570   0.64760   0.01267  Uiso   1.00
C52    C     0.97660   0.36740   0.63310   0.01267  Uiso   1.00
C53    C     0.05500   0.31780   0.67950   0.01267  Uiso   1.00
C54    C     0.85160   0.20990   0.74860   0.01267  Uiso   1.00
C55    C     0.75700   0.25360   0.70650   0.01267  Uiso   1.00
C56    C     0.75110   0.51220   0.24750   0.01267  Uiso   1.00
C57    C     0.67680   0.46060   0.22530   0.01267  Uiso   1.00
C58    C     0.74040   0.46280   0.15370   0.01267  Uiso   1.00
C59    C     0.05630   0.43600   0.87510   0.01267  Uiso   1.00
C60    C     0.11120   0.43450   0.80430   0.01267  Uiso   1.00
C61    C     0.26900   0.52950   0.60640   0.01267  Uiso   1.00
C62    C     0.84530   0.42860   0.39660   0.01267  Uiso   1.00
C63    C     0.85820   0.39370   0.47300   0.01267  Uiso   1.00
C64    C     0.75250   0.41530   0.51830   0.01267  Uiso   1.00
C65    C     0.72760   0.38730   0.60190   0.01267  Uiso   1.00
C66    C     0.61700   0.40280   0.64530   0.01267  Uiso   1.00
C67    C     0.40580   0.62220   0.26860   0.01267  Uiso   1.00
C68    C     0.51790   0.59310   0.24850   0.01267  Uiso   1.00
C69    C     0.56800   0.55140   0.32110   0.01267  Uiso   1.00
C70    C     0.31830   0.48840   0.67540   0.01267  Uiso   1.00
C71    C     0.17840   0.66430   0.35240   0.01267  Uiso   1.00
C72    C     0.02340   0.63260   0.36690   0.01267  Uiso   1.00
C73    C     0.94500   0.68220   0.32050   0.01267  Uiso   1.00
C74    C     0.14840   0.79010   0.25140   0.01267  Uiso   1.00
C75    C     0.24300   0.74640   0.29350   0.01267  Uiso   1.00
C76    C     0.24890   0.48780   0.75250   0.01267  Uiso   1.00
C77    C     0.32320   0.53940   0.77470   0.01267  Uiso   1.00
C78    C     0.25960   0.53720   0.84630   0.01267  Uiso   1.00
C79    C     0.94370   0.56400   0.12490   0.01267  Uiso   1.00
C80    C     0.88880   0.56550   0.19570   0.01267  Uiso   1.00
N9     N     0.67670   0.46350   0.46820   0.01267  Uiso   1.00
N10    N     0.48620   0.55500   0.38540   0.01267  Uiso   1.00
N11    N     0.99650   0.24040   0.73530   0.01267  Uiso   1.00
N12    N     0.87400   0.51490   0.10320   0.01267  Uiso   1.00
N13    N     0.32330   0.53650   0.53180   0.01267  Uiso   1.00
N14    N     0.51380   0.44500   0.61460   0.01267  Uiso   1.00
N15    N     0.00350   0.75960   0.26470   0.01267  Uiso   1.00
N16    N     0.12600   0.48510   0.89680   0.01267  Uiso   1.00
Co3    Co    0.00000   0.50000   0.00000   0.01267  Uiso   1.00
H49    H     0.74600   0.64670   0.77940   0.01267  Uiso   1.00
H50    H     0.58390   0.50680   0.85490   0.01267  Uiso   1.00
H51    H     0.41320   0.76590   0.88660   0.01267  Uiso   1.00
H52    H     0.24630   0.80230   0.79640   0.01267  Uiso   1.00
H53    H     0.61840   0.59290   0.98600   0.01267  Uiso   1.00
H54    H     0.82750   0.67060   0.98870   0.01267  Uiso   1.00
H55    H     0.59720   0.78860   0.05600   0.01267  Uiso   1.00
H56    H     0.37290   0.71770   0.05350   0.01267  Uiso   1.00
H57    H     0.15780   0.74110   0.68300   0.01267  Uiso   1.00
H58    H     0.17110   0.86010   0.56710   0.01267  Uiso   1.00
H59    H     0.87320   0.90970   0.69050   0.01267  Uiso   1.00
H60    H     0.84850   0.79200   0.80950   0.01267  Uiso   1.00
H61    H     0.25400   0.35330   0.22060   0.01267  Uiso   1.00
H62    H     0.41610   0.49320   0.14510   0.01267  Uiso   1.00
H63    H     0.58680   0.23410   0.11340   0.01267  Uiso   1.00
H64    H     0.75370   0.19770   0.20360   0.01267  Uiso   1.00
H65    H     0.38160   0.40710   0.01400   0.01267  Uiso   1.00
H66    H     0.17250   0.32940   0.01130   0.01267  Uiso   1.00
H67    H     0.40280   0.21140   0.94400   0.01267  Uiso   1.00
H68    H     0.62710   0.28230   0.94650   0.01267  Uiso   1.00
H69    H     0.84220   0.25890   0.31700   0.01267  Uiso   1.00
H70    H     0.82890   0.13990   0.43290   0.01267  Uiso   1.00
H71    H     0.12680   0.09030   0.30950   0.01267  Uiso   1.00
H72    H     0.15150   0.20800   0.19050   0.01267  Uiso   1.00
C81    C     0.12460   0.39360   0.13590   0.01267  Uiso   1.00
C82    C     0.75810   0.60340   0.82520   0.01267  Uiso   1.00
C83    C     0.66880   0.52700   0.86670   0.01267  Uiso   1.00
C84    C     0.72920   0.48170   0.93360   0.01267  Uiso   1.00
C85    C     0.67050   0.39810   0.98920   0.01267  Uiso   1.00
C86    C     0.73770   0.35470   0.04810   0.01267  Uiso   1.00
C87    C     0.32560   0.73140   0.89080   0.01267  Uiso   1.00
C88    C     0.23360   0.75150   0.84160   0.01267  Uiso   1.00
C89    C     0.11090   0.67890   0.87250   0.01267  Uiso   1.00
C90    C     0.00630   0.32460   0.16380   0.01267  Uiso   1.00
C91    C     0.46920   0.64760   0.01670   0.01267  Uiso   1.00
C92    C     0.60970   0.63310   0.99950   0.01267  Uiso   1.00
C93    C     0.73450   0.67950   0.00270   0.01267  Uiso   1.00
C94    C     0.60020   0.74860   0.04150   0.01267  Uiso   1.00
C95    C     0.46350   0.70650   0.03990   0.01267  Uiso   1.00
C96    C     0.99860   0.24750   0.24030   0.01267  Uiso   1.00
C97    C     0.90210   0.22530   0.31410   0.01267  Uiso   1.00
C98    C     0.89410   0.15370   0.38350   0.01267  Uiso   1.00
C99    C     0.93140   0.87510   0.68890   0.01267  Uiso   1.00
C100   C     0.91550   0.80430   0.76120   0.01267  Uiso   1.00
C101   C     0.87540   0.60640   0.86410   0.01267  Uiso   1.00
C102   C     0.24190   0.39660   0.17480   0.01267  Uiso   1.00
C103   C     0.33120   0.47300   0.13330   0.01267  Uiso   1.00
C104   C     0.27080   0.51830   0.06640   0.01267  Uiso   1.00
C105   C     0.32950   0.60190   0.01080   0.01267  Uiso   1.00
C106   C     0.26230   0.64530   0.95190   0.01267  Uiso   1.00
C107   C     0.67440   0.26860   0.10920   0.01267  Uiso   1.00
C108   C     0.76640   0.24850   0.15840   0.01267  Uiso   1.00
C109   C     0.88910   0.32110   0.12750   0.01267  Uiso   1.00
C110   C     0.99370   0.67540   0.83620   0.01267  Uiso   1.00
C111   C     0.53080   0.35240   0.98330   0.01267  Uiso   1.00
C112   C     0.39030   0.36690   0.00050   0.01267  Uiso   1.00
C113   C     0.26550   0.32050   0.99730   0.01267  Uiso   1.00
C114   C     0.39980   0.25140   0.95850   0.01267  Uiso   1.00
C115   C     0.53650   0.29350   0.96010   0.01267  Uiso   1.00
C116   C     0.00140   0.75250   0.75970   0.01267  Uiso   1.00
C117   C     0.09790   0.77470   0.68590   0.01267  Uiso   1.00
C118   C     0.10590   0.84630   0.61650   0.01267  Uiso   1.00
C119   C     0.06860   0.12490   0.31110   0.01267  Uiso   1.00
C120   C     0.08450   0.19570   0.23880   0.01267  Uiso   1.00
N17    N     0.14490   0.46820   0.06830   0.01267  Uiso   1.00
N18    N     0.87160   0.38540   0.05960   0.01267  Uiso   1.00
N19    N     0.73180   0.73530   0.02430   0.01267  Uiso   1.00
N20    N     0.97720   0.10320   0.38190   0.01267  Uiso   1.00
N21    N     0.85510   0.53180   0.93170   0.01267  Uiso   1.00
N22    N     0.12840   0.61460   0.94040   0.01267  Uiso   1.00
N23    N     0.26820   0.26470   0.97570   0.01267  Uiso   1.00
N24    N     0.02280   0.89680   0.61810   0.01267  Uiso   1.00
