data_image0
_cell_length_a       14.754
_cell_length_b       23.596
_cell_length_c       9.273
_cell_angle_alpha    90
_cell_angle_beta     90
_cell_angle_gamma    90

_symmetry_space_group_name_H-M    "P 1"
_symmetry_int_tables_number       1

loop_
  _symmetry_equiv_pos_as_xyz
  'x, y, z'

loop_
  _atom_site_label
  _atom_site_occupancy
  _atom_site_fract_x
  _atom_site_fract_y
  _atom_site_fract_z
  _atom_site_thermal_displace_type
  _atom_site_B_iso_or_equiv
  _atom_site_type_symbol
  Fe1      1.0000 0.17543  0.80449  0.66387  Biso   1.000  Fe
  Cl1      1.0000 0.06554  0.74528  0.56670  Biso   1.000  Cl
  O1       1.0000 0.33680  0.87569  0.35850  Biso   1.000  O
  O2       1.0000 0.36680  0.92808  0.61010  Biso   1.000  O
  O3       1.0000 0.98240  0.93045  0.71570  Biso   1.000  O
  O4       1.0000 0.26830  0.86978  0.71750  Biso   1.000  O
  C1       1.0000 0.04320  0.89090  0.71750  Biso   1.000  C
  C2       1.0000 0.31040  0.88760  0.60940  Biso   1.000  C
  Fe2      1.0000 0.17543  0.30449  0.16387  Biso   1.000  Fe
  Cl2      1.0000 0.06554  0.24528  0.06670  Biso   1.000  Cl
  O5       1.0000 0.33680  0.37569  0.85850  Biso   1.000  O
  O6       1.0000 0.36680  0.42808  0.11010  Biso   1.000  O
  O7       1.0000 0.98240  0.43045  0.21570  Biso   1.000  O
  O8       1.0000 0.26830  0.36978  0.21750  Biso   1.000  O
  C3       1.0000 0.04320  0.39090  0.21750  Biso   1.000  C
  C4       1.0000 0.31040  0.38760  0.10940  Biso   1.000  C
  Fe3      1.0000 0.67543  0.80449  0.16387  Biso   1.000  Fe
  Cl3      1.0000 0.56554  0.74528  0.06670  Biso   1.000  Cl
  O9       1.0000 0.83680  0.87569  0.85850  Biso   1.000  O
  O10      1.0000 0.86680  0.92808  0.11010  Biso   1.000  O
  O11      1.0000 0.48240  0.93045  0.21570  Biso   1.000  O
  O12      1.0000 0.76830  0.86978  0.21750  Biso   1.000  O
  C5       1.0000 0.54320  0.89090  0.21750  Biso   1.000  C
  C6       1.0000 0.81040  0.88760  0.10940  Biso   1.000  C
  Fe4      1.0000 0.67543  0.30449  0.66387  Biso   1.000  Fe
  Cl4      1.0000 0.56554  0.24528  0.56670  Biso   1.000  Cl
  O13      1.0000 0.83680  0.37569  0.35850  Biso   1.000  O
  O14      1.0000 0.86680  0.42808  0.61010  Biso   1.000  O
  O15      1.0000 0.48240  0.43045  0.71570  Biso   1.000  O
  O16      1.0000 0.76830  0.36978  0.71750  Biso   1.000  O
  C7       1.0000 0.54320  0.39090  0.71750  Biso   1.000  C
  C8       1.0000 0.81040  0.38760  0.60940  Biso   1.000  C
  Fe5      1.0000 0.82457  0.19551  0.66387  Biso   1.000  Fe
  Cl5      1.0000 0.93446  0.25472  0.56670  Biso   1.000  Cl
  O17      1.0000 0.66320  0.12431  0.35850  Biso   1.000  O
  O18      1.0000 0.63320  0.07192  0.61010  Biso   1.000  O
  O19      1.0000 0.01760  0.06955  0.71570  Biso   1.000  O
  O20      1.0000 0.73170  0.13022  0.71750  Biso   1.000  O
  C9       1.0000 0.95680  0.10910  0.71750  Biso   1.000  C
  C10      1.0000 0.68960  0.11240  0.60940  Biso   1.000  C
  Fe6      1.0000 0.82457  0.69551  0.16387  Biso   1.000  Fe
  Cl6      1.0000 0.93446  0.75472  0.06670  Biso   1.000  Cl
  O21      1.0000 0.66320  0.62431  0.85850  Biso   1.000  O
  O22      1.0000 0.63320  0.57192  0.11010  Biso   1.000  O
  O23      1.0000 0.01760  0.56955  0.21570  Biso   1.000  O
  O24      1.0000 0.73170  0.63022  0.21750  Biso   1.000  O
  C11      1.0000 0.95680  0.60910  0.21750  Biso   1.000  C
  C12      1.0000 0.68960  0.61240  0.10940  Biso   1.000  C
  Fe7      1.0000 0.32457  0.19551  0.16387  Biso   1.000  Fe
  Cl7      1.0000 0.43446  0.25472  0.06670  Biso   1.000  Cl
  O25      1.0000 0.16320  0.12431  0.85850  Biso   1.000  O
  O26      1.0000 0.13320  0.07192  0.11010  Biso   1.000  O
  O27      1.0000 0.51760  0.06955  0.21570  Biso   1.000  O
  O28      1.0000 0.23170  0.13022  0.21750  Biso   1.000  O
  C13      1.0000 0.45680  0.10910  0.21750  Biso   1.000  C
  C14      1.0000 0.18960  0.11240  0.10940  Biso   1.000  C
  Fe8      1.0000 0.32457  0.69551  0.66387  Biso   1.000  Fe
  Cl8      1.0000 0.43446  0.75472  0.56670  Biso   1.000  Cl
  O29      1.0000 0.16320  0.62431  0.35850  Biso   1.000  O
  O30      1.0000 0.13320  0.57192  0.61010  Biso   1.000  O
  O31      1.0000 0.51760  0.56955  0.71570  Biso   1.000  O
  O32      1.0000 0.23170  0.63022  0.71750  Biso   1.000  O
  C15      1.0000 0.45680  0.60910  0.71750  Biso   1.000  C
  C16      1.0000 0.18960  0.61240  0.60940  Biso   1.000  C
  Fe9      1.0000 0.42543  0.44551  0.91387  Biso   1.000  Fe
  Cl9      1.0000 0.31554  0.50472  0.81670  Biso   1.000  Cl
  O33      1.0000 0.58680  0.37431  0.60850  Biso   1.000  O
  O34      1.0000 0.61680  0.32192  0.86010  Biso   1.000  O
  O35      1.0000 0.23240  0.31955  0.96570  Biso   1.000  O
  O36      1.0000 0.51830  0.38022  0.96750  Biso   1.000  O
  C17      1.0000 0.29320  0.35910  0.96750  Biso   1.000  C
  C18      1.0000 0.56040  0.36240  0.85940  Biso   1.000  C
  Fe10     1.0000 0.42543  0.94551  0.41387  Biso   1.000  Fe
  Cl10     1.0000 0.31554  0.00472  0.31670  Biso   1.000  Cl
  O37      1.0000 0.58680  0.87431  0.10850  Biso   1.000  O
  O38      1.0000 0.61680  0.82192  0.36010  Biso   1.000  O
  O39      1.0000 0.23240  0.81955  0.46570  Biso   1.000  O
  O40      1.0000 0.51830  0.88022  0.46750  Biso   1.000  O
  C19      1.0000 0.29320  0.85910  0.46750  Biso   1.000  C
  C20      1.0000 0.56040  0.86240  0.35940  Biso   1.000  C
  Fe11     1.0000 0.92543  0.44551  0.41387  Biso   1.000  Fe
  Cl11     1.0000 0.81554  0.50472  0.31670  Biso   1.000  Cl
  O41      1.0000 0.08680  0.37431  0.10850  Biso   1.000  O
  O42      1.0000 0.11680  0.32192  0.36010  Biso   1.000  O
  O43      1.0000 0.73240  0.31955  0.46570  Biso   1.000  O
  O44      1.0000 0.01830  0.38022  0.46750  Biso   1.000  O
  C21      1.0000 0.79320  0.35910  0.46750  Biso   1.000  C
  C22      1.0000 0.06040  0.36240  0.35940  Biso   1.000  C
  Fe12     1.0000 0.92543  0.94551  0.91387  Biso   1.000  Fe
  Cl12     1.0000 0.81554  0.00472  0.81670  Biso   1.000  Cl
  O45      1.0000 0.08680  0.87431  0.60850  Biso   1.000  O
  O46      1.0000 0.11680  0.82192  0.86010  Biso   1.000  O
  O47      1.0000 0.73240  0.81955  0.96570  Biso   1.000  O
  O48      1.0000 0.01830  0.88022  0.96750  Biso   1.000  O
  C23      1.0000 0.79320  0.85910  0.96750  Biso   1.000  C
  C24      1.0000 0.06040  0.86240  0.85940  Biso   1.000  C
  Fe13     1.0000 0.07457  0.05449  0.91387  Biso   1.000  Fe
  Cl13     1.0000 0.18446  0.99528  0.81670  Biso   1.000  Cl
  O49      1.0000 0.91320  0.12569  0.60850  Biso   1.000  O
  O50      1.0000 0.88320  0.17808  0.86010  Biso   1.000  O
  O51      1.0000 0.26760  0.18045  0.96570  Biso   1.000  O
  O52      1.0000 0.98170  0.11978  0.96750  Biso   1.000  O
  C25      1.0000 0.20680  0.14090  0.96750  Biso   1.000  C
  C26      1.0000 0.93960  0.13760  0.85940  Biso   1.000  C
  Fe14     1.0000 0.07457  0.55449  0.41387  Biso   1.000  Fe
  Cl14     1.0000 0.18446  0.49528  0.31670  Biso   1.000  Cl
  O53      1.0000 0.91320  0.62569  0.10850  Biso   1.000  O
  O54      1.0000 0.88320  0.67808  0.36010  Biso   1.000  O
  O55      1.0000 0.26760  0.68045  0.46570  Biso   1.000  O
  O56      1.0000 0.98170  0.61978  0.46750  Biso   1.000  O
  C27      1.0000 0.20680  0.64090  0.46750  Biso   1.000  C
  C28      1.0000 0.93960  0.63760  0.35940  Biso   1.000  C
  Fe15     1.0000 0.57457  0.05449  0.41387  Biso   1.000  Fe
  Cl15     1.0000 0.68446  0.99528  0.31670  Biso   1.000  Cl
  O57      1.0000 0.41320  0.12569  0.10850  Biso   1.000  O
  O58      1.0000 0.38320  0.17808  0.36010  Biso   1.000  O
  O59      1.0000 0.76760  0.18045  0.46570  Biso   1.000  O
  O60      1.0000 0.48170  0.11978  0.46750  Biso   1.000  O
  C29      1.0000 0.70680  0.14090  0.46750  Biso   1.000  C
  C30      1.0000 0.43960  0.13760  0.35940  Biso   1.000  C
  Fe16     1.0000 0.57457  0.55449  0.91387  Biso   1.000  Fe
  Cl16     1.0000 0.68446  0.49528  0.81670  Biso   1.000  Cl
  O61      1.0000 0.41320  0.62569  0.60850  Biso   1.000  O
  O62      1.0000 0.38320  0.67808  0.86010  Biso   1.000  O
  O63      1.0000 0.76760  0.68045  0.96570  Biso   1.000  O
  O64      1.0000 0.48170  0.61978  0.96750  Biso   1.000  O
  C31      1.0000 0.70680  0.64090  0.96750  Biso   1.000  C
  C32      1.0000 0.43960  0.63760  0.85940  Biso   1.000  C
  O65      1.0000 0.25000  0.75000  0.73760  Biso   1.000  O
  O66      1.0000 0.25000  0.25000  0.23760  Biso   1.000  O
  O67      1.0000 0.75000  0.25000  0.73760  Biso   1.000  O
  O68      1.0000 0.75000  0.75000  0.23760  Biso   1.000  O
  O69      1.0000 0.50000  0.50000  0.98760  Biso   1.000  O
  O70      1.0000 0.50000  0.00000  0.48760  Biso   1.000  O
  O71      1.0000 0.00000  0.00000  0.98760  Biso   1.000  O
  O72      1.0000 0.00000  0.50000  0.48760  Biso   1.000  O
