data_image0
_cell_length_a       19.666
_cell_length_b       19.666
_cell_length_c       19.666
_cell_angle_alpha    90
_cell_angle_beta     90
_cell_angle_gamma    90

_symmetry_space_group_name_H-M    "P 1"
_symmetry_int_tables_number       1

loop_
  _symmetry_equiv_pos_as_xyz
  'x, y, z'

loop_
  _atom_site_label
  _atom_site_occupancy
  _atom_site_fract_x
  _atom_site_fract_y
  _atom_site_fract_z
  _atom_site_thermal_displace_type
  _atom_site_B_iso_or_equiv
  _atom_site_type_symbol
  N1       1.0000 0.24980  0.67960  0.32240  Biso   1.000  N
  C1       1.0000 0.19390  0.74410  0.60970  Biso   1.000  C
  H1       1.0000 0.15270  0.74080  0.63280  Biso   1.000  H
  C2       1.0000 0.19270  0.74240  0.53910  Biso   1.000  C
  H2       1.0000 0.15150  0.73590  0.51670  Biso   1.000  H
  C3       1.0000 0.24840  0.68780  0.39250  Biso   1.000  C
  C4       1.0000 0.24760  0.62280  0.42610  Biso   1.000  C
  H3       1.0000 0.24680  0.61530  0.47280  Biso   1.000  H
  C5       1.0000 0.24840  0.57550  0.37760  Biso   1.000  C
  H4       1.0000 0.24740  0.52870  0.38440  Biso   1.000  H
  C6       1.0000 0.25110  0.60970  0.31260  Biso   1.000  C
  C7       1.0000 0.30680  0.46670  0.24570  Biso   1.000  C
  H5       1.0000 0.34810  0.48940  0.24110  Biso   1.000  H
  C8       1.0000 0.30640  0.39690  0.24790  Biso   1.000  C
  H6       1.0000 0.34790  0.37430  0.24790  Biso   1.000  H
  N2       1.0000 0.25020  0.82040  0.32240  Biso   1.000  N
  C9       1.0000 0.30610  0.75590  0.60970  Biso   1.000  C
  H7       1.0000 0.34730  0.75920  0.63280  Biso   1.000  H
  C10      1.0000 0.30730  0.75760  0.53910  Biso   1.000  C
  H8       1.0000 0.34850  0.76410  0.51670  Biso   1.000  H
  C11      1.0000 0.25160  0.81220  0.39250  Biso   1.000  C
  C12      1.0000 0.25240  0.87720  0.42610  Biso   1.000  C
  H9       1.0000 0.25320  0.88470  0.47280  Biso   1.000  H
  C13      1.0000 0.25160  0.92450  0.37760  Biso   1.000  C
  H10      1.0000 0.25260  0.97130  0.38440  Biso   1.000  H
  C14      1.0000 0.24890  0.89030  0.31260  Biso   1.000  C
  C15      1.0000 0.19320  0.03330  0.24570  Biso   1.000  C
  H11      1.0000 0.15190  0.01060  0.24110  Biso   1.000  H
  C16      1.0000 0.19360  0.10310  0.24790  Biso   1.000  C
  H12      1.0000 0.15210  0.12570  0.24790  Biso   1.000  H
  N3       1.0000 0.25020  0.67960  0.17760  Biso   1.000  N
  C17      1.0000 0.30610  0.74410  0.89030  Biso   1.000  C
  H13      1.0000 0.34730  0.74080  0.86720  Biso   1.000  H
  C18      1.0000 0.30730  0.74240  0.96090  Biso   1.000  C
  H14      1.0000 0.34850  0.73590  0.98330  Biso   1.000  H
  C19      1.0000 0.25160  0.68780  0.10750  Biso   1.000  C
  C20      1.0000 0.25240  0.62280  0.07390  Biso   1.000  C
  H15      1.0000 0.25320  0.61530  0.02720  Biso   1.000  H
  C21      1.0000 0.25160  0.57550  0.12240  Biso   1.000  C
  H16      1.0000 0.25260  0.52870  0.11560  Biso   1.000  H
  C22      1.0000 0.24890  0.60970  0.18740  Biso   1.000  C
  C23      1.0000 0.19320  0.46670  0.25430  Biso   1.000  C
  H17      1.0000 0.15190  0.48940  0.25890  Biso   1.000  H
  C24      1.0000 0.19360  0.39690  0.25210  Biso   1.000  C
  H18      1.0000 0.15210  0.37430  0.25210  Biso   1.000  H
  N4       1.0000 0.24980  0.82040  0.17760  Biso   1.000  N
  C25      1.0000 0.19390  0.75590  0.89030  Biso   1.000  C
  H19      1.0000 0.15270  0.75920  0.86720  Biso   1.000  H
  C26      1.0000 0.19270  0.75760  0.96090  Biso   1.000  C
  H20      1.0000 0.15150  0.76410  0.98330  Biso   1.000  H
  C27      1.0000 0.24840  0.81220  0.10750  Biso   1.000  C
  C28      1.0000 0.24760  0.87720  0.07390  Biso   1.000  C
  H21      1.0000 0.24680  0.88470  0.02720  Biso   1.000  H
  C29      1.0000 0.24840  0.92450  0.12240  Biso   1.000  C
  H22      1.0000 0.24740  0.97130  0.11560  Biso   1.000  H
  C30      1.0000 0.25110  0.89030  0.18740  Biso   1.000  C
  C31      1.0000 0.30680  0.03330  0.25430  Biso   1.000  C
  H23      1.0000 0.34810  0.01060  0.25890  Biso   1.000  H
  C32      1.0000 0.30640  0.10310  0.25210  Biso   1.000  C
  H24      1.0000 0.34790  0.12570  0.25210  Biso   1.000  H
  N5       1.0000 0.32240  0.24980  0.67960  Biso   1.000  N
  C33      1.0000 0.60970  0.19390  0.74410  Biso   1.000  C
  H25      1.0000 0.63280  0.15270  0.74080  Biso   1.000  H
  C34      1.0000 0.53910  0.19270  0.74240  Biso   1.000  C
  H26      1.0000 0.51670  0.15150  0.73590  Biso   1.000  H
  C35      1.0000 0.39250  0.24840  0.68780  Biso   1.000  C
  C36      1.0000 0.42610  0.24760  0.62280  Biso   1.000  C
  H27      1.0000 0.47280  0.24680  0.61530  Biso   1.000  H
  C37      1.0000 0.37760  0.24840  0.57550  Biso   1.000  C
  H28      1.0000 0.38440  0.24740  0.52870  Biso   1.000  H
  C38      1.0000 0.31260  0.25110  0.60970  Biso   1.000  C
  C39      1.0000 0.24570  0.30680  0.46670  Biso   1.000  C
  H29      1.0000 0.24110  0.34810  0.48940  Biso   1.000  H
  C40      1.0000 0.24790  0.30640  0.39690  Biso   1.000  C
  H30      1.0000 0.24790  0.34790  0.37430  Biso   1.000  H
  N6       1.0000 0.32240  0.25020  0.82040  Biso   1.000  N
  C41      1.0000 0.60970  0.30610  0.75590  Biso   1.000  C
  H31      1.0000 0.63280  0.34730  0.75920  Biso   1.000  H
  C42      1.0000 0.53910  0.30730  0.75760  Biso   1.000  C
  H32      1.0000 0.51670  0.34850  0.76410  Biso   1.000  H
  C43      1.0000 0.39250  0.25160  0.81220  Biso   1.000  C
  C44      1.0000 0.42610  0.25240  0.87720  Biso   1.000  C
  H33      1.0000 0.47280  0.25320  0.88470  Biso   1.000  H
  C45      1.0000 0.37760  0.25160  0.92450  Biso   1.000  C
  H34      1.0000 0.38440  0.25260  0.97130  Biso   1.000  H
  C46      1.0000 0.31260  0.24890  0.89030  Biso   1.000  C
  C47      1.0000 0.24570  0.19320  0.03330  Biso   1.000  C
  H35      1.0000 0.24110  0.15190  0.01060  Biso   1.000  H
  C48      1.0000 0.24790  0.19360  0.10310  Biso   1.000  C
  H36      1.0000 0.24790  0.15210  0.12570  Biso   1.000  H
  N7       1.0000 0.17760  0.25020  0.67960  Biso   1.000  N
  C49      1.0000 0.89030  0.30610  0.74410  Biso   1.000  C
  H37      1.0000 0.86720  0.34730  0.74080  Biso   1.000  H
  C50      1.0000 0.96090  0.30730  0.74240  Biso   1.000  C
  H38      1.0000 0.98330  0.34850  0.73590  Biso   1.000  H
  C51      1.0000 0.10750  0.25160  0.68780  Biso   1.000  C
  C52      1.0000 0.07390  0.25240  0.62280  Biso   1.000  C
  H39      1.0000 0.02720  0.25320  0.61530  Biso   1.000  H
  C53      1.0000 0.12240  0.25160  0.57550  Biso   1.000  C
  H40      1.0000 0.11560  0.25260  0.52870  Biso   1.000  H
  C54      1.0000 0.18740  0.24890  0.60970  Biso   1.000  C
  C55      1.0000 0.25430  0.19320  0.46670  Biso   1.000  C
  H41      1.0000 0.25890  0.15190  0.48940  Biso   1.000  H
  C56      1.0000 0.25210  0.19360  0.39690  Biso   1.000  C
  H42      1.0000 0.25210  0.15210  0.37430  Biso   1.000  H
  N8       1.0000 0.17760  0.24980  0.82040  Biso   1.000  N
  C57      1.0000 0.89030  0.19390  0.75590  Biso   1.000  C
  H43      1.0000 0.86720  0.15270  0.75920  Biso   1.000  H
  C58      1.0000 0.96090  0.19270  0.75760  Biso   1.000  C
  H44      1.0000 0.98330  0.15150  0.76410  Biso   1.000  H
  C59      1.0000 0.10750  0.24840  0.81220  Biso   1.000  C
  C60      1.0000 0.07390  0.24760  0.87720  Biso   1.000  C
  H45      1.0000 0.02720  0.24680  0.88470  Biso   1.000  H
  C61      1.0000 0.12240  0.24840  0.92450  Biso   1.000  C
  H46      1.0000 0.11560  0.24740  0.97130  Biso   1.000  H
  C62      1.0000 0.18740  0.25110  0.89030  Biso   1.000  C
  C63      1.0000 0.25430  0.30680  0.03330  Biso   1.000  C
  H47      1.0000 0.25890  0.34810  0.01060  Biso   1.000  H
  C64      1.0000 0.25210  0.30640  0.10310  Biso   1.000  C
  H48      1.0000 0.25210  0.34790  0.12570  Biso   1.000  H
  N9       1.0000 0.67960  0.32240  0.24980  Biso   1.000  N
  C65      1.0000 0.74410  0.60970  0.19390  Biso   1.000  C
  H49      1.0000 0.74080  0.63280  0.15270  Biso   1.000  H
  C66      1.0000 0.74240  0.53910  0.19270  Biso   1.000  C
  H50      1.0000 0.73590  0.51670  0.15150  Biso   1.000  H
  C67      1.0000 0.68780  0.39250  0.24840  Biso   1.000  C
  C68      1.0000 0.62280  0.42610  0.24760  Biso   1.000  C
  H51      1.0000 0.61530  0.47280  0.24680  Biso   1.000  H
  C69      1.0000 0.57550  0.37760  0.24840  Biso   1.000  C
  H52      1.0000 0.52870  0.38440  0.24740  Biso   1.000  H
  C70      1.0000 0.60970  0.31260  0.25110  Biso   1.000  C
  C71      1.0000 0.46670  0.24570  0.30680  Biso   1.000  C
  H53      1.0000 0.48940  0.24110  0.34810  Biso   1.000  H
  C72      1.0000 0.39690  0.24790  0.30640  Biso   1.000  C
  H54      1.0000 0.37430  0.24790  0.34790  Biso   1.000  H
  N10      1.0000 0.82040  0.32240  0.25020  Biso   1.000  N
  C73      1.0000 0.75590  0.60970  0.30610  Biso   1.000  C
  H55      1.0000 0.75920  0.63280  0.34730  Biso   1.000  H
  C74      1.0000 0.75760  0.53910  0.30730  Biso   1.000  C
  H56      1.0000 0.76410  0.51670  0.34850  Biso   1.000  H
  C75      1.0000 0.81220  0.39250  0.25160  Biso   1.000  C
  C76      1.0000 0.87720  0.42610  0.25240  Biso   1.000  C
  H57      1.0000 0.88470  0.47280  0.25320  Biso   1.000  H
  C77      1.0000 0.92450  0.37760  0.25160  Biso   1.000  C
  H58      1.0000 0.97130  0.38440  0.25260  Biso   1.000  H
  C78      1.0000 0.89030  0.31260  0.24890  Biso   1.000  C
  C79      1.0000 0.03330  0.24570  0.19320  Biso   1.000  C
  H59      1.0000 0.01060  0.24110  0.15190  Biso   1.000  H
  C80      1.0000 0.10310  0.24790  0.19360  Biso   1.000  C
  H60      1.0000 0.12570  0.24790  0.15210  Biso   1.000  H
  N11      1.0000 0.67960  0.17760  0.25020  Biso   1.000  N
  C81      1.0000 0.74410  0.89030  0.30610  Biso   1.000  C
  H61      1.0000 0.74080  0.86720  0.34730  Biso   1.000  H
  C82      1.0000 0.74240  0.96090  0.30730  Biso   1.000  C
  H62      1.0000 0.73590  0.98330  0.34850  Biso   1.000  H
  C83      1.0000 0.68780  0.10750  0.25160  Biso   1.000  C
  C84      1.0000 0.62280  0.07390  0.25240  Biso   1.000  C
  H63      1.0000 0.61530  0.02720  0.25320  Biso   1.000  H
  C85      1.0000 0.57550  0.12240  0.25160  Biso   1.000  C
  H64      1.0000 0.52870  0.11560  0.25260  Biso   1.000  H
  C86      1.0000 0.60970  0.18740  0.24890  Biso   1.000  C
  C87      1.0000 0.46670  0.25430  0.19320  Biso   1.000  C
  H65      1.0000 0.48940  0.25890  0.15190  Biso   1.000  H
  C88      1.0000 0.39690  0.25210  0.19360  Biso   1.000  C
  H66      1.0000 0.37430  0.25210  0.15210  Biso   1.000  H
  N12      1.0000 0.82040  0.17760  0.24980  Biso   1.000  N
  C89      1.0000 0.75590  0.89030  0.19390  Biso   1.000  C
  H67      1.0000 0.75920  0.86720  0.15270  Biso   1.000  H
  C90      1.0000 0.75760  0.96090  0.19270  Biso   1.000  C
  H68      1.0000 0.76410  0.98330  0.15150  Biso   1.000  H
  C91      1.0000 0.81220  0.10750  0.24840  Biso   1.000  C
  C92      1.0000 0.87720  0.07390  0.24760  Biso   1.000  C
  H69      1.0000 0.88470  0.02720  0.24680  Biso   1.000  H
  C93      1.0000 0.92450  0.12240  0.24840  Biso   1.000  C
  H70      1.0000 0.97130  0.11560  0.24740  Biso   1.000  H
  C94      1.0000 0.89030  0.18740  0.25110  Biso   1.000  C
  C95      1.0000 0.03330  0.25430  0.30680  Biso   1.000  C
  H71      1.0000 0.01060  0.25890  0.34810  Biso   1.000  H
  C96      1.0000 0.10310  0.25210  0.30640  Biso   1.000  C
  H72      1.0000 0.12570  0.25210  0.34790  Biso   1.000  H
  N13      1.0000 0.75020  0.32040  0.67760  Biso   1.000  N
  C97      1.0000 0.80610  0.25590  0.39030  Biso   1.000  C
  H73      1.0000 0.84730  0.25920  0.36720  Biso   1.000  H
  C98      1.0000 0.80730  0.25760  0.46090  Biso   1.000  C
  H74      1.0000 0.84850  0.26410  0.48330  Biso   1.000  H
  C99      1.0000 0.75160  0.31220  0.60750  Biso   1.000  C
  C100     1.0000 0.75240  0.37720  0.57390  Biso   1.000  C
  H75      1.0000 0.75320  0.38470  0.52720  Biso   1.000  H
  C101     1.0000 0.75160  0.42450  0.62240  Biso   1.000  C
  H76      1.0000 0.75260  0.47130  0.61560  Biso   1.000  H
  C102     1.0000 0.74890  0.39030  0.68740  Biso   1.000  C
  C103     1.0000 0.69320  0.53330  0.75430  Biso   1.000  C
  H77      1.0000 0.65190  0.51060  0.75890  Biso   1.000  H
  C104     1.0000 0.69360  0.60310  0.75210  Biso   1.000  C
  H78      1.0000 0.65210  0.62570  0.75210  Biso   1.000  H
  N14      1.0000 0.74980  0.17960  0.67760  Biso   1.000  N
  C105     1.0000 0.69390  0.24410  0.39030  Biso   1.000  C
  H79      1.0000 0.65270  0.24080  0.36720  Biso   1.000  H
  C106     1.0000 0.69270  0.24240  0.46090  Biso   1.000  C
  H80      1.0000 0.65150  0.23590  0.48330  Biso   1.000  H
  C107     1.0000 0.74840  0.18780  0.60750  Biso   1.000  C
  C108     1.0000 0.74760  0.12280  0.57390  Biso   1.000  C
  H81      1.0000 0.74680  0.11530  0.52720  Biso   1.000  H
  C109     1.0000 0.74840  0.07550  0.62240  Biso   1.000  C
  H82      1.0000 0.74740  0.02870  0.61560  Biso   1.000  H
  C110     1.0000 0.75110  0.10970  0.68740  Biso   1.000  C
  C111     1.0000 0.80680  0.96670  0.75430  Biso   1.000  C
  H83      1.0000 0.84810  0.98940  0.75890  Biso   1.000  H
  C112     1.0000 0.80640  0.89690  0.75210  Biso   1.000  C
  H84      1.0000 0.84790  0.87430  0.75210  Biso   1.000  H
  N15      1.0000 0.74980  0.32040  0.82240  Biso   1.000  N
  C113     1.0000 0.69390  0.25590  0.10970  Biso   1.000  C
  H85      1.0000 0.65270  0.25920  0.13280  Biso   1.000  H
  C114     1.0000 0.69270  0.25760  0.03910  Biso   1.000  C
  H86      1.0000 0.65150  0.26410  0.01670  Biso   1.000  H
  C115     1.0000 0.74840  0.31220  0.89250  Biso   1.000  C
  C116     1.0000 0.74760  0.37720  0.92610  Biso   1.000  C
  H87      1.0000 0.74680  0.38470  0.97280  Biso   1.000  H
  C117     1.0000 0.74840  0.42450  0.87760  Biso   1.000  C
  H88      1.0000 0.74740  0.47130  0.88440  Biso   1.000  H
  C118     1.0000 0.75110  0.39030  0.81260  Biso   1.000  C
  C119     1.0000 0.80680  0.53330  0.74570  Biso   1.000  C
  H89      1.0000 0.84810  0.51060  0.74110  Biso   1.000  H
  C120     1.0000 0.80640  0.60310  0.74790  Biso   1.000  C
  H90      1.0000 0.84790  0.62570  0.74790  Biso   1.000  H
  N16      1.0000 0.75020  0.17960  0.82240  Biso   1.000  N
  C121     1.0000 0.80610  0.24410  0.10970  Biso   1.000  C
  H91      1.0000 0.84730  0.24080  0.13280  Biso   1.000  H
  C122     1.0000 0.80730  0.24240  0.03910  Biso   1.000  C
  H92      1.0000 0.84850  0.23590  0.01670  Biso   1.000  H
  C123     1.0000 0.75160  0.18780  0.89250  Biso   1.000  C
  C124     1.0000 0.75240  0.12280  0.92610  Biso   1.000  C
  H93      1.0000 0.75320  0.11530  0.97280  Biso   1.000  H
  C125     1.0000 0.75160  0.07550  0.87760  Biso   1.000  C
  H94      1.0000 0.75260  0.02870  0.88440  Biso   1.000  H
  C126     1.0000 0.74890  0.10970  0.81260  Biso   1.000  C
  C127     1.0000 0.69320  0.96670  0.74570  Biso   1.000  C
  H95      1.0000 0.65190  0.98940  0.74110  Biso   1.000  H
  C128     1.0000 0.69360  0.89690  0.74790  Biso   1.000  C
  H96      1.0000 0.65210  0.87430  0.74790  Biso   1.000  H
  N17      1.0000 0.67760  0.75020  0.32040  Biso   1.000  N
  C129     1.0000 0.39030  0.80610  0.25590  Biso   1.000  C
  H97      1.0000 0.36720  0.84730  0.25920  Biso   1.000  H
  C130     1.0000 0.46090  0.80730  0.25760  Biso   1.000  C
  H98      1.0000 0.48330  0.84850  0.26410  Biso   1.000  H
  C131     1.0000 0.60750  0.75160  0.31220  Biso   1.000  C
  C132     1.0000 0.57390  0.75240  0.37720  Biso   1.000  C
  H99      1.0000 0.52720  0.75320  0.38470  Biso   1.000  H
  C133     1.0000 0.62240  0.75160  0.42450  Biso   1.000  C
  H100     1.0000 0.61560  0.75260  0.47130  Biso   1.000  H
  C134     1.0000 0.68740  0.74890  0.39030  Biso   1.000  C
  C135     1.0000 0.75430  0.69320  0.53330  Biso   1.000  C
  H101     1.0000 0.75890  0.65190  0.51060  Biso   1.000  H
  C136     1.0000 0.75210  0.69360  0.60310  Biso   1.000  C
  H102     1.0000 0.75210  0.65210  0.62570  Biso   1.000  H
  N18      1.0000 0.67760  0.74980  0.17960  Biso   1.000  N
  C137     1.0000 0.39030  0.69390  0.24410  Biso   1.000  C
  H103     1.0000 0.36720  0.65270  0.24080  Biso   1.000  H
  C138     1.0000 0.46090  0.69270  0.24240  Biso   1.000  C
  H104     1.0000 0.48330  0.65150  0.23590  Biso   1.000  H
  C139     1.0000 0.60750  0.74840  0.18780  Biso   1.000  C
  C140     1.0000 0.57390  0.74760  0.12280  Biso   1.000  C
  H105     1.0000 0.52720  0.74680  0.11530  Biso   1.000  H
  C141     1.0000 0.62240  0.74840  0.07550  Biso   1.000  C
  H106     1.0000 0.61560  0.74740  0.02870  Biso   1.000  H
  C142     1.0000 0.68740  0.75110  0.10970  Biso   1.000  C
  C143     1.0000 0.75430  0.80680  0.96670  Biso   1.000  C
  H107     1.0000 0.75890  0.84810  0.98940  Biso   1.000  H
  C144     1.0000 0.75210  0.80640  0.89690  Biso   1.000  C
  H108     1.0000 0.75210  0.84790  0.87430  Biso   1.000  H
  N19      1.0000 0.82240  0.74980  0.32040  Biso   1.000  N
  C145     1.0000 0.10970  0.69390  0.25590  Biso   1.000  C
  H109     1.0000 0.13280  0.65270  0.25920  Biso   1.000  H
  C146     1.0000 0.03910  0.69270  0.25760  Biso   1.000  C
  H110     1.0000 0.01670  0.65150  0.26410  Biso   1.000  H
  C147     1.0000 0.89250  0.74840  0.31220  Biso   1.000  C
  C148     1.0000 0.92610  0.74760  0.37720  Biso   1.000  C
  H111     1.0000 0.97280  0.74680  0.38470  Biso   1.000  H
  C149     1.0000 0.87760  0.74840  0.42450  Biso   1.000  C
  H112     1.0000 0.88440  0.74740  0.47130  Biso   1.000  H
  C150     1.0000 0.81260  0.75110  0.39030  Biso   1.000  C
  C151     1.0000 0.74570  0.80680  0.53330  Biso   1.000  C
  H113     1.0000 0.74110  0.84810  0.51060  Biso   1.000  H
  C152     1.0000 0.74790  0.80640  0.60310  Biso   1.000  C
  H114     1.0000 0.74790  0.84790  0.62570  Biso   1.000  H
  N20      1.0000 0.82240  0.75020  0.17960  Biso   1.000  N
  C153     1.0000 0.10970  0.80610  0.24410  Biso   1.000  C
  H115     1.0000 0.13280  0.84730  0.24080  Biso   1.000  H
  C154     1.0000 0.03910  0.80730  0.24240  Biso   1.000  C
  H116     1.0000 0.01670  0.84850  0.23590  Biso   1.000  H
  C155     1.0000 0.89250  0.75160  0.18780  Biso   1.000  C
  C156     1.0000 0.92610  0.75240  0.12280  Biso   1.000  C
  H117     1.0000 0.97280  0.75320  0.11530  Biso   1.000  H
  C157     1.0000 0.87760  0.75160  0.07550  Biso   1.000  C
  H118     1.0000 0.88440  0.75260  0.02870  Biso   1.000  H
  C158     1.0000 0.81260  0.74890  0.10970  Biso   1.000  C
  C159     1.0000 0.74570  0.69320  0.96670  Biso   1.000  C
  H119     1.0000 0.74110  0.65190  0.98940  Biso   1.000  H
  C160     1.0000 0.74790  0.69360  0.89690  Biso   1.000  C
  H120     1.0000 0.74790  0.65210  0.87430  Biso   1.000  H
  N21      1.0000 0.32040  0.67760  0.75020  Biso   1.000  N
  C161     1.0000 0.25590  0.39030  0.80610  Biso   1.000  C
  H121     1.0000 0.25920  0.36720  0.84730  Biso   1.000  H
  C162     1.0000 0.25760  0.46090  0.80730  Biso   1.000  C
  H122     1.0000 0.26410  0.48330  0.84850  Biso   1.000  H
  C163     1.0000 0.31220  0.60750  0.75160  Biso   1.000  C
  C164     1.0000 0.37720  0.57390  0.75240  Biso   1.000  C
  H123     1.0000 0.38470  0.52720  0.75320  Biso   1.000  H
  C165     1.0000 0.42450  0.62240  0.75160  Biso   1.000  C
  H124     1.0000 0.47130  0.61560  0.75260  Biso   1.000  H
  C166     1.0000 0.39030  0.68740  0.74890  Biso   1.000  C
  C167     1.0000 0.53330  0.75430  0.69320  Biso   1.000  C
  H125     1.0000 0.51060  0.75890  0.65190  Biso   1.000  H
  C168     1.0000 0.60310  0.75210  0.69360  Biso   1.000  C
  H126     1.0000 0.62570  0.75210  0.65210  Biso   1.000  H
  N22      1.0000 0.17960  0.67760  0.74980  Biso   1.000  N
  C169     1.0000 0.24410  0.39030  0.69390  Biso   1.000  C
  H127     1.0000 0.24080  0.36720  0.65270  Biso   1.000  H
  C170     1.0000 0.24240  0.46090  0.69270  Biso   1.000  C
  H128     1.0000 0.23590  0.48330  0.65150  Biso   1.000  H
  C171     1.0000 0.18780  0.60750  0.74840  Biso   1.000  C
  C172     1.0000 0.12280  0.57390  0.74760  Biso   1.000  C
  H129     1.0000 0.11530  0.52720  0.74680  Biso   1.000  H
  C173     1.0000 0.07550  0.62240  0.74840  Biso   1.000  C
  H130     1.0000 0.02870  0.61560  0.74740  Biso   1.000  H
  C174     1.0000 0.10970  0.68740  0.75110  Biso   1.000  C
  C175     1.0000 0.96670  0.75430  0.80680  Biso   1.000  C
  H131     1.0000 0.98940  0.75890  0.84810  Biso   1.000  H
  C176     1.0000 0.89690  0.75210  0.80640  Biso   1.000  C
  H132     1.0000 0.87430  0.75210  0.84790  Biso   1.000  H
  N23      1.0000 0.32040  0.82240  0.74980  Biso   1.000  N
  C177     1.0000 0.25590  0.10970  0.69390  Biso   1.000  C
  H133     1.0000 0.25920  0.13280  0.65270  Biso   1.000  H
  C178     1.0000 0.25760  0.03910  0.69270  Biso   1.000  C
  H134     1.0000 0.26410  0.01670  0.65150  Biso   1.000  H
  C179     1.0000 0.31220  0.89250  0.74840  Biso   1.000  C
  C180     1.0000 0.37720  0.92610  0.74760  Biso   1.000  C
  H135     1.0000 0.38470  0.97280  0.74680  Biso   1.000  H
  C181     1.0000 0.42450  0.87760  0.74840  Biso   1.000  C
  H136     1.0000 0.47130  0.88440  0.74740  Biso   1.000  H
  C182     1.0000 0.39030  0.81260  0.75110  Biso   1.000  C
  C183     1.0000 0.53330  0.74570  0.80680  Biso   1.000  C
  H137     1.0000 0.51060  0.74110  0.84810  Biso   1.000  H
  C184     1.0000 0.60310  0.74790  0.80640  Biso   1.000  C
  H138     1.0000 0.62570  0.74790  0.84790  Biso   1.000  H
  N24      1.0000 0.17960  0.82240  0.75020  Biso   1.000  N
  C185     1.0000 0.24410  0.10970  0.80610  Biso   1.000  C
  H139     1.0000 0.24080  0.13280  0.84730  Biso   1.000  H
  C186     1.0000 0.24240  0.03910  0.80730  Biso   1.000  C
  H140     1.0000 0.23590  0.01670  0.84850  Biso   1.000  H
  C187     1.0000 0.18780  0.89250  0.75160  Biso   1.000  C
  C188     1.0000 0.12280  0.92610  0.75240  Biso   1.000  C
  H141     1.0000 0.11530  0.97280  0.75320  Biso   1.000  H
  C189     1.0000 0.07550  0.87760  0.75160  Biso   1.000  C
  H142     1.0000 0.02870  0.88440  0.75260  Biso   1.000  H
  C190     1.0000 0.10970  0.81260  0.74890  Biso   1.000  C
  C191     1.0000 0.96670  0.74570  0.69320  Biso   1.000  C
  H143     1.0000 0.98940  0.74110  0.65190  Biso   1.000  H
  C192     1.0000 0.89690  0.74790  0.69360  Biso   1.000  C
  H144     1.0000 0.87430  0.74790  0.65210  Biso   1.000  H
  Fe1      1.0000 0.25000  0.75000  0.25000  Biso   1.000  Fe
  Fe2      1.0000 0.25000  0.25000  0.75000  Biso   1.000  Fe
  Fe3      1.0000 0.75000  0.25000  0.25000  Biso   1.000  Fe
  Fe4      1.0000 0.75000  0.25000  0.75000  Biso   1.000  Fe
  Fe5      1.0000 0.75000  0.75000  0.25000  Biso   1.000  Fe
  Fe6      1.0000 0.25000  0.75000  0.75000  Biso   1.000  Fe
  Fe7      1.0000 0.25000  0.25000  0.25000  Biso   1.000  Fe
  Fe8      1.0000 0.75000  0.75000  0.75000  Biso   1.000  Fe
  N25      1.0000 0.25000  0.75000  0.64580  Biso   1.000  N
  C193     1.0000 0.25000  0.75000  0.50250  Biso   1.000  C
  C194     1.0000 0.25000  0.75000  0.42650  Biso   1.000  C
  N26      1.0000 0.25000  0.75000  0.85420  Biso   1.000  N
  C195     1.0000 0.25000  0.75000  0.99750  Biso   1.000  C
  C196     1.0000 0.25000  0.75000  0.07350  Biso   1.000  C
  N27      1.0000 0.64580  0.25000  0.75000  Biso   1.000  N
  C197     1.0000 0.50250  0.25000  0.75000  Biso   1.000  C
  C198     1.0000 0.42650  0.25000  0.75000  Biso   1.000  C
  N28      1.0000 0.85420  0.25000  0.75000  Biso   1.000  N
  C199     1.0000 0.99750  0.25000  0.75000  Biso   1.000  C
  C200     1.0000 0.07350  0.25000  0.75000  Biso   1.000  C
  N29      1.0000 0.75000  0.64580  0.25000  Biso   1.000  N
  C201     1.0000 0.75000  0.50250  0.25000  Biso   1.000  C
  C202     1.0000 0.75000  0.42650  0.25000  Biso   1.000  C
  N30      1.0000 0.75000  0.85420  0.25000  Biso   1.000  N
  C203     1.0000 0.75000  0.99750  0.25000  Biso   1.000  C
  C204     1.0000 0.75000  0.07350  0.25000  Biso   1.000  C
  N31      1.0000 0.75000  0.25000  0.35420  Biso   1.000  N
  C205     1.0000 0.75000  0.25000  0.49750  Biso   1.000  C
  C206     1.0000 0.75000  0.25000  0.57350  Biso   1.000  C
  N32      1.0000 0.75000  0.25000  0.14580  Biso   1.000  N
  C207     1.0000 0.75000  0.25000  0.00250  Biso   1.000  C
  C208     1.0000 0.75000  0.25000  0.92650  Biso   1.000  C
  N33      1.0000 0.35420  0.75000  0.25000  Biso   1.000  N
  C209     1.0000 0.49750  0.75000  0.25000  Biso   1.000  C
  C210     1.0000 0.57350  0.75000  0.25000  Biso   1.000  C
  N34      1.0000 0.14580  0.75000  0.25000  Biso   1.000  N
  C211     1.0000 0.00250  0.75000  0.25000  Biso   1.000  C
  C212     1.0000 0.92650  0.75000  0.25000  Biso   1.000  C
  N35      1.0000 0.25000  0.35420  0.75000  Biso   1.000  N
  C213     1.0000 0.25000  0.49750  0.75000  Biso   1.000  C
  C214     1.0000 0.25000  0.57350  0.75000  Biso   1.000  C
  N36      1.0000 0.25000  0.14580  0.75000  Biso   1.000  N
  C215     1.0000 0.25000  0.00250  0.75000  Biso   1.000  C
  C216     1.0000 0.25000  0.92650  0.75000  Biso   1.000  C
  N37      1.0000 0.25000  0.36010  0.25000  Biso   1.000  N
  C217     1.0000 0.25000  0.57750  0.25000  Biso   1.000  C
  C218     1.0000 0.25000  0.50250  0.25000  Biso   1.000  C
  N38      1.0000 0.25000  0.13990  0.25000  Biso   1.000  N
  C219     1.0000 0.25000  0.92250  0.25000  Biso   1.000  C
  C220     1.0000 0.25000  0.99750  0.25000  Biso   1.000  C
  N39      1.0000 0.25000  0.25000  0.36010  Biso   1.000  N
  C221     1.0000 0.25000  0.25000  0.57750  Biso   1.000  C
  C222     1.0000 0.25000  0.25000  0.50250  Biso   1.000  C
  N40      1.0000 0.25000  0.25000  0.13990  Biso   1.000  N
  C223     1.0000 0.25000  0.25000  0.92250  Biso   1.000  C
  C224     1.0000 0.25000  0.25000  0.99750  Biso   1.000  C
  N41      1.0000 0.36010  0.25000  0.25000  Biso   1.000  N
  C225     1.0000 0.57750  0.25000  0.25000  Biso   1.000  C
  C226     1.0000 0.50250  0.25000  0.25000  Biso   1.000  C
  N42      1.0000 0.13990  0.25000  0.25000  Biso   1.000  N
  C227     1.0000 0.92250  0.25000  0.25000  Biso   1.000  C
  C228     1.0000 0.99750  0.25000  0.25000  Biso   1.000  C
  N43      1.0000 0.75000  0.63990  0.75000  Biso   1.000  N
  C229     1.0000 0.75000  0.42250  0.75000  Biso   1.000  C
  C230     1.0000 0.75000  0.49750  0.75000  Biso   1.000  C
  N44      1.0000 0.75000  0.86010  0.75000  Biso   1.000  N
  C231     1.0000 0.75000  0.07750  0.75000  Biso   1.000  C
  C232     1.0000 0.75000  0.00250  0.75000  Biso   1.000  C
  N45      1.0000 0.75000  0.75000  0.63990  Biso   1.000  N
  C233     1.0000 0.75000  0.75000  0.42250  Biso   1.000  C
  C234     1.0000 0.75000  0.75000  0.49750  Biso   1.000  C
  N46      1.0000 0.75000  0.75000  0.86010  Biso   1.000  N
  C235     1.0000 0.75000  0.75000  0.07750  Biso   1.000  C
  C236     1.0000 0.75000  0.75000  0.00250  Biso   1.000  C
  N47      1.0000 0.63990  0.75000  0.75000  Biso   1.000  N
  C237     1.0000 0.42250  0.75000  0.75000  Biso   1.000  C
  C238     1.0000 0.49750  0.75000  0.75000  Biso   1.000  C
  N48      1.0000 0.86010  0.75000  0.75000  Biso   1.000  N
  C239     1.0000 0.07750  0.75000  0.75000  Biso   1.000  C
  C240     1.0000 0.00250  0.75000  0.75000  Biso   1.000  C
