data_CAZGIT_clean
_audit_creation_date              2014-07-02
_audit_creation_method            'Materials Studio'
_symmetry_space_group_name_H-M    'P1'
_symmetry_Int_Tables_number       1
_symmetry_cell_setting            triclinic
loop_
_symmetry_equiv_pos_as_xyz
  x,y,z
_cell_length_a                    9.5879
_cell_length_b                    21.8444
_cell_length_c                    21.8453
_cell_angle_alpha                 90.0000
_cell_angle_beta                  98.7850
_cell_angle_gamma                 90.0000
loop_
_atom_site_label
_atom_site_type_symbol
_atom_site_fract_x
_atom_site_fract_y
_atom_site_fract_z
_atom_site_U_iso_or_equiv
_atom_site_adp_type
_atom_site_occupancy
Cu1    Cu    0.94621   0.68985   0.85159   0.01267  Uiso   1.00
Cu2    Cu    0.45376   0.67182   0.67162   0.01267  Uiso   1.00
Cu3    Cu    0.49684   0.76040   0.25211   0.01267  Uiso   1.00
Cu4    Cu    0.55379   0.18985   0.14841   0.01267  Uiso   1.00
Cu5    Cu    0.04624   0.17182   0.32838   0.01267  Uiso   1.00
Cu6    Cu    0.00316   0.26040   0.74789   0.01267  Uiso   1.00
Cu7    Cu    0.05379   0.31015   0.14841   0.01267  Uiso   1.00
Cu8    Cu    0.54624   0.32818   0.32838   0.01267  Uiso   1.00
Cu9    Cu    0.50316   0.23960   0.74789   0.01267  Uiso   1.00
Cu10   Cu    0.44621   0.81015   0.85159   0.01267  Uiso   1.00
Cu11   Cu    0.95376   0.82818   0.67162   0.01267  Uiso   1.00
Cu12   Cu    0.99684   0.73960   0.25211   0.01267  Uiso   1.00
Mo1    Mo    0.88018   0.67308   0.64934   0.01267  Uiso   1.00
Mo2    Mo    0.54439   0.66313   0.84041   0.01267  Uiso   1.00
Mo3    Mo    0.68828   0.75092   0.73971   0.01267  Uiso   1.00
Mo4    Mo    0.61982   0.17308   0.35066   0.01267  Uiso   1.00
Mo5    Mo    0.95561   0.16313   0.15959   0.01267  Uiso   1.00
Mo6    Mo    0.81172   0.25092   0.26029   0.01267  Uiso   1.00
Mo7    Mo    0.11982   0.32692   0.35066   0.01267  Uiso   1.00
Mo8    Mo    0.45561   0.33687   0.15959   0.01267  Uiso   1.00
Mo9    Mo    0.31172   0.24908   0.26029   0.01267  Uiso   1.00
Mo10   Mo    0.38018   0.82692   0.64934   0.01267  Uiso   1.00
Mo11   Mo    0.04439   0.83687   0.84041   0.01267  Uiso   1.00
Mo12   Mo    0.18828   0.74908   0.73971   0.01267  Uiso   1.00
H1     H     0.90680   0.65640   0.98110   0.01267  Uiso   1.00
H2     H     0.23760   0.70020   0.90840   0.01267  Uiso   1.00
H3     H     0.02800   0.67590   0.07930   0.01267  Uiso   1.00
H4     H     0.36590   0.72320   0.00350   0.01267  Uiso   1.00
H5     H     0.71540   0.07290   0.17890   0.01267  Uiso   1.00
H6     H     0.31700   0.10880   0.16210   0.01267  Uiso   1.00
H7     H     0.26250   0.00660   0.18360   0.01267  Uiso   1.00
H8     H     0.66630   0.96990   0.20160   0.01267  Uiso   1.00
H9     H     0.56610   0.82910   0.49410   0.01267  Uiso   1.00
H10    H     0.68010   0.83680   0.59810   0.01267  Uiso   1.00
H11    H     0.04950   0.81500   0.55130   0.01267  Uiso   1.00
H12    H     0.95280   0.80590   0.44500   0.01267  Uiso   1.00
H13    H     0.76990   0.42150   0.32280   0.01267  Uiso   1.00
H14    H     0.35310   0.43080   0.32380   0.01267  Uiso   1.00
H15    H     0.77750   0.52970   0.30820   0.01267  Uiso   1.00
H16    H     0.35840   0.53570   0.30220   0.01267  Uiso   1.00
H17    H     0.17150   0.82780   0.05420   0.01267  Uiso   1.00
H18    H     0.26910   0.92450   0.10360   0.01267  Uiso   1.00
H19    H     0.57670   0.98250   0.31820   0.01267  Uiso   1.00
H20    H     0.67130   0.92660   0.41090   0.01267  Uiso   1.00
H21    H     0.78970   0.69250   0.45640   0.01267  Uiso   1.00
H22    H     0.71930   0.59560   0.40270   0.01267  Uiso   1.00
H23    H     0.45060   0.53960   0.18020   0.01267  Uiso   1.00
H24    H     0.31330   0.59500   0.09560   0.01267  Uiso   1.00
H25    H     0.59320   0.15640   0.01890   0.01267  Uiso   1.00
H26    H     0.26240   0.20020   0.09160   0.01267  Uiso   1.00
H27    H     0.47200   0.17590   0.92070   0.01267  Uiso   1.00
H28    H     0.13410   0.22320   0.99650   0.01267  Uiso   1.00
H29    H     0.78460   0.57290   0.82110   0.01267  Uiso   1.00
H30    H     0.18300   0.60880   0.83790   0.01267  Uiso   1.00
H31    H     0.23750   0.50660   0.81640   0.01267  Uiso   1.00
H32    H     0.83370   0.46990   0.79840   0.01267  Uiso   1.00
H33    H     0.93390   0.32910   0.50590   0.01267  Uiso   1.00
H34    H     0.81990   0.33680   0.40190   0.01267  Uiso   1.00
H35    H     0.45050   0.31500   0.44870   0.01267  Uiso   1.00
H36    H     0.54720   0.30590   0.55500   0.01267  Uiso   1.00
H37    H     0.73010   0.92150   0.67720   0.01267  Uiso   1.00
H38    H     0.14690   0.93080   0.67620   0.01267  Uiso   1.00
H39    H     0.72250   0.02970   0.69180   0.01267  Uiso   1.00
H40    H     0.14160   0.03570   0.69780   0.01267  Uiso   1.00
H41    H     0.32850   0.32780   0.94580   0.01267  Uiso   1.00
H42    H     0.23090   0.42450   0.89640   0.01267  Uiso   1.00
H43    H     0.92330   0.48250   0.68180   0.01267  Uiso   1.00
H44    H     0.82870   0.42660   0.58910   0.01267  Uiso   1.00
H45    H     0.71030   0.19250   0.54360   0.01267  Uiso   1.00
H46    H     0.78070   0.09560   0.59730   0.01267  Uiso   1.00
H47    H     0.04940   0.03960   0.81980   0.01267  Uiso   1.00
H48    H     0.18670   0.09500   0.90440   0.01267  Uiso   1.00
H49    H     0.09320   0.34360   0.01890   0.01267  Uiso   1.00
H50    H     0.76240   0.29980   0.09160   0.01267  Uiso   1.00
H51    H     0.97200   0.32410   0.92070   0.01267  Uiso   1.00
H52    H     0.63410   0.27680   0.99650   0.01267  Uiso   1.00
H53    H     0.28460   0.92710   0.82110   0.01267  Uiso   1.00
H54    H     0.68300   0.89120   0.83790   0.01267  Uiso   1.00
H55    H     0.73750   0.99340   0.81640   0.01267  Uiso   1.00
H56    H     0.33370   0.03010   0.79840   0.01267  Uiso   1.00
H57    H     0.43390   0.17090   0.50590   0.01267  Uiso   1.00
H58    H     0.31990   0.16320   0.40190   0.01267  Uiso   1.00
H59    H     0.95050   0.18500   0.44870   0.01267  Uiso   1.00
H60    H     0.04720   0.19410   0.55500   0.01267  Uiso   1.00
H61    H     0.23010   0.57850   0.67720   0.01267  Uiso   1.00
H62    H     0.64690   0.56920   0.67620   0.01267  Uiso   1.00
H63    H     0.22250   0.47030   0.69180   0.01267  Uiso   1.00
H64    H     0.64160   0.46430   0.69780   0.01267  Uiso   1.00
H65    H     0.82850   0.17220   0.94580   0.01267  Uiso   1.00
H66    H     0.73090   0.07550   0.89640   0.01267  Uiso   1.00
H67    H     0.42330   0.01750   0.68180   0.01267  Uiso   1.00
H68    H     0.32870   0.07340   0.58910   0.01267  Uiso   1.00
H69    H     0.21030   0.30750   0.54360   0.01267  Uiso   1.00
H70    H     0.28070   0.40440   0.59730   0.01267  Uiso   1.00
H71    H     0.54940   0.46040   0.81980   0.01267  Uiso   1.00
H72    H     0.68670   0.40500   0.90440   0.01267  Uiso   1.00
H73    H     0.40680   0.84360   0.98110   0.01267  Uiso   1.00
H74    H     0.73760   0.79980   0.90840   0.01267  Uiso   1.00
H75    H     0.52800   0.82410   0.07930   0.01267  Uiso   1.00
H76    H     0.86590   0.77680   0.00350   0.01267  Uiso   1.00
H77    H     0.21540   0.42710   0.17890   0.01267  Uiso   1.00
H78    H     0.81700   0.39120   0.16210   0.01267  Uiso   1.00
H79    H     0.76250   0.49340   0.18360   0.01267  Uiso   1.00
H80    H     0.16630   0.53010   0.20160   0.01267  Uiso   1.00
H81    H     0.06610   0.67090   0.49410   0.01267  Uiso   1.00
H82    H     0.18010   0.66320   0.59810   0.01267  Uiso   1.00
H83    H     0.54950   0.68500   0.55130   0.01267  Uiso   1.00
H84    H     0.45280   0.69410   0.44500   0.01267  Uiso   1.00
H85    H     0.26990   0.07850   0.32280   0.01267  Uiso   1.00
H86    H     0.85310   0.06920   0.32380   0.01267  Uiso   1.00
H87    H     0.27750   0.97030   0.30820   0.01267  Uiso   1.00
H88    H     0.85840   0.96430   0.30220   0.01267  Uiso   1.00
H89    H     0.67150   0.67220   0.05420   0.01267  Uiso   1.00
H90    H     0.76910   0.57550   0.10360   0.01267  Uiso   1.00
H91    H     0.07670   0.51750   0.31820   0.01267  Uiso   1.00
H92    H     0.17130   0.57340   0.41090   0.01267  Uiso   1.00
H93    H     0.28970   0.80750   0.45640   0.01267  Uiso   1.00
H94    H     0.21930   0.90440   0.40270   0.01267  Uiso   1.00
H95    H     0.95060   0.96040   0.18020   0.01267  Uiso   1.00
H96    H     0.81330   0.90500   0.09560   0.01267  Uiso   1.00
C1     C     0.99850   0.67150   0.98590   0.01267  Uiso   1.00
C2     C     0.19480   0.69780   0.94380   0.01267  Uiso   1.00
C3     C     0.07240   0.68320   0.04510   0.01267  Uiso   1.00
C4     C     0.27230   0.71070   0.00030   0.01267  Uiso   1.00
C5     C     0.20560   0.70460   0.05410   0.01267  Uiso   1.00
C6     C     0.62270   0.06090   0.17980   0.01267  Uiso   1.00
C7     C     0.39090   0.08100   0.17010   0.01267  Uiso   1.00
C8     C     0.35530   0.01890   0.18350   0.01267  Uiso   1.00
C9     C     0.59190   0.99760   0.19400   0.01267  Uiso   1.00
C10    C     0.46770   0.97860   0.19650   0.01267  Uiso   1.00
C11    C     0.66320   0.82440   0.50460   0.01267  Uiso   1.00
C12    C     0.73350   0.82940   0.56670   0.01267  Uiso   1.00
C13    C     0.75120   0.81180   0.46040   0.01267  Uiso   1.00
C14    C     0.95220   0.81650   0.53940   0.01267  Uiso   1.00
C15    C     0.89490   0.81050   0.47520   0.01267  Uiso   1.00
C16    C     0.68790   0.44480   0.31930   0.01267  Uiso   1.00
C17    C     0.43670   0.45040   0.31890   0.01267  Uiso   1.00
C18    C     0.56340   0.54140   0.29990   0.01267  Uiso   1.00
C19    C     0.69240   0.50950   0.30890   0.01267  Uiso   1.00
C20    C     0.44140   0.51300   0.30630   0.01267  Uiso   1.00
C21    C     0.29370   0.72230   0.11530   0.01267  Uiso   1.00
C22    C     0.30480   0.78270   0.13130   0.01267  Uiso   1.00
C23    C     0.23570   0.83200   0.09040   0.01267  Uiso   1.00
C24    C     0.28840   0.88510   0.11850   0.01267  Uiso   1.00
C25    C     0.37890   0.86920   0.17520   0.01267  Uiso   1.00
C26    C     0.45200   0.91270   0.21610   0.01267  Uiso   1.00
C27    C     0.52260   0.89750   0.27550   0.01267  Uiso   1.00
C28    C     0.57880   0.94010   0.32240   0.01267  Uiso   1.00
C29    C     0.63410   0.91000   0.37270   0.01267  Uiso   1.00
C30    C     0.62420   0.84350   0.35520   0.01267  Uiso   1.00
C31    C     0.68040   0.79750   0.39440   0.01267  Uiso   1.00
C32    C     0.67910   0.73660   0.37600   0.01267  Uiso   1.00
C33    C     0.73700   0.68800   0.41730   0.01267  Uiso   1.00
C34    C     0.69930   0.63490   0.38750   0.01267  Uiso   1.00
C35    C     0.62100   0.65100   0.32690   0.01267  Uiso   1.00
C36    C     0.56650   0.60970   0.28260   0.01267  Uiso   1.00
C37    C     0.48240   0.62420   0.22650   0.01267  Uiso   1.00
C38    C     0.43360   0.58150   0.17880   0.01267  Uiso   1.00
C39    C     0.36010   0.61160   0.13230   0.01267  Uiso   1.00
C40    C     0.36670   0.67460   0.14940   0.01267  Uiso   1.00
C41    C     0.50150   0.17150   0.01410   0.01267  Uiso   1.00
C42    C     0.30520   0.19780   0.05620   0.01267  Uiso   1.00
C43    C     0.42760   0.18320   0.95490   0.01267  Uiso   1.00
C44    C     0.22770   0.21070   0.99970   0.01267  Uiso   1.00
C45    C     0.29440   0.20460   0.94590   0.01267  Uiso   1.00
C46    C     0.87730   0.56090   0.82020   0.01267  Uiso   1.00
C47    C     0.10910   0.58100   0.82990   0.01267  Uiso   1.00
C48    C     0.14470   0.51890   0.81650   0.01267  Uiso   1.00
C49    C     0.90810   0.49760   0.80600   0.01267  Uiso   1.00
C50    C     0.03230   0.47860   0.80350   0.01267  Uiso   1.00
C51    C     0.83680   0.32440   0.49540   0.01267  Uiso   1.00
C52    C     0.76650   0.32940   0.43330   0.01267  Uiso   1.00
C53    C     0.74880   0.31180   0.53960   0.01267  Uiso   1.00
C54    C     0.54780   0.31650   0.46060   0.01267  Uiso   1.00
C55    C     0.60510   0.31050   0.52480   0.01267  Uiso   1.00
C56    C     0.81210   0.94480   0.68070   0.01267  Uiso   1.00
C57    C     0.06330   0.95040   0.68110   0.01267  Uiso   1.00
C58    C     0.93660   0.04140   0.70010   0.01267  Uiso   1.00
C59    C     0.80760   0.00950   0.69110   0.01267  Uiso   1.00
C60    C     0.05860   0.01300   0.69370   0.01267  Uiso   1.00
C61    C     0.20630   0.22230   0.88470   0.01267  Uiso   1.00
C62    C     0.19520   0.28270   0.86870   0.01267  Uiso   1.00
C63    C     0.26430   0.33200   0.90960   0.01267  Uiso   1.00
C64    C     0.21160   0.38510   0.88150   0.01267  Uiso   1.00
C65    C     0.12110   0.36920   0.82480   0.01267  Uiso   1.00
C66    C     0.04800   0.41270   0.78390   0.01267  Uiso   1.00
C67    C     0.97740   0.39750   0.72450   0.01267  Uiso   1.00
C68    C     0.92120   0.44010   0.67760   0.01267  Uiso   1.00
C69    C     0.86590   0.41000   0.62730   0.01267  Uiso   1.00
C70    C     0.87580   0.34350   0.64480   0.01267  Uiso   1.00
C71    C     0.81960   0.29750   0.60560   0.01267  Uiso   1.00
C72    C     0.82090   0.23660   0.62400   0.01267  Uiso   1.00
C73    C     0.76300   0.18800   0.58270   0.01267  Uiso   1.00
C74    C     0.80070   0.13490   0.61250   0.01267  Uiso   1.00
C75    C     0.87900   0.15100   0.67310   0.01267  Uiso   1.00
C76    C     0.93350   0.10970   0.71740   0.01267  Uiso   1.00
C77    C     0.01760   0.12420   0.77350   0.01267  Uiso   1.00
C78    C     0.06640   0.08150   0.82120   0.01267  Uiso   1.00
C79    C     0.13990   0.11160   0.86770   0.01267  Uiso   1.00
C80    C     0.13330   0.17460   0.85060   0.01267  Uiso   1.00
C81    C     0.00150   0.32850   0.01410   0.01267  Uiso   1.00
C82    C     0.80520   0.30220   0.05620   0.01267  Uiso   1.00
C83    C     0.92760   0.31680   0.95490   0.01267  Uiso   1.00
C84    C     0.72770   0.28930   0.99970   0.01267  Uiso   1.00
C85    C     0.79440   0.29540   0.94590   0.01267  Uiso   1.00
C86    C     0.37730   0.93910   0.82020   0.01267  Uiso   1.00
C87    C     0.60910   0.91900   0.82990   0.01267  Uiso   1.00
C88    C     0.64470   0.98110   0.81650   0.01267  Uiso   1.00
C89    C     0.40810   0.00240   0.80600   0.01267  Uiso   1.00
C90    C     0.53230   0.02140   0.80350   0.01267  Uiso   1.00
C91    C     0.33680   0.17560   0.49540   0.01267  Uiso   1.00
C92    C     0.26650   0.17060   0.43330   0.01267  Uiso   1.00
C93    C     0.24880   0.18820   0.53960   0.01267  Uiso   1.00
C94    C     0.04780   0.18350   0.46060   0.01267  Uiso   1.00
C95    C     0.10510   0.18950   0.52480   0.01267  Uiso   1.00
C96    C     0.31210   0.55520   0.68070   0.01267  Uiso   1.00
C97    C     0.56330   0.54960   0.68110   0.01267  Uiso   1.00
C98    C     0.43660   0.45860   0.70010   0.01267  Uiso   1.00
C99    C     0.30760   0.49050   0.69110   0.01267  Uiso   1.00
C100   C     0.55860   0.48700   0.69370   0.01267  Uiso   1.00
C101   C     0.70630   0.27770   0.88470   0.01267  Uiso   1.00
C102   C     0.69520   0.21730   0.86870   0.01267  Uiso   1.00
C103   C     0.76430   0.16800   0.90960   0.01267  Uiso   1.00
C104   C     0.71160   0.11490   0.88150   0.01267  Uiso   1.00
C105   C     0.62110   0.13080   0.82480   0.01267  Uiso   1.00
C106   C     0.54800   0.08730   0.78390   0.01267  Uiso   1.00
C107   C     0.47740   0.10250   0.72450   0.01267  Uiso   1.00
C108   C     0.42120   0.05990   0.67760   0.01267  Uiso   1.00
C109   C     0.36590   0.09000   0.62730   0.01267  Uiso   1.00
C110   C     0.37580   0.15650   0.64480   0.01267  Uiso   1.00
C111   C     0.31960   0.20250   0.60560   0.01267  Uiso   1.00
C112   C     0.32090   0.26340   0.62400   0.01267  Uiso   1.00
C113   C     0.26300   0.31200   0.58270   0.01267  Uiso   1.00
C114   C     0.30070   0.36510   0.61250   0.01267  Uiso   1.00
C115   C     0.37900   0.34900   0.67310   0.01267  Uiso   1.00
C116   C     0.43350   0.39030   0.71740   0.01267  Uiso   1.00
C117   C     0.51760   0.37580   0.77350   0.01267  Uiso   1.00
C118   C     0.56640   0.41850   0.82120   0.01267  Uiso   1.00
C119   C     0.63990   0.38840   0.86770   0.01267  Uiso   1.00
C120   C     0.63330   0.32540   0.85060   0.01267  Uiso   1.00
C121   C     0.49850   0.82850   0.98590   0.01267  Uiso   1.00
C122   C     0.69480   0.80220   0.94380   0.01267  Uiso   1.00
C123   C     0.57240   0.81680   0.04510   0.01267  Uiso   1.00
C124   C     0.77230   0.78930   0.00030   0.01267  Uiso   1.00
C125   C     0.70560   0.79540   0.05410   0.01267  Uiso   1.00
C126   C     0.12270   0.43910   0.17980   0.01267  Uiso   1.00
C127   C     0.89090   0.41900   0.17010   0.01267  Uiso   1.00
C128   C     0.85530   0.48110   0.18350   0.01267  Uiso   1.00
C129   C     0.09190   0.50240   0.19400   0.01267  Uiso   1.00
C130   C     0.96770   0.52140   0.19650   0.01267  Uiso   1.00
C131   C     0.16320   0.67560   0.50460   0.01267  Uiso   1.00
C132   C     0.23350   0.67060   0.56670   0.01267  Uiso   1.00
C133   C     0.25120   0.68820   0.46040   0.01267  Uiso   1.00
C134   C     0.45220   0.68350   0.53940   0.01267  Uiso   1.00
C135   C     0.39490   0.68950   0.47520   0.01267  Uiso   1.00
C136   C     0.18790   0.05520   0.31930   0.01267  Uiso   1.00
C137   C     0.93670   0.04960   0.31890   0.01267  Uiso   1.00
C138   C     0.06340   0.95860   0.29990   0.01267  Uiso   1.00
C139   C     0.19240   0.99050   0.30890   0.01267  Uiso   1.00
C140   C     0.94140   0.98700   0.30630   0.01267  Uiso   1.00
C141   C     0.79370   0.77770   0.11530   0.01267  Uiso   1.00
C142   C     0.80480   0.71730   0.13130   0.01267  Uiso   1.00
C143   C     0.73570   0.66800   0.09040   0.01267  Uiso   1.00
C144   C     0.78840   0.61490   0.11850   0.01267  Uiso   1.00
C145   C     0.87890   0.63080   0.17520   0.01267  Uiso   1.00
C146   C     0.95200   0.58730   0.21610   0.01267  Uiso   1.00
C147   C     0.02260   0.60250   0.27550   0.01267  Uiso   1.00
C148   C     0.07880   0.55990   0.32240   0.01267  Uiso   1.00
C149   C     0.13410   0.59000   0.37270   0.01267  Uiso   1.00
C150   C     0.12420   0.65650   0.35520   0.01267  Uiso   1.00
C151   C     0.18040   0.70250   0.39440   0.01267  Uiso   1.00
C152   C     0.17910   0.76340   0.37600   0.01267  Uiso   1.00
C153   C     0.23700   0.81200   0.41730   0.01267  Uiso   1.00
C154   C     0.19930   0.86510   0.38750   0.01267  Uiso   1.00
C155   C     0.12100   0.84900   0.32690   0.01267  Uiso   1.00
C156   C     0.06650   0.89030   0.28260   0.01267  Uiso   1.00
C157   C     0.98240   0.87580   0.22650   0.01267  Uiso   1.00
C158   C     0.93360   0.91850   0.17880   0.01267  Uiso   1.00
C159   C     0.86010   0.88840   0.13230   0.01267  Uiso   1.00
C160   C     0.86670   0.82540   0.14940   0.01267  Uiso   1.00
N1     N     0.05820   0.68180   0.93840   0.01267  Uiso   1.00
N2     N     0.51870   0.10150   0.16810   0.01267  Uiso   1.00
N3     N     0.87170   0.82390   0.58130   0.01267  Uiso   1.00
N4     N     0.56640   0.41880   0.32360   0.01267  Uiso   1.00
N5     N     0.54800   0.83840   0.29740   0.01267  Uiso   1.00
N6     N     0.60630   0.71340   0.32160   0.01267  Uiso   1.00
N7     N     0.44090   0.68130   0.20870   0.01267  Uiso   1.00
N8     N     0.38630   0.80710   0.18360   0.01267  Uiso   1.00
N9     N     0.44180   0.18180   0.06160   0.01267  Uiso   1.00
N10    N     0.98130   0.60150   0.83190   0.01267  Uiso   1.00
N11    N     0.62830   0.32390   0.41870   0.01267  Uiso   1.00
N12    N     0.93360   0.91880   0.67640   0.01267  Uiso   1.00
N13    N     0.95200   0.33840   0.70260   0.01267  Uiso   1.00
N14    N     0.89370   0.21340   0.67840   0.01267  Uiso   1.00
N15    N     0.05910   0.18130   0.79130   0.01267  Uiso   1.00
N16    N     0.11370   0.30710   0.81640   0.01267  Uiso   1.00
N17    N     0.94180   0.31820   0.06160   0.01267  Uiso   1.00
N18    N     0.48130   0.89850   0.83190   0.01267  Uiso   1.00
N19    N     0.12830   0.17610   0.41870   0.01267  Uiso   1.00
N20    N     0.43360   0.58120   0.67640   0.01267  Uiso   1.00
N21    N     0.45200   0.16160   0.70260   0.01267  Uiso   1.00
N22    N     0.39370   0.28660   0.67840   0.01267  Uiso   1.00
N23    N     0.55910   0.31870   0.79130   0.01267  Uiso   1.00
N24    N     0.61370   0.19290   0.81640   0.01267  Uiso   1.00
N25    N     0.55820   0.81820   0.93840   0.01267  Uiso   1.00
N26    N     0.01870   0.39850   0.16810   0.01267  Uiso   1.00
N27    N     0.37170   0.67610   0.58130   0.01267  Uiso   1.00
N28    N     0.06640   0.08120   0.32360   0.01267  Uiso   1.00
N29    N     0.04800   0.66160   0.29740   0.01267  Uiso   1.00
N30    N     0.10630   0.78660   0.32160   0.01267  Uiso   1.00
N31    N     0.94090   0.81870   0.20870   0.01267  Uiso   1.00
N32    N     0.88630   0.69290   0.18360   0.01267  Uiso   1.00
O1     O     0.69560   0.68790   0.65800   0.01267  Uiso   1.00
O2     O     0.75480   0.81260   0.70370   0.01267  Uiso   1.00
O3     O     0.83650   0.70590   0.77140   0.01267  Uiso   1.00
O4     O     0.93790   0.77860   0.86990   0.01267  Uiso   1.00
O5     O     0.00010   0.73870   0.67730   0.01267  Uiso   1.00
O6     O     0.55360   0.67230   0.75760   0.01267  Uiso   1.00
O7     O     0.80440   0.18790   0.34200   0.01267  Uiso   1.00
O8     O     0.74520   0.31260   0.29630   0.01267  Uiso   1.00
O9     O     0.66350   0.20590   0.22860   0.01267  Uiso   1.00
O10    O     0.56210   0.27860   0.13010   0.01267  Uiso   1.00
O11    O     0.49990   0.23870   0.32270   0.01267  Uiso   1.00
O12    O     0.94640   0.17230   0.24240   0.01267  Uiso   1.00
O13    O     0.30440   0.31210   0.34200   0.01267  Uiso   1.00
O14    O     0.24520   0.18740   0.29630   0.01267  Uiso   1.00
O15    O     0.16350   0.29410   0.22860   0.01267  Uiso   1.00
O16    O     0.06210   0.22140   0.13010   0.01267  Uiso   1.00
O17    O     0.99990   0.26130   0.32270   0.01267  Uiso   1.00
O18    O     0.44640   0.32770   0.24240   0.01267  Uiso   1.00
O19    O     0.19560   0.81210   0.65800   0.01267  Uiso   1.00
O20    O     0.25480   0.68740   0.70370   0.01267  Uiso   1.00
O21    O     0.33650   0.79410   0.77140   0.01267  Uiso   1.00
O22    O     0.43790   0.72140   0.86990   0.01267  Uiso   1.00
O23    O     0.50010   0.76130   0.67730   0.01267  Uiso   1.00
O24    O     0.05360   0.82770   0.75760   0.01267  Uiso   1.00
