data_CAZNEY_clean
_audit_creation_date              2014-07-02
_audit_creation_method            'Materials Studio'
_symmetry_space_group_name_H-M    'P1'
_symmetry_Int_Tables_number       1
_symmetry_cell_setting            triclinic
loop_
_symmetry_equiv_pos_as_xyz
  x,y,z
_cell_length_a                    10.9381
_cell_length_b                    13.5196
_cell_length_c                    34.3260
_cell_angle_alpha                 99.0619
_cell_angle_beta                  90.0000
_cell_angle_gamma                 113.8620
loop_
_atom_site_label
_atom_site_type_symbol
_atom_site_fract_x
_atom_site_fract_y
_atom_site_fract_z
_atom_site_U_iso_or_equiv
_atom_site_adp_type
_atom_site_occupancy
Co1    Co    0.77580   0.63358   0.49718   0.01267  Uiso   1.00
Co2    Co    0.14222   0.36642   0.00282   0.01267  Uiso   1.00
Co3    Co    0.22420   0.36642   0.50282   0.01267  Uiso   1.00
Co4    Co    0.85778   0.63358   0.99718   0.01267  Uiso   1.00
Co5    Co    0.00000   0.50000   0.50000   0.01267  Uiso   1.00
Co6    Co    0.50000   0.50000   0.00000   0.01267  Uiso   1.00
H1     H     0.43030   0.02840   0.20800   0.01267  Uiso   1.00
H2     H     0.45730   0.11180   0.24790   0.01267  Uiso   1.00
H3     H     0.80840   0.26520   0.24120   0.01267  Uiso   1.00
H4     H     0.73950   0.17460   0.26740   0.01267  Uiso   1.00
H5     H     0.54810   0.25960   0.20490   0.01267  Uiso   1.00
H6     H     0.53580   0.17360   0.16670   0.01267  Uiso   1.00
H7     H     0.72160   0.04200   0.20650   0.01267  Uiso   1.00
H8     H     0.77090   0.13200   0.17910   0.01267  Uiso   1.00
H9     H     0.87710   0.31080   0.31340   0.01267  Uiso   1.00
H10    H     0.94020   0.39920   0.37840   0.01267  Uiso   1.00
H11    H     0.63000   0.48040   0.37960   0.01267  Uiso   1.00
H12    H     0.56690   0.39200   0.31600   0.01267  Uiso   1.00
H13    H     0.52760   0.31420   0.13900   0.01267  Uiso   1.00
H14    H     0.55010   0.39600   0.08350   0.01267  Uiso   1.00
H15    H     0.94020   0.46220   0.08820   0.01267  Uiso   1.00
H16    H     0.91920   0.38580   0.14460   0.01267  Uiso   1.00
H17    H     0.43820   0.86420   0.10980   0.01267  Uiso   1.00
H18    H     0.47600   0.75000   0.05840   0.01267  Uiso   1.00
H19    H     0.86610   0.89760   0.08820   0.01267  Uiso   1.00
H20    H     0.82900   0.00700   0.14180   0.01267  Uiso   1.00
H21    H     0.40190   0.97160   0.29200   0.01267  Uiso   1.00
H22    H     0.34550   0.88820   0.25210   0.01267  Uiso   1.00
H23    H     0.54320   0.73480   0.25880   0.01267  Uiso   1.00
H24    H     0.56490   0.82540   0.23260   0.01267  Uiso   1.00
H25    H     0.28850   0.74040   0.29510   0.01267  Uiso   1.00
H26    H     0.36220   0.82640   0.33330   0.01267  Uiso   1.00
H27    H     0.67960   0.95800   0.29350   0.01267  Uiso   1.00
H28    H     0.63890   0.86800   0.32090   0.01267  Uiso   1.00
H29    H     0.56630   0.68920   0.18660   0.01267  Uiso   1.00
H30    H     0.54100   0.60080   0.12160   0.01267  Uiso   1.00
H31    H     0.14960   0.51960   0.12040   0.01267  Uiso   1.00
H32    H     0.17490   0.60800   0.18400   0.01267  Uiso   1.00
H33    H     0.21340   0.68580   0.36100   0.01267  Uiso   1.00
H34    H     0.15410   0.60400   0.41650   0.01267  Uiso   1.00
H35    H     0.47800   0.53780   0.41180   0.01267  Uiso   1.00
H36    H     0.53340   0.61420   0.35540   0.01267  Uiso   1.00
H37    H     0.57400   0.13580   0.39020   0.01267  Uiso   1.00
H38    H     0.72600   0.25000   0.44160   0.01267  Uiso   1.00
H39    H     0.96850   0.10240   0.41180   0.01267  Uiso   1.00
H40    H     0.82200   0.99300   0.35820   0.01267  Uiso   1.00
H41    H     0.56970   0.97160   0.79200   0.01267  Uiso   1.00
H42    H     0.54270   0.88820   0.75210   0.01267  Uiso   1.00
H43    H     0.19160   0.73480   0.75880   0.01267  Uiso   1.00
H44    H     0.26050   0.82540   0.73260   0.01267  Uiso   1.00
H45    H     0.45190   0.74040   0.79510   0.01267  Uiso   1.00
H46    H     0.46420   0.82640   0.83330   0.01267  Uiso   1.00
H47    H     0.27840   0.95800   0.79350   0.01267  Uiso   1.00
H48    H     0.22910   0.86800   0.82090   0.01267  Uiso   1.00
H49    H     0.12290   0.68920   0.68660   0.01267  Uiso   1.00
H50    H     0.05980   0.60080   0.62160   0.01267  Uiso   1.00
H51    H     0.37000   0.51960   0.62040   0.01267  Uiso   1.00
H52    H     0.43310   0.60800   0.68400   0.01267  Uiso   1.00
H53    H     0.47240   0.68580   0.86100   0.01267  Uiso   1.00
H54    H     0.44990   0.60400   0.91650   0.01267  Uiso   1.00
H55    H     0.05980   0.53780   0.91180   0.01267  Uiso   1.00
H56    H     0.08080   0.61420   0.85540   0.01267  Uiso   1.00
H57    H     0.56180   0.13580   0.89020   0.01267  Uiso   1.00
H58    H     0.52400   0.25000   0.94160   0.01267  Uiso   1.00
H59    H     0.13390   0.10240   0.91180   0.01267  Uiso   1.00
H60    H     0.17100   0.99300   0.85820   0.01267  Uiso   1.00
H61    H     0.59810   0.02840   0.70800   0.01267  Uiso   1.00
H62    H     0.65450   0.11180   0.74790   0.01267  Uiso   1.00
H63    H     0.45680   0.26520   0.74120   0.01267  Uiso   1.00
H64    H     0.43510   0.17460   0.76740   0.01267  Uiso   1.00
H65    H     0.71150   0.25960   0.70490   0.01267  Uiso   1.00
H66    H     0.63780   0.17360   0.66670   0.01267  Uiso   1.00
H67    H     0.32040   0.04200   0.70650   0.01267  Uiso   1.00
H68    H     0.36110   0.13200   0.67910   0.01267  Uiso   1.00
H69    H     0.43370   0.31080   0.81340   0.01267  Uiso   1.00
H70    H     0.45900   0.39920   0.87840   0.01267  Uiso   1.00
H71    H     0.85040   0.48040   0.87960   0.01267  Uiso   1.00
H72    H     0.82510   0.39200   0.81600   0.01267  Uiso   1.00
H73    H     0.78660   0.31420   0.63900   0.01267  Uiso   1.00
H74    H     0.84590   0.39600   0.58350   0.01267  Uiso   1.00
H75    H     0.52200   0.46220   0.58820   0.01267  Uiso   1.00
H76    H     0.46660   0.38580   0.64460   0.01267  Uiso   1.00
H77    H     0.42600   0.86420   0.60980   0.01267  Uiso   1.00
H78    H     0.27400   0.75000   0.55840   0.01267  Uiso   1.00
H79    H     0.03150   0.89760   0.58820   0.01267  Uiso   1.00
H80    H     0.17800   0.00700   0.64180   0.01267  Uiso   1.00
C1     C     0.62521   0.14762   0.21547   0.01267  Uiso   1.00
C2     C     0.49524   0.07048   0.23009   0.01267  Uiso   1.00
C3     C     0.72351   0.21962   0.25043   0.01267  Uiso   1.00
C4     C     0.59319   0.21898   0.18989   0.01267  Uiso   1.00
C5     C     0.69311   0.08282   0.19049   0.01267  Uiso   1.00
C6     C     0.71389   0.33898   0.30871   0.01267  Uiso   1.00
C7     C     0.82564   0.34368   0.32684   0.01267  Uiso   1.00
C8     C     0.86422   0.39804   0.36586   0.01267  Uiso   1.00
C9     C     0.79201   0.44962   0.38601   0.01267  Uiso   1.00
C10    C     0.68050   0.44580   0.36665   0.01267  Uiso   1.00
C11    C     0.64230   0.39240   0.32867   0.01267  Uiso   1.00
C12    C     0.83101   0.50402   0.42820   0.01267  Uiso   1.00
C13    C     0.72028   0.33996   0.14601   0.01267  Uiso   1.00
C14    C     0.61080   0.34420   0.12872   0.01267  Uiso   1.00
C15    C     0.62476   0.39392   0.09564   0.01267  Uiso   1.00
C16    C     0.74928   0.44056   0.08054   0.01267  Uiso   1.00
C17    C     0.85701   0.43402   0.09861   0.01267  Uiso   1.00
C18    C     0.84450   0.38640   0.13188   0.01267  Uiso   1.00
C19    C     0.76631   0.49642   0.04558   0.01267  Uiso   1.00
C20    C     0.62954   0.94648   0.13076   0.01267  Uiso   1.00
C21    C     0.52500   0.87060   0.10588   0.01267  Uiso   1.00
C22    C     0.54797   0.80294   0.07479   0.01267  Uiso   1.00
C23    C     0.67501   0.81322   0.06788   0.01267  Uiso   1.00
C24    C     0.77911   0.88982   0.09276   0.01267  Uiso   1.00
C25    C     0.75750   0.95640   0.12472   0.01267  Uiso   1.00
C26    C     0.69547   0.73714   0.03420   0.01267  Uiso   1.00
C27    C     0.47759   0.85238   0.28453   0.01267  Uiso   1.00
C28    C     0.42476   0.92952   0.26991   0.01267  Uiso   1.00
C29    C     0.50389   0.78038   0.24957   0.01267  Uiso   1.00
C30    C     0.37421   0.78102   0.31011   0.01267  Uiso   1.00
C31    C     0.61029   0.91718   0.30951   0.01267  Uiso   1.00
C32    C     0.37491   0.66102   0.19129   0.01267  Uiso   1.00
C33    C     0.48196   0.65632   0.17316   0.01267  Uiso   1.00
C34    C     0.46618   0.60196   0.13414   0.01267  Uiso   1.00
C35    C     0.34239   0.55038   0.11399   0.01267  Uiso   1.00
C36    C     0.23470   0.55420   0.13335   0.01267  Uiso   1.00
C37    C     0.24990   0.60760   0.17133   0.01267  Uiso   1.00
C38    C     0.32699   0.49598   0.07180   0.01267  Uiso   1.00
C39    C     0.38032   0.66004   0.35399   0.01267  Uiso   1.00
C40    C     0.26660   0.65580   0.37128   0.01267  Uiso   1.00
C41    C     0.23084   0.60608   0.40436   0.01267  Uiso   1.00
C42    C     0.30872   0.55944   0.41946   0.01267  Uiso   1.00
C43    C     0.42299   0.56598   0.40139   0.01267  Uiso   1.00
C44    C     0.45810   0.61360   0.36812   0.01267  Uiso   1.00
C45    C     0.26989   0.50358   0.45442   0.01267  Uiso   1.00
C46    C     0.68306   0.05352   0.36924   0.01267  Uiso   1.00
C47    C     0.65440   0.12940   0.39412   0.01267  Uiso   1.00
C48    C     0.74503   0.19706   0.42521   0.01267  Uiso   1.00
C49    C     0.86179   0.18678   0.43212   0.01267  Uiso   1.00
C50    C     0.88929   0.11018   0.40724   0.01267  Uiso   1.00
C51    C     0.80110   0.04360   0.37528   0.01267  Uiso   1.00
C52    C     0.95833   0.26286   0.46580   0.01267  Uiso   1.00
C53    C     0.37479   0.85238   0.78453   0.01267  Uiso   1.00
C54    C     0.50476   0.92952   0.76991   0.01267  Uiso   1.00
C55    C     0.27649   0.78038   0.74957   0.01267  Uiso   1.00
C56    C     0.40681   0.78102   0.81011   0.01267  Uiso   1.00
C57    C     0.30689   0.91718   0.80951   0.01267  Uiso   1.00
C58    C     0.28611   0.66102   0.69129   0.01267  Uiso   1.00
C59    C     0.17436   0.65632   0.67316   0.01267  Uiso   1.00
C60    C     0.13578   0.60196   0.63414   0.01267  Uiso   1.00
C61    C     0.20799   0.55038   0.61399   0.01267  Uiso   1.00
C62    C     0.31950   0.55420   0.63335   0.01267  Uiso   1.00
C63    C     0.35770   0.60760   0.67133   0.01267  Uiso   1.00
C64    C     0.16899   0.49598   0.57180   0.01267  Uiso   1.00
C65    C     0.27972   0.66004   0.85399   0.01267  Uiso   1.00
C66    C     0.38920   0.65580   0.87128   0.01267  Uiso   1.00
C67    C     0.37524   0.60608   0.90436   0.01267  Uiso   1.00
C68    C     0.25072   0.55944   0.91946   0.01267  Uiso   1.00
C69    C     0.14299   0.56598   0.90139   0.01267  Uiso   1.00
C70    C     0.15550   0.61360   0.86812   0.01267  Uiso   1.00
C71    C     0.23369   0.50358   0.95442   0.01267  Uiso   1.00
C72    C     0.37046   0.05352   0.86924   0.01267  Uiso   1.00
C73    C     0.47500   0.12940   0.89412   0.01267  Uiso   1.00
C74    C     0.45203   0.19706   0.92521   0.01267  Uiso   1.00
C75    C     0.32499   0.18678   0.93212   0.01267  Uiso   1.00
C76    C     0.22089   0.11018   0.90724   0.01267  Uiso   1.00
C77    C     0.24250   0.04360   0.87528   0.01267  Uiso   1.00
C78    C     0.30453   0.26286   0.96580   0.01267  Uiso   1.00
C79    C     0.52241   0.14762   0.71547   0.01267  Uiso   1.00
C80    C     0.57524   0.07048   0.73009   0.01267  Uiso   1.00
C81    C     0.49611   0.21962   0.75043   0.01267  Uiso   1.00
C82    C     0.62579   0.21898   0.68989   0.01267  Uiso   1.00
C83    C     0.38971   0.08282   0.69049   0.01267  Uiso   1.00
C84    C     0.62509   0.33898   0.80871   0.01267  Uiso   1.00
C85    C     0.51804   0.34368   0.82684   0.01267  Uiso   1.00
C86    C     0.53382   0.39804   0.86586   0.01267  Uiso   1.00
C87    C     0.65761   0.44962   0.88601   0.01267  Uiso   1.00
C88    C     0.76530   0.44580   0.86665   0.01267  Uiso   1.00
C89    C     0.75010   0.39240   0.82867   0.01267  Uiso   1.00
C90    C     0.67301   0.50402   0.92820   0.01267  Uiso   1.00
C91    C     0.61968   0.33996   0.64601   0.01267  Uiso   1.00
C92    C     0.73340   0.34420   0.62872   0.01267  Uiso   1.00
C93    C     0.76916   0.39392   0.59564   0.01267  Uiso   1.00
C94    C     0.69128   0.44056   0.58054   0.01267  Uiso   1.00
C95    C     0.57701   0.43402   0.59861   0.01267  Uiso   1.00
C96    C     0.54190   0.38640   0.63188   0.01267  Uiso   1.00
C97    C     0.73011   0.49642   0.54558   0.01267  Uiso   1.00
C98    C     0.31694   0.94648   0.63076   0.01267  Uiso   1.00
C99    C     0.34560   0.87060   0.60588   0.01267  Uiso   1.00
C100   C     0.25497   0.80294   0.57479   0.01267  Uiso   1.00
C101   C     0.13821   0.81322   0.56788   0.01267  Uiso   1.00
C102   C     0.11071   0.88982   0.59276   0.01267  Uiso   1.00
C103   C     0.19890   0.95640   0.62472   0.01267  Uiso   1.00
C104   C     0.04167   0.73714   0.53420   0.01267  Uiso   1.00
O1     O     0.66313   0.28626   0.27137   0.01267  Uiso   1.00
O2     O     0.71775   0.29190   0.17868   0.01267  Uiso   1.00
O3     O     0.59375   0.00910   0.15974   0.01267  Uiso   1.00
O4     O     0.92592   0.49504   0.44471   0.01267  Uiso   1.00
O5     O     0.76378   0.55576   0.44387   0.01267  Uiso   1.00
O6     O     0.88476   0.55052   0.03685   0.01267  Uiso   1.00
O7     O     0.66902   0.49104   0.02594   0.01267  Uiso   1.00
O8     O     0.59435   0.66990   0.01250   0.01267  Uiso   1.00
O9     O     0.81358   0.74656   0.02945   0.01267  Uiso   1.00
O10    O     0.37687   0.71374   0.22863   0.01267  Uiso   1.00
O11    O     0.42585   0.70810   0.32132   0.01267  Uiso   1.00
O12    O     0.58465   0.99090   0.34026   0.01267  Uiso   1.00
O13    O     0.43088   0.50496   0.05529   0.01267  Uiso   1.00
O14    O     0.20802   0.44424   0.05613   0.01267  Uiso   1.00
O15    O     0.33424   0.44948   0.46315   0.01267  Uiso   1.00
O16    O     0.17798   0.50896   0.47406   0.01267  Uiso   1.00
O17    O     0.92445   0.33010   0.48750   0.01267  Uiso   1.00
O18    O     0.06702   0.25344   0.47055   0.01267  Uiso   1.00
O19    O     0.33687   0.71374   0.72863   0.01267  Uiso   1.00
O20    O     0.28225   0.70810   0.82132   0.01267  Uiso   1.00
O21    O     0.40625   0.99090   0.84026   0.01267  Uiso   1.00
O22    O     0.07408   0.50496   0.55529   0.01267  Uiso   1.00
O23    O     0.23622   0.44424   0.55613   0.01267  Uiso   1.00
O24    O     0.11524   0.44948   0.96315   0.01267  Uiso   1.00
O25    O     0.33098   0.50896   0.97406   0.01267  Uiso   1.00
O26    O     0.40565   0.33010   0.98750   0.01267  Uiso   1.00
O27    O     0.18642   0.25344   0.97055   0.01267  Uiso   1.00
O28    O     0.62313   0.28626   0.77137   0.01267  Uiso   1.00
O29    O     0.57415   0.29190   0.67868   0.01267  Uiso   1.00
O30    O     0.41535   0.00910   0.65974   0.01267  Uiso   1.00
O31    O     0.56912   0.49504   0.94471   0.01267  Uiso   1.00
O32    O     0.79198   0.55576   0.94387   0.01267  Uiso   1.00
O33    O     0.66576   0.55052   0.53685   0.01267  Uiso   1.00
O34    O     0.82202   0.49104   0.52594   0.01267  Uiso   1.00
O35    O     0.07555   0.66990   0.51250   0.01267  Uiso   1.00
O36    O     0.93298   0.74656   0.52945   0.01267  Uiso   1.00
O37    O     0.52880   0.00000   0.25000   0.01267  Uiso   1.00
O38    O     0.47120   0.00000   0.75000   0.01267  Uiso   1.00
