data_CAZNOI_charged
_audit_creation_date              2014-07-02
_audit_creation_method            'Materials Studio'
_symmetry_space_group_name_H-M    'P1'
_symmetry_Int_Tables_number       1
_symmetry_cell_setting            triclinic
loop_
_symmetry_equiv_pos_as_xyz
  x,y,z
_cell_length_a                    15.0610
_cell_length_b                    17.0690
_cell_length_c                    28.3530
_cell_angle_alpha                 90.0000
_cell_angle_beta                  90.0000
_cell_angle_gamma                 100.6530
loop_
_atom_site_label
_atom_site_type_symbol
_atom_site_fract_x
_atom_site_fract_y
_atom_site_fract_z
_atom_site_U_iso_or_equiv
_atom_site_adp_type
_atom_site_occupancy
Co1    Co    0.52174   0.86795   0.02995   0.01267  Uiso   1.00
Co2    Co    0.48635   0.24076   0.43085   0.01267  Uiso   1.00
Co3    Co    0.51467   0.65341   0.03295   0.01267  Uiso   1.00
Co4    Co    0.47826   0.13205   0.52995   0.01267  Uiso   1.00
Co5    Co    0.51365   0.75924   0.93085   0.01267  Uiso   1.00
Co6    Co    0.48533   0.34659   0.53295   0.01267  Uiso   1.00
H1     H     0.05070   0.71920   0.37340   0.01267  Uiso   1.00
H2     H     0.11670   0.74460   0.33080   0.01267  Uiso   1.00
H3     H     0.93720   0.76250   0.37600   0.01267  Uiso   1.00
H4     H     0.86310   0.72980   0.33830   0.01267  Uiso   1.00
H5     H     0.92410   0.58710   0.31330   0.01267  Uiso   1.00
H6     H     0.97100   0.51880   0.33290   0.01267  Uiso   1.00
H7     H     0.18540   0.63350   0.35790   0.01267  Uiso   1.00
H8     H     0.10820   0.60070   0.39400   0.01267  Uiso   1.00
H9     H     0.07420   0.55590   0.27070   0.01267  Uiso   1.00
H10    H     0.03780   0.63330   0.25670   0.01267  Uiso   1.00
H11    H     0.88000   0.90930   0.27310   0.01267  Uiso   1.00
H12    H     0.93240   0.84080   0.25950   0.01267  Uiso   1.00
H13    H     0.79000   0.83790   0.36250   0.01267  Uiso   1.00
H14    H     0.87040   0.87450   0.39600   0.01267  Uiso   1.00
H15    H     0.04530   0.88830   0.31350   0.01267  Uiso   1.00
H16    H     0.99680   0.95700   0.33090   0.01267  Uiso   1.00
H17    H     0.85980   0.60460   0.45720   0.01267  Uiso   1.00
H18    H     0.73080   0.52810   0.48820   0.01267  Uiso   1.00
H19    H     0.70090   0.39530   0.37380   0.01267  Uiso   1.00
H20    H     0.83220   0.46920   0.34310   0.01267  Uiso   1.00
H21    H     0.23060   0.56960   0.42490   0.01267  Uiso   1.00
H22    H     0.31610   0.49400   0.46820   0.01267  Uiso   1.00
H23    H     0.26680   0.32220   0.37420   0.01267  Uiso   1.00
H24    H     0.17170   0.39030   0.33320   0.01267  Uiso   1.00
H25    H     0.10070   0.57120   0.19510   0.01267  Uiso   1.00
H26    H     0.16950   0.56480   0.12380   0.01267  Uiso   1.00
H27    H     0.39040   0.70410   0.17320   0.01267  Uiso   1.00
H28    H     0.31970   0.71150   0.24150   0.01267  Uiso   1.00
H29    H     0.80010   0.91100   0.20810   0.01267  Uiso   1.00
H30    H     0.72030   0.89520   0.13910   0.01267  Uiso   1.00
H31    H     0.65620   0.67170   0.15970   0.01267  Uiso   1.00
H32    H     0.69820   0.68810   0.24090   0.01267  Uiso   1.00
H33    H     0.80790   0.08750   0.33560   0.01267  Uiso   1.00
H34    H     0.70290   0.15150   0.36970   0.01267  Uiso   1.00
H35    H     0.64820   0.98040   0.46640   0.01267  Uiso   1.00
H36    H     0.73460   0.90490   0.42560   0.01267  Uiso   1.00
H37    H     0.09920   0.89960   0.46050   0.01267  Uiso   1.00
H38    H     0.23410   0.97580   0.49000   0.01267  Uiso   1.00
H39    H     0.28030   0.07710   0.36510   0.01267  Uiso   1.00
H40    H     0.15020   0.00120   0.33630   0.01267  Uiso   1.00
H41    H     0.51870   0.16040   0.04670   0.01267  Uiso   1.00
H42    H     0.53220   0.04670   0.01000   0.01267  Uiso   1.00
H43    H     0.53360   0.93610   0.12880   0.01267  Uiso   1.00
H44    H     0.52110   0.04870   0.16840   0.01267  Uiso   1.00
H45    H     0.51660   0.35870   0.04850   0.01267  Uiso   1.00
H46    H     0.51700   0.47840   0.01240   0.01267  Uiso   1.00
H47    H     0.51590   0.58430   0.13210   0.01267  Uiso   1.00
H48    H     0.51680   0.46750   0.17310   0.01267  Uiso   1.00
H49    H     0.50590   0.13620   0.26570   0.01267  Uiso   1.00
H50    H     0.49340   0.13280   0.34630   0.01267  Uiso   1.00
H51    H     0.48900   0.35980   0.34920   0.01267  Uiso   1.00
H52    H     0.49330   0.36650   0.26950   0.01267  Uiso   1.00
H53    H     0.94930   0.28080   0.87340   0.01267  Uiso   1.00
H54    H     0.88330   0.25540   0.83080   0.01267  Uiso   1.00
H55    H     0.06280   0.23750   0.87600   0.01267  Uiso   1.00
H56    H     0.13690   0.27020   0.83830   0.01267  Uiso   1.00
H57    H     0.07590   0.41290   0.81330   0.01267  Uiso   1.00
H58    H     0.02900   0.48120   0.83290   0.01267  Uiso   1.00
H59    H     0.81460   0.36650   0.85790   0.01267  Uiso   1.00
H60    H     0.89180   0.39930   0.89400   0.01267  Uiso   1.00
H61    H     0.92580   0.44410   0.77070   0.01267  Uiso   1.00
H62    H     0.96220   0.36670   0.75670   0.01267  Uiso   1.00
H63    H     0.12000   0.09070   0.77310   0.01267  Uiso   1.00
H64    H     0.06760   0.15920   0.75950   0.01267  Uiso   1.00
H65    H     0.21000   0.16210   0.86250   0.01267  Uiso   1.00
H66    H     0.12960   0.12550   0.89600   0.01267  Uiso   1.00
H67    H     0.95470   0.11170   0.81350   0.01267  Uiso   1.00
H68    H     0.00320   0.04300   0.83090   0.01267  Uiso   1.00
H69    H     0.14020   0.39540   0.95720   0.01267  Uiso   1.00
H70    H     0.26920   0.47190   0.98820   0.01267  Uiso   1.00
H71    H     0.29910   0.60470   0.87380   0.01267  Uiso   1.00
H72    H     0.16780   0.53080   0.84310   0.01267  Uiso   1.00
H73    H     0.76940   0.43040   0.92490   0.01267  Uiso   1.00
H74    H     0.68390   0.50600   0.96820   0.01267  Uiso   1.00
H75    H     0.73320   0.67780   0.87420   0.01267  Uiso   1.00
H76    H     0.82830   0.60970   0.83320   0.01267  Uiso   1.00
H77    H     0.89930   0.42880   0.69510   0.01267  Uiso   1.00
H78    H     0.83050   0.43520   0.62380   0.01267  Uiso   1.00
H79    H     0.60960   0.29590   0.67320   0.01267  Uiso   1.00
H80    H     0.68030   0.28850   0.74150   0.01267  Uiso   1.00
H81    H     0.19990   0.08900   0.70810   0.01267  Uiso   1.00
H82    H     0.27970   0.10480   0.63910   0.01267  Uiso   1.00
H83    H     0.34380   0.32830   0.65970   0.01267  Uiso   1.00
H84    H     0.30180   0.31190   0.74090   0.01267  Uiso   1.00
H85    H     0.19210   0.91250   0.83560   0.01267  Uiso   1.00
H86    H     0.29710   0.84850   0.86970   0.01267  Uiso   1.00
H87    H     0.35180   0.01960   0.96640   0.01267  Uiso   1.00
H88    H     0.26540   0.09510   0.92560   0.01267  Uiso   1.00
H89    H     0.90080   0.10040   0.96050   0.01267  Uiso   1.00
H90    H     0.76590   0.02420   0.99000   0.01267  Uiso   1.00
H91    H     0.71970   0.92290   0.86510   0.01267  Uiso   1.00
H92    H     0.84980   0.99880   0.83630   0.01267  Uiso   1.00
H93    H     0.48130   0.83960   0.54670   0.01267  Uiso   1.00
H94    H     0.46780   0.95330   0.51000   0.01267  Uiso   1.00
H95    H     0.46640   0.06390   0.62880   0.01267  Uiso   1.00
H96    H     0.47890   0.95130   0.66840   0.01267  Uiso   1.00
H97    H     0.48340   0.64130   0.54850   0.01267  Uiso   1.00
H98    H     0.48300   0.52160   0.51240   0.01267  Uiso   1.00
H99    H     0.48410   0.41570   0.63210   0.01267  Uiso   1.00
H100   H     0.48320   0.53250   0.67310   0.01267  Uiso   1.00
H101   H     0.49410   0.86380   0.76570   0.01267  Uiso   1.00
H102   H     0.50660   0.86720   0.84630   0.01267  Uiso   1.00
H103   H     0.51100   0.64020   0.84920   0.01267  Uiso   1.00
H104   H     0.50670   0.63350   0.76950   0.01267  Uiso   1.00
C1     C     0.05890   0.71290   0.33980   0.01267  Uiso   1.00
C2     C     0.92100   0.76470   0.34300   0.01267  Uiso   1.00
C3     C     0.05650   0.62470   0.32790   0.01267  Uiso   1.00
C4     C     0.91360   0.84900   0.33000   0.01267  Uiso   1.00
C5     C     0.96710   0.57460   0.33620   0.01267  Uiso   1.00
C6     C     0.12740   0.59830   0.36150   0.01267  Uiso   1.00
C7     C     0.07930   0.61240   0.27720   0.01267  Uiso   1.00
C8     C     0.88670   0.85510   0.28030   0.01267  Uiso   1.00
C9     C     0.84750   0.87440   0.36400   0.01267  Uiso   1.00
C10    C     0.00260   0.90200   0.33620   0.01267  Uiso   1.00
C11    C     0.85900   0.54210   0.39760   0.01267  Uiso   1.00
C12    C     0.82860   0.56140   0.44040   0.01267  Uiso   1.00
C13    C     0.75040   0.51550   0.45850   0.01267  Uiso   1.00
C14    C     0.70080   0.45250   0.43470   0.01267  Uiso   1.00
C15    C     0.73290   0.43700   0.39150   0.01267  Uiso   1.00
C16    C     0.81200   0.48150   0.37270   0.01267  Uiso   1.00
C17    C     0.61950   0.40280   0.45360   0.01267  Uiso   1.00
C18    C     0.19150   0.48460   0.37620   0.01267  Uiso   1.00
C19    C     0.23570   0.51860   0.41530   0.01267  Uiso   1.00
C20    C     0.28880   0.47360   0.44030   0.01267  Uiso   1.00
C21    C     0.30170   0.40100   0.42510   0.01267  Uiso   1.00
C22    C     0.25830   0.37160   0.38520   0.01267  Uiso   1.00
C23    C     0.20170   0.41230   0.36020   0.01267  Uiso   1.00
C24    C     0.36240   0.35620   0.44970   0.01267  Uiso   1.00
C25    C     0.20460   0.64110   0.22520   0.01267  Uiso   1.00
C26    C     0.15970   0.59790   0.19050   0.01267  Uiso   1.00
C27    C     0.20160   0.59340   0.14830   0.01267  Uiso   1.00
C28    C     0.28880   0.62920   0.14070   0.01267  Uiso   1.00
C29    C     0.33190   0.67600   0.17730   0.01267  Uiso   1.00
C30    C     0.28970   0.68020   0.21750   0.01267  Uiso   1.00
C31    C     0.33610   0.62620   0.09530   0.01267  Uiso   1.00
C32    C     0.76280   0.79700   0.23000   0.01267  Uiso   1.00
C33    C     0.76600   0.86150   0.20010   0.01267  Uiso   1.00
C34    C     0.71890   0.85140   0.15880   0.01267  Uiso   1.00
C35    C     0.67110   0.78180   0.14550   0.01267  Uiso   1.00
C36    C     0.67630   0.72260   0.17180   0.01267  Uiso   1.00
C37    C     0.71150   0.72950   0.21930   0.01267  Uiso   1.00
C38    C     0.62000   0.77380   0.09950   0.01267  Uiso   1.00
C39    C     0.78110   0.98880   0.37760   0.01267  Uiso   1.00
C40    C     0.77320   0.06460   0.36090   0.01267  Uiso   1.00
C41    C     0.71370   0.10410   0.38260   0.01267  Uiso   1.00
C42    C     0.66850   0.07450   0.42400   0.01267  Uiso   1.00
C43    C     0.67840   0.00110   0.43920   0.01267  Uiso   1.00
C44    C     0.73200   0.95640   0.41560   0.01267  Uiso   1.00
C45    C     0.60410   0.11990   0.44670   0.01267  Uiso   1.00
C46    C     0.11520   0.94470   0.39680   0.01267  Uiso   1.00
C47    C     0.13640   0.93570   0.44120   0.01267  Uiso   1.00
C48    C     0.21680   0.98210   0.45900   0.01267  Uiso   1.00
C49    C     0.26860   0.03600   0.43050   0.01267  Uiso   1.00
C50    C     0.24380   0.04150   0.38500   0.01267  Uiso   1.00
C51    C     0.16680   0.99650   0.36760   0.01267  Uiso   1.00
C52    C     0.35130   0.08930   0.44960   0.01267  Uiso   1.00
C53    C     0.51820   0.19340   0.13860   0.01267  Uiso   1.00
C54    C     0.51540   0.32480   0.14020   0.01267  Uiso   1.00
C55    C     0.50920   0.25580   0.20680   0.01267  Uiso   1.00
C56    C     0.52260   0.11950   0.11280   0.01267  Uiso   1.00
C57    C     0.52290   0.11540   0.06440   0.01267  Uiso   1.00
C58    C     0.52900   0.04720   0.04270   0.01267  Uiso   1.00
C59    C     0.53010   0.98200   0.11180   0.01267  Uiso   1.00
C60    C     0.52410   0.05000   0.13560   0.01267  Uiso   1.00
C61    C     0.51540   0.40000   0.11490   0.01267  Uiso   1.00
C62    C     0.51620   0.40420   0.06650   0.01267  Uiso   1.00
C63    C     0.51640   0.47620   0.04520   0.01267  Uiso   1.00
C64    C     0.51590   0.53770   0.11510   0.01267  Uiso   1.00
C65    C     0.51620   0.46780   0.14030   0.01267  Uiso   1.00
C66    C     0.50340   0.25270   0.25820   0.01267  Uiso   1.00
C67    C     0.50210   0.18250   0.28220   0.01267  Uiso   1.00
C68    C     0.49520   0.18090   0.33060   0.01267  Uiso   1.00
C69    C     0.49160   0.31370   0.33220   0.01267  Uiso   1.00
C70    C     0.49570   0.31840   0.28450   0.01267  Uiso   1.00
C71    C     0.94110   0.28710   0.83980   0.01267  Uiso   1.00
C72    C     0.07900   0.23530   0.84300   0.01267  Uiso   1.00
C73    C     0.94350   0.37530   0.82790   0.01267  Uiso   1.00
C74    C     0.08640   0.15100   0.83000   0.01267  Uiso   1.00
C75    C     0.03290   0.42540   0.83620   0.01267  Uiso   1.00
C76    C     0.87260   0.40170   0.86150   0.01267  Uiso   1.00
C77    C     0.92070   0.38760   0.77720   0.01267  Uiso   1.00
C78    C     0.11330   0.14490   0.78030   0.01267  Uiso   1.00
C79    C     0.15250   0.12560   0.86400   0.01267  Uiso   1.00
C80    C     0.99740   0.09800   0.83620   0.01267  Uiso   1.00
C81    C     0.14100   0.45790   0.89760   0.01267  Uiso   1.00
C82    C     0.17140   0.43860   0.94040   0.01267  Uiso   1.00
C83    C     0.24960   0.48450   0.95850   0.01267  Uiso   1.00
C84    C     0.29920   0.54750   0.93470   0.01267  Uiso   1.00
C85    C     0.26710   0.56300   0.89150   0.01267  Uiso   1.00
C86    C     0.18800   0.51850   0.87270   0.01267  Uiso   1.00
C87    C     0.38050   0.59720   0.95360   0.01267  Uiso   1.00
C88    C     0.80850   0.51540   0.87620   0.01267  Uiso   1.00
C89    C     0.76430   0.48140   0.91530   0.01267  Uiso   1.00
C90    C     0.71120   0.52640   0.94030   0.01267  Uiso   1.00
C91    C     0.69830   0.59900   0.92510   0.01267  Uiso   1.00
C92    C     0.74170   0.62840   0.88520   0.01267  Uiso   1.00
C93    C     0.79830   0.58770   0.86020   0.01267  Uiso   1.00
C94    C     0.63760   0.64380   0.94970   0.01267  Uiso   1.00
C95    C     0.79540   0.35890   0.72520   0.01267  Uiso   1.00
C96    C     0.84030   0.40210   0.69050   0.01267  Uiso   1.00
C97    C     0.79840   0.40660   0.64830   0.01267  Uiso   1.00
C98    C     0.71120   0.37080   0.64070   0.01267  Uiso   1.00
C99    C     0.66810   0.32400   0.67730   0.01267  Uiso   1.00
C100   C     0.71030   0.31980   0.71750   0.01267  Uiso   1.00
C101   C     0.66390   0.37380   0.59530   0.01267  Uiso   1.00
C102   C     0.23720   0.20300   0.73000   0.01267  Uiso   1.00
C103   C     0.23400   0.13850   0.70010   0.01267  Uiso   1.00
C104   C     0.28110   0.14860   0.65880   0.01267  Uiso   1.00
C105   C     0.32890   0.21820   0.64550   0.01267  Uiso   1.00
C106   C     0.32370   0.27740   0.67180   0.01267  Uiso   1.00
C107   C     0.28850   0.27050   0.71930   0.01267  Uiso   1.00
C108   C     0.38000   0.22620   0.59950   0.01267  Uiso   1.00
C109   C     0.21890   0.01120   0.87760   0.01267  Uiso   1.00
C110   C     0.22680   0.93540   0.86090   0.01267  Uiso   1.00
C111   C     0.28630   0.89590   0.88260   0.01267  Uiso   1.00
C112   C     0.33150   0.92550   0.92400   0.01267  Uiso   1.00
C113   C     0.32160   0.99890   0.93920   0.01267  Uiso   1.00
C114   C     0.26800   0.04360   0.91560   0.01267  Uiso   1.00
C115   C     0.39590   0.88010   0.94670   0.01267  Uiso   1.00
C116   C     0.88480   0.05530   0.89680   0.01267  Uiso   1.00
C117   C     0.86360   0.06430   0.94120   0.01267  Uiso   1.00
C118   C     0.78320   0.01790   0.95900   0.01267  Uiso   1.00
C119   C     0.73140   0.96400   0.93050   0.01267  Uiso   1.00
C120   C     0.75620   0.95850   0.88500   0.01267  Uiso   1.00
C121   C     0.83320   0.00350   0.86760   0.01267  Uiso   1.00
C122   C     0.64870   0.91070   0.94960   0.01267  Uiso   1.00
C123   C     0.48180   0.80660   0.63860   0.01267  Uiso   1.00
C124   C     0.48460   0.67520   0.64020   0.01267  Uiso   1.00
C125   C     0.49080   0.74420   0.70680   0.01267  Uiso   1.00
C126   C     0.47740   0.88050   0.61280   0.01267  Uiso   1.00
C127   C     0.47710   0.88460   0.56440   0.01267  Uiso   1.00
C128   C     0.47100   0.95280   0.54270   0.01267  Uiso   1.00
C129   C     0.46990   0.01800   0.61180   0.01267  Uiso   1.00
C130   C     0.47590   0.95000   0.63560   0.01267  Uiso   1.00
C131   C     0.48460   0.60000   0.61490   0.01267  Uiso   1.00
C132   C     0.48380   0.59580   0.56650   0.01267  Uiso   1.00
C133   C     0.48360   0.52380   0.54520   0.01267  Uiso   1.00
C134   C     0.48410   0.46230   0.61510   0.01267  Uiso   1.00
C135   C     0.48380   0.53220   0.64030   0.01267  Uiso   1.00
C136   C     0.49660   0.74730   0.75820   0.01267  Uiso   1.00
C137   C     0.49790   0.81750   0.78220   0.01267  Uiso   1.00
C138   C     0.50480   0.81910   0.83060   0.01267  Uiso   1.00
C139   C     0.50840   0.68630   0.83220   0.01267  Uiso   1.00
C140   C     0.50430   0.68160   0.78450   0.01267  Uiso   1.00
N1     N     0.51950   0.26090   0.11390   0.01267  Uiso   1.00
N2     N     0.51220   0.32640   0.18580   0.01267  Uiso   1.00
N3     N     0.51440   0.18850   0.18550   0.01267  Uiso   1.00
N4     N     0.53090   0.97930   0.06610   0.01267  Uiso   1.00
N5     N     0.51570   0.54220   0.06880   0.01267  Uiso   1.00
N6     N     0.49110   0.24640   0.35580   0.01267  Uiso   1.00
N7     N     0.48050   0.73910   0.61390   0.01267  Uiso   1.00
N8     N     0.48780   0.67360   0.68580   0.01267  Uiso   1.00
N9     N     0.48560   0.81150   0.68550   0.01267  Uiso   1.00
N10    N     0.46910   0.02070   0.56610   0.01267  Uiso   1.00
N11    N     0.48430   0.45780   0.56880   0.01267  Uiso   1.00
N12    N     0.50890   0.75360   0.85580   0.01267  Uiso   1.00
O1     O     0.98800   0.73810   0.31450   0.01267  Uiso   1.00
O2     O     0.40430   0.82780   0.07600   0.01267  Uiso   1.00
O3     O     0.93780   0.58960   0.38300   0.01267  Uiso   1.00
O4     O     0.13480   0.52090   0.34990   0.01267  Uiso   1.00
O5     O     0.16900   0.65250   0.26880   0.01267  Uiso   1.00
O6     O     0.80170   0.80100   0.27340   0.01267  Uiso   1.00
O7     O     0.83660   0.95110   0.35120   0.01267  Uiso   1.00
O8     O     0.03450   0.89360   0.38210   0.01267  Uiso   1.00
O9     O     0.57380   0.35350   0.42650   0.01267  Uiso   1.00
O10    O     0.59850   0.41110   0.49600   0.01267  Uiso   1.00
O11    O     0.39510   0.38200   0.48820   0.01267  Uiso   1.00
O12    O     0.37640   0.29440   0.43090   0.01267  Uiso   1.00
O13    O     0.29550   0.56850   0.06680   0.01267  Uiso   1.00
O14    O     0.40780   0.66850   0.08650   0.01267  Uiso   1.00
O15    O     0.60190   0.70710   0.08270   0.01267  Uiso   1.00
O16    O     0.59960   0.83530   0.08330   0.01267  Uiso   1.00
O17    O     0.56610   0.09120   0.48290   0.01267  Uiso   1.00
O18    O     0.59600   0.18360   0.42710   0.01267  Uiso   1.00
O19    O     0.40050   0.13470   0.42150   0.01267  Uiso   1.00
O20    O     0.36560   0.08420   0.49370   0.01267  Uiso   1.00
O21    O     0.49230   0.75570   0.00270   0.01267  Uiso   1.00
O22    O     0.01200   0.26190   0.81450   0.01267  Uiso   1.00
O23    O     0.59570   0.17220   0.57600   0.01267  Uiso   1.00
O24    O     0.06220   0.41040   0.88300   0.01267  Uiso   1.00
O25    O     0.86520   0.47910   0.84990   0.01267  Uiso   1.00
O26    O     0.83100   0.34750   0.76880   0.01267  Uiso   1.00
O27    O     0.19830   0.19900   0.77340   0.01267  Uiso   1.00
O28    O     0.16340   0.04890   0.85120   0.01267  Uiso   1.00
O29    O     0.96550   0.10640   0.88210   0.01267  Uiso   1.00
O30    O     0.42620   0.64650   0.92650   0.01267  Uiso   1.00
O31    O     0.40150   0.58890   0.99600   0.01267  Uiso   1.00
O32    O     0.60490   0.61800   0.98820   0.01267  Uiso   1.00
O33    O     0.62360   0.70560   0.93090   0.01267  Uiso   1.00
O34    O     0.70450   0.43150   0.56680   0.01267  Uiso   1.00
O35    O     0.59220   0.33150   0.58650   0.01267  Uiso   1.00
O36    O     0.39810   0.29290   0.58270   0.01267  Uiso   1.00
O37    O     0.40040   0.16470   0.58330   0.01267  Uiso   1.00
O38    O     0.43390   0.90880   0.98290   0.01267  Uiso   1.00
O39    O     0.40400   0.81640   0.92710   0.01267  Uiso   1.00
O40    O     0.59950   0.86530   0.92150   0.01267  Uiso   1.00
O41    O     0.63440   0.91580   0.99370   0.01267  Uiso   1.00
O42    O     0.50770   0.24430   0.50270   0.01267  Uiso   1.00
