data_CEBDOD_clean
_audit_creation_date              2014-07-02
_audit_creation_method            'Materials Studio'
_symmetry_space_group_name_H-M    'P1'
_symmetry_Int_Tables_number       1
_symmetry_cell_setting            triclinic
loop_
_symmetry_equiv_pos_as_xyz
  x,y,z
_cell_length_a                    7.1862
_cell_length_b                    13.4836
_cell_length_c                    13.4836
_cell_angle_alpha                 119.4310
_cell_angle_beta                  97.5329
_cell_angle_gamma                 82.4671
loop_
_atom_site_label
_atom_site_type_symbol
_atom_site_fract_x
_atom_site_fract_y
_atom_site_fract_z
_atom_site_U_iso_or_equiv
_atom_site_adp_type
_atom_site_occupancy
Ba1    Ba    0.10959   0.33181   0.84871   0.01267  Uiso   1.00
Ba2    Ba    0.39041   0.84871   0.33181   0.01267  Uiso   1.00
Ba3    Ba    0.89041   0.66819   0.15129   0.01267  Uiso   1.00
Ba4    Ba    0.60959   0.15129   0.66819   0.01267  Uiso   1.00
Ba5    Ba    0.25000   0.10062   0.10062   0.01267  Uiso   1.00
Ba6    Ba    0.75000   0.89938   0.89938   0.01267  Uiso   1.00
P1     P     0.64534   0.43978   0.85432   0.01267  Uiso   1.00
P2     P     0.10205   0.80278   0.03416   0.01267  Uiso   1.00
P3     P     0.85466   0.85432   0.43978   0.01267  Uiso   1.00
P4     P     0.39795   0.03416   0.80278   0.01267  Uiso   1.00
P5     P     0.35466   0.56022   0.14568   0.01267  Uiso   1.00
P6     P     0.89795   0.19722   0.96584   0.01267  Uiso   1.00
P7     P     0.14534   0.14568   0.56022   0.01267  Uiso   1.00
P8     P     0.60205   0.96584   0.19722   0.01267  Uiso   1.00
H1     H     0.62200   0.60600   0.87600   0.01267  Uiso   1.00
H2     H     0.47300   0.55800   0.79000   0.01267  Uiso   1.00
H3     H     0.27000   0.72800   0.87400   0.01267  Uiso   1.00
H4     H     0.39900   0.79200   0.98600   0.01267  Uiso   1.00
H5     H     0.87800   0.87600   0.60600   0.01267  Uiso   1.00
H6     H     0.02700   0.79000   0.55800   0.01267  Uiso   1.00
H7     H     0.23000   0.87400   0.72800   0.01267  Uiso   1.00
H8     H     0.10100   0.98600   0.79200   0.01267  Uiso   1.00
H9     H     0.37800   0.39400   0.12400   0.01267  Uiso   1.00
H10    H     0.52700   0.44200   0.21000   0.01267  Uiso   1.00
H11    H     0.73000   0.27200   0.12600   0.01267  Uiso   1.00
H12    H     0.60100   0.20800   0.01400   0.01267  Uiso   1.00
H13    H     0.12200   0.12400   0.39400   0.01267  Uiso   1.00
H14    H     0.97300   0.21000   0.44200   0.01267  Uiso   1.00
H15    H     0.77000   0.12600   0.27200   0.01267  Uiso   1.00
H16    H     0.89900   0.01400   0.20800   0.01267  Uiso   1.00
C1     C     0.53120   0.56920   0.85580   0.01267  Uiso   1.00
C2     C     0.30750   0.73885   0.95115   0.01267  Uiso   1.00
C3     C     0.96880   0.85580   0.56920   0.01267  Uiso   1.00
C4     C     0.19250   0.95115   0.73885   0.01267  Uiso   1.00
C5     C     0.46880   0.43080   0.14420   0.01267  Uiso   1.00
C6     C     0.69250   0.26115   0.04885   0.01267  Uiso   1.00
C7     C     0.03120   0.14420   0.43080   0.01267  Uiso   1.00
C8     C     0.80750   0.04885   0.26115   0.01267  Uiso   1.00
N1     N     0.39000   0.62832   0.94268   0.01267  Uiso   1.00
N2     N     0.11000   0.94268   0.62832   0.01267  Uiso   1.00
N3     N     0.61000   0.37168   0.05732   0.01267  Uiso   1.00
N4     N     0.89000   0.05732   0.37168   0.01267  Uiso   1.00
O1     O     0.79010   0.47637   0.95603   0.01267  Uiso   1.00
O2     O     0.49000   0.37629   0.85991   0.01267  Uiso   1.00
O3     O     0.73820   0.37257   0.74143   0.01267  Uiso   1.00
O4     O     0.14750   0.80695   0.14845   0.01267  Uiso   1.00
O5     O     0.07090   0.91848   0.03852   0.01267  Uiso   1.00
O6     O     0.93690   0.73059   0.96601   0.01267  Uiso   1.00
O7     O     0.70990   0.95603   0.47637   0.01267  Uiso   1.00
O8     O     0.01000   0.85991   0.37629   0.01267  Uiso   1.00
O9     O     0.76180   0.74143   0.37257   0.01267  Uiso   1.00
O10    O     0.35250   0.14845   0.80695   0.01267  Uiso   1.00
O11    O     0.42910   0.03852   0.91848   0.01267  Uiso   1.00
O12    O     0.56310   0.96601   0.73059   0.01267  Uiso   1.00
O13    O     0.20990   0.52363   0.04397   0.01267  Uiso   1.00
O14    O     0.51000   0.62371   0.14009   0.01267  Uiso   1.00
O15    O     0.26180   0.62743   0.25857   0.01267  Uiso   1.00
O16    O     0.85250   0.19305   0.85155   0.01267  Uiso   1.00
O17    O     0.92910   0.08152   0.96148   0.01267  Uiso   1.00
O18    O     0.06310   0.26941   0.03399   0.01267  Uiso   1.00
O19    O     0.29010   0.04397   0.52363   0.01267  Uiso   1.00
O20    O     0.99000   0.14009   0.62371   0.01267  Uiso   1.00
O21    O     0.23820   0.25857   0.62743   0.01267  Uiso   1.00
O22    O     0.64750   0.85155   0.19305   0.01267  Uiso   1.00
O23    O     0.57090   0.96148   0.08152   0.01267  Uiso   1.00
O24    O     0.43690   0.03399   0.26941   0.01267  Uiso   1.00
