data_CECVIQ_clean
_audit_creation_date              2014-07-02
_audit_creation_method            'Materials Studio'
_symmetry_space_group_name_H-M    'P1'
_symmetry_Int_Tables_number       1
_symmetry_cell_setting            triclinic
loop_
_symmetry_equiv_pos_as_xyz
  x,y,z
_cell_length_a                    6.7540
_cell_length_b                    11.9370
_cell_length_c                    13.4560
_cell_angle_alpha                 90.0000
_cell_angle_beta                  100.3810
_cell_angle_gamma                 90.0000
loop_
_atom_site_label
_atom_site_type_symbol
_atom_site_fract_x
_atom_site_fract_y
_atom_site_fract_z
_atom_site_U_iso_or_equiv
_atom_site_adp_type
_atom_site_occupancy
Pr1    Pr    0.05196   0.83113   0.75493   0.01267  Uiso   1.00
Pr2    Pr    0.94804   0.33113   0.74507   0.01267  Uiso   1.00
Pr3    Pr    0.94804   0.16887   0.24507   0.01267  Uiso   1.00
Pr4    Pr    0.05196   0.66887   0.25493   0.01267  Uiso   1.00
H1     H     0.80030   0.93850   0.95890   0.01267  Uiso   1.00
H2     H     0.45900   0.80400   0.14510   0.01267  Uiso   1.00
H3     H     0.19970   0.43850   0.54110   0.01267  Uiso   1.00
H4     H     0.54100   0.30400   0.35490   0.01267  Uiso   1.00
H5     H     0.19970   0.06150   0.04110   0.01267  Uiso   1.00
H6     H     0.54100   0.19600   0.85490   0.01267  Uiso   1.00
H7     H     0.80030   0.56150   0.45890   0.01267  Uiso   1.00
H8     H     0.45900   0.69600   0.64510   0.01267  Uiso   1.00
C1     C     0.54200   0.89770   0.78070   0.01267  Uiso   1.00
C2     C     0.52720   0.88000   0.89020   0.01267  Uiso   1.00
C3     C     0.68210   0.90480   0.97010   0.01267  Uiso   1.00
C4     C     0.65490   0.87770   0.06680   0.01267  Uiso   1.00
C5     C     0.81930   0.90070   0.15710   0.01267  Uiso   1.00
C6     C     0.47630   0.82720   0.08130   0.01267  Uiso   1.00
C7     C     0.32490   0.81270   0.99760   0.01267  Uiso   1.00
C8     C     0.11750   0.76700   0.00400   0.01267  Uiso   1.00
C9     C     0.45800   0.39770   0.71930   0.01267  Uiso   1.00
C10    C     0.47280   0.38000   0.60980   0.01267  Uiso   1.00
C11    C     0.31790   0.40480   0.52990   0.01267  Uiso   1.00
C12    C     0.34510   0.37770   0.43320   0.01267  Uiso   1.00
C13    C     0.18070   0.40070   0.34290   0.01267  Uiso   1.00
C14    C     0.52370   0.32720   0.41870   0.01267  Uiso   1.00
C15    C     0.67510   0.31270   0.50240   0.01267  Uiso   1.00
C16    C     0.88250   0.26700   0.49600   0.01267  Uiso   1.00
C17    C     0.45800   0.10230   0.21930   0.01267  Uiso   1.00
C18    C     0.47280   0.12000   0.10980   0.01267  Uiso   1.00
C19    C     0.31790   0.09520   0.02990   0.01267  Uiso   1.00
C20    C     0.34510   0.12230   0.93320   0.01267  Uiso   1.00
C21    C     0.18070   0.09930   0.84290   0.01267  Uiso   1.00
C22    C     0.52370   0.17280   0.91870   0.01267  Uiso   1.00
C23    C     0.67510   0.18730   0.00240   0.01267  Uiso   1.00
C24    C     0.88250   0.23300   0.99600   0.01267  Uiso   1.00
C25    C     0.54200   0.60230   0.28070   0.01267  Uiso   1.00
C26    C     0.52720   0.62000   0.39020   0.01267  Uiso   1.00
C27    C     0.68210   0.59520   0.47010   0.01267  Uiso   1.00
C28    C     0.65490   0.62230   0.56680   0.01267  Uiso   1.00
C29    C     0.81930   0.59930   0.65710   0.01267  Uiso   1.00
C30    C     0.47630   0.67280   0.58130   0.01267  Uiso   1.00
C31    C     0.32490   0.68730   0.49760   0.01267  Uiso   1.00
C32    C     0.11750   0.73300   0.50400   0.01267  Uiso   1.00
N1     N     0.34960   0.83850   0.90430   0.01267  Uiso   1.00
N2     N     0.65040   0.33850   0.59570   0.01267  Uiso   1.00
N3     N     0.65040   0.16150   0.09570   0.01267  Uiso   1.00
N4     N     0.34960   0.66150   0.40430   0.01267  Uiso   1.00
O1     O     0.37680   0.90110   0.71920   0.01267  Uiso   1.00
O2     O     0.71230   0.90720   0.75810   0.01267  Uiso   1.00
O3     O     0.83390   0.83210   0.22910   0.01267  Uiso   1.00
O4     O     0.92590   0.98590   0.15470   0.01267  Uiso   1.00
O5     O     0.07720   0.74270   0.08840   0.01267  Uiso   1.00
O6     O     0.99760   0.75720   0.92050   0.01267  Uiso   1.00
O7     O     0.62320   0.40110   0.78080   0.01267  Uiso   1.00
O8     O     0.28770   0.40720   0.74190   0.01267  Uiso   1.00
O9     O     0.16610   0.33210   0.27090   0.01267  Uiso   1.00
O10    O     0.07410   0.48590   0.34530   0.01267  Uiso   1.00
O11    O     0.92280   0.24270   0.41160   0.01267  Uiso   1.00
O12    O     0.00240   0.25720   0.57950   0.01267  Uiso   1.00
O13    O     0.62320   0.09890   0.28080   0.01267  Uiso   1.00
O14    O     0.28770   0.09280   0.24190   0.01267  Uiso   1.00
O15    O     0.16610   0.16790   0.77090   0.01267  Uiso   1.00
O16    O     0.07410   0.01410   0.84530   0.01267  Uiso   1.00
O17    O     0.92280   0.25730   0.91160   0.01267  Uiso   1.00
O18    O     0.00240   0.24280   0.07950   0.01267  Uiso   1.00
O19    O     0.37680   0.59890   0.21920   0.01267  Uiso   1.00
O20    O     0.71230   0.59280   0.25810   0.01267  Uiso   1.00
O21    O     0.83390   0.66790   0.72910   0.01267  Uiso   1.00
O22    O     0.92590   0.51410   0.65470   0.01267  Uiso   1.00
O23    O     0.07720   0.75730   0.58840   0.01267  Uiso   1.00
O24    O     0.99760   0.74280   0.42050   0.01267  Uiso   1.00
