data_CEDFIC_clean
_audit_creation_date              2014-07-02
_audit_creation_method            'Materials Studio'
_symmetry_space_group_name_H-M    'P1'
_symmetry_Int_Tables_number       1
_symmetry_cell_setting            triclinic
loop_
_symmetry_equiv_pos_as_xyz
  x,y,z
_cell_length_a                    13.6908
_cell_length_b                    13.6908
_cell_length_c                    16.3170
_cell_angle_alpha                 67.0219
_cell_angle_beta                  67.0219
_cell_angle_gamma                 75.6934
loop_
_atom_site_label
_atom_site_type_symbol
_atom_site_fract_x
_atom_site_fract_y
_atom_site_fract_z
_atom_site_U_iso_or_equiv
_atom_site_adp_type
_atom_site_occupancy
Gd1    Gd    0.16769   0.45449   0.99786   0.01267  Uiso   1.00
Gd2    Gd    0.54551   0.83231   0.50214   0.01267  Uiso   1.00
Gd3    Gd    0.83231   0.54551   0.00214   0.01267  Uiso   1.00
Gd4    Gd    0.45449   0.16769   0.49786   0.01267  Uiso   1.00
H1     H     0.08190   0.34550   0.56440   0.01267  Uiso   1.00
H2     H     0.08240   0.12780   0.15110   0.01267  Uiso   1.00
H3     H     0.22520   0.33840   0.74320   0.01267  Uiso   1.00
H4     H     0.91180   0.45400   0.78550   0.01267  Uiso   1.00
H5     H     0.65450   0.91810   0.93560   0.01267  Uiso   1.00
H6     H     0.87220   0.91760   0.34890   0.01267  Uiso   1.00
H7     H     0.66160   0.77480   0.75680   0.01267  Uiso   1.00
H8     H     0.54600   0.08820   0.71450   0.01267  Uiso   1.00
H9     H     0.91810   0.65450   0.43560   0.01267  Uiso   1.00
H10    H     0.91760   0.87220   0.84890   0.01267  Uiso   1.00
H11    H     0.77480   0.66160   0.25680   0.01267  Uiso   1.00
H12    H     0.08820   0.54600   0.21450   0.01267  Uiso   1.00
H13    H     0.34550   0.08190   0.06440   0.01267  Uiso   1.00
H14    H     0.12780   0.08240   0.65110   0.01267  Uiso   1.00
H15    H     0.33840   0.22520   0.24320   0.01267  Uiso   1.00
H16    H     0.45400   0.91180   0.28550   0.01267  Uiso   1.00
H17    H     0.76780   0.23220   0.25000   0.01267  Uiso   1.00
H18    H     0.23220   0.76780   0.75000   0.01267  Uiso   1.00
C1     C     0.92762   0.19686   0.18939   0.01267  Uiso   1.00
C2     C     0.07903   0.35825   0.61855   0.01267  Uiso   1.00
C3     C     0.95114   0.30816   0.12228   0.01267  Uiso   1.00
C4     C     0.06380   0.42832   0.85883   0.01267  Uiso   1.00
C5     C     0.01119   0.11433   0.19035   0.01267  Uiso   1.00
C6     C     0.16380   0.35536   0.72447   0.01267  Uiso   1.00
C7     C     0.06868   0.40204   0.77577   0.01267  Uiso   1.00
C8     C     0.16905   0.33349   0.64610   0.01267  Uiso   1.00
C9     C     0.27012   0.28154   0.59076   0.01267  Uiso   1.00
C10    C     0.97745   0.42425   0.75021   0.01267  Uiso   1.00
C11    C     0.98526   0.40180   0.67195   0.01267  Uiso   1.00
C12    C     0.80314   0.07238   0.31061   0.01267  Uiso   1.00
C13    C     0.64175   0.92097   0.88145   0.01267  Uiso   1.00
C14    C     0.69184   0.04886   0.37772   0.01267  Uiso   1.00
C15    C     0.57168   0.93620   0.64117   0.01267  Uiso   1.00
C16    C     0.88567   0.98881   0.30965   0.01267  Uiso   1.00
C17    C     0.64464   0.83620   0.77553   0.01267  Uiso   1.00
C18    C     0.59796   0.93132   0.72423   0.01267  Uiso   1.00
C19    C     0.66651   0.83095   0.85390   0.01267  Uiso   1.00
C20    C     0.71846   0.72988   0.90924   0.01267  Uiso   1.00
C21    C     0.57575   0.02255   0.74979   0.01267  Uiso   1.00
C22    C     0.59820   0.01474   0.82805   0.01267  Uiso   1.00
C23    C     0.07238   0.80314   0.81061   0.01267  Uiso   1.00
C24    C     0.92097   0.64175   0.38145   0.01267  Uiso   1.00
C25    C     0.04886   0.69184   0.87772   0.01267  Uiso   1.00
C26    C     0.93620   0.57168   0.14117   0.01267  Uiso   1.00
C27    C     0.98881   0.88567   0.80965   0.01267  Uiso   1.00
C28    C     0.83620   0.64464   0.27553   0.01267  Uiso   1.00
C29    C     0.93132   0.59796   0.22423   0.01267  Uiso   1.00
C30    C     0.83095   0.66651   0.35390   0.01267  Uiso   1.00
C31    C     0.72988   0.71846   0.40924   0.01267  Uiso   1.00
C32    C     0.02255   0.57575   0.24979   0.01267  Uiso   1.00
C33    C     0.01474   0.59820   0.32805   0.01267  Uiso   1.00
C34    C     0.19686   0.92762   0.68939   0.01267  Uiso   1.00
C35    C     0.35825   0.07903   0.11855   0.01267  Uiso   1.00
C36    C     0.30816   0.95114   0.62228   0.01267  Uiso   1.00
C37    C     0.42832   0.06380   0.35883   0.01267  Uiso   1.00
C38    C     0.11433   0.01119   0.69035   0.01267  Uiso   1.00
C39    C     0.35536   0.16380   0.22447   0.01267  Uiso   1.00
C40    C     0.40204   0.06868   0.27577   0.01267  Uiso   1.00
C41    C     0.33349   0.16905   0.14610   0.01267  Uiso   1.00
C42    C     0.28154   0.27012   0.09076   0.01267  Uiso   1.00
C43    C     0.42425   0.97745   0.25021   0.01267  Uiso   1.00
C44    C     0.40180   0.98526   0.17195   0.01267  Uiso   1.00
C45    C     0.82436   0.17564   0.25000   0.01267  Uiso   1.00
C46    C     0.98776   0.01224   0.25000   0.01267  Uiso   1.00
C47    C     0.17564   0.82436   0.75000   0.01267  Uiso   1.00
C48    C     0.01224   0.98776   0.75000   0.01267  Uiso   1.00
N1     N     0.88924   0.42354   0.64454   0.01267  Uiso   1.00
N2     N     0.57646   0.11076   0.85546   0.01267  Uiso   1.00
N3     N     0.11076   0.57646   0.35546   0.01267  Uiso   1.00
N4     N     0.42354   0.88924   0.14454   0.01267  Uiso   1.00
N5     N     0.07533   0.92467   0.25000   0.01267  Uiso   1.00
N6     N     0.92467   0.07533   0.75000   0.01267  Uiso   1.00
O1     O     0.87291   0.37549   0.10891   0.01267  Uiso   1.00
O2     O     0.04817   0.32403   0.08513   0.01267  Uiso   1.00
O3     O     0.14851   0.40833   0.87855   0.01267  Uiso   1.00
O4     O     0.97533   0.46925   0.90255   0.01267  Uiso   1.00
O5     O     0.27344   0.27362   0.51537   0.01267  Uiso   1.00
O6     O     0.34816   0.24574   0.62219   0.01267  Uiso   1.00
O7     O     0.16774   0.94744   0.20974   0.01267  Uiso   1.00
O8     O     0.90142   0.42216   0.56637   0.01267  Uiso   1.00
O9     O     0.80224   0.44234   0.70093   0.01267  Uiso   1.00
O10    O     0.62451   0.12709   0.39109   0.01267  Uiso   1.00
O11    O     0.67597   0.95183   0.41487   0.01267  Uiso   1.00
O12    O     0.59167   0.85149   0.62145   0.01267  Uiso   1.00
O13    O     0.53075   0.02467   0.59745   0.01267  Uiso   1.00
O14    O     0.72638   0.72656   0.98463   0.01267  Uiso   1.00
O15    O     0.75426   0.65184   0.87781   0.01267  Uiso   1.00
O16    O     0.05256   0.83226   0.29026   0.01267  Uiso   1.00
O17    O     0.57784   0.09858   0.93363   0.01267  Uiso   1.00
O18    O     0.55766   0.19776   0.79907   0.01267  Uiso   1.00
O19    O     0.12709   0.62451   0.89109   0.01267  Uiso   1.00
O20    O     0.95183   0.67597   0.91487   0.01267  Uiso   1.00
O21    O     0.85149   0.59167   0.12145   0.01267  Uiso   1.00
O22    O     0.02467   0.53075   0.09745   0.01267  Uiso   1.00
O23    O     0.72656   0.72638   0.48463   0.01267  Uiso   1.00
O24    O     0.65184   0.75426   0.37781   0.01267  Uiso   1.00
O25    O     0.83226   0.05256   0.79026   0.01267  Uiso   1.00
O26    O     0.09858   0.57784   0.43363   0.01267  Uiso   1.00
O27    O     0.19776   0.55766   0.29907   0.01267  Uiso   1.00
O28    O     0.37549   0.87291   0.60891   0.01267  Uiso   1.00
O29    O     0.32403   0.04817   0.58513   0.01267  Uiso   1.00
O30    O     0.40833   0.14851   0.37855   0.01267  Uiso   1.00
O31    O     0.46925   0.97533   0.40255   0.01267  Uiso   1.00
O32    O     0.27362   0.27344   0.01537   0.01267  Uiso   1.00
O33    O     0.24574   0.34816   0.12219   0.01267  Uiso   1.00
O34    O     0.94744   0.16774   0.70974   0.01267  Uiso   1.00
O35    O     0.42216   0.90142   0.06637   0.01267  Uiso   1.00
O36    O     0.44234   0.80224   0.20093   0.01267  Uiso   1.00
