data_image0
_cell_length_a       14.1153
_cell_length_b       8.8505
_cell_length_c       13.5704
_cell_angle_alpha    90
_cell_angle_beta     111.761
_cell_angle_gamma    90

_symmetry_space_group_name_H-M    "P 1"
_symmetry_int_tables_number       1

loop_
  _symmetry_equiv_pos_as_xyz
  'x, y, z'

loop_
  _atom_site_label
  _atom_site_occupancy
  _atom_site_fract_x
  _atom_site_fract_y
  _atom_site_fract_z
  _atom_site_thermal_displace_type
  _atom_site_B_iso_or_equiv
  _atom_site_type_symbol
  O1       1.0000 0.41853  0.64860  0.64040  Biso   1.000  O
  O2       1.0000 0.31430  0.45350  0.58780  Biso   1.000  O
  O3       1.0000 0.34800  0.46570  0.36480  Biso   1.000  O
  O4       1.0000 0.44049  0.64250  0.32532  Biso   1.000  O
  C1       1.0000 0.33690  0.58460  0.57440  Biso   1.000  C
  C2       1.0000 0.37420  0.59700  0.36450  Biso   1.000  C
  C3       1.0000 0.27000  0.67940  0.48010  Biso   1.000  C
  H1       1.0000 0.21110  0.61800  0.43780  Biso   1.000  H
  C4       1.0000 0.32860  0.72470  0.40900  Biso   1.000  C
  H2       1.0000 0.28270  0.78230  0.34960  Biso   1.000  H
  H3       1.0000 0.38360  0.79180  0.44940  Biso   1.000  H
  O5       1.0000 0.91853  0.14860  0.64040  Biso   1.000  O
  O6       1.0000 0.81430  0.95350  0.58780  Biso   1.000  O
  O7       1.0000 0.84800  0.96570  0.36480  Biso   1.000  O
  O8       1.0000 0.94049  0.14250  0.32532  Biso   1.000  O
  C5       1.0000 0.83690  0.08460  0.57440  Biso   1.000  C
  C6       1.0000 0.87420  0.09700  0.36450  Biso   1.000  C
  C7       1.0000 0.77000  0.17940  0.48010  Biso   1.000  C
  H4       1.0000 0.71110  0.11800  0.43780  Biso   1.000  H
  C8       1.0000 0.82860  0.22470  0.40900  Biso   1.000  C
  H5       1.0000 0.78270  0.28230  0.34960  Biso   1.000  H
  H6       1.0000 0.88360  0.29180  0.44940  Biso   1.000  H
  O9       1.0000 0.58147  0.64860  0.85960  Biso   1.000  O
  O10      1.0000 0.68570  0.45350  0.91220  Biso   1.000  O
  O11      1.0000 0.65200  0.46570  0.13520  Biso   1.000  O
  O12      1.0000 0.55951  0.64250  0.17468  Biso   1.000  O
  C9       1.0000 0.66310  0.58460  0.92560  Biso   1.000  C
  C10      1.0000 0.62580  0.59700  0.13550  Biso   1.000  C
  C11      1.0000 0.73000  0.67940  0.01990  Biso   1.000  C
  H7       1.0000 0.78890  0.61800  0.06220  Biso   1.000  H
  C12      1.0000 0.67140  0.72470  0.09100  Biso   1.000  C
  H8       1.0000 0.71730  0.78230  0.15040  Biso   1.000  H
  H9       1.0000 0.61640  0.79180  0.05060  Biso   1.000  H
  O13      1.0000 0.08147  0.14860  0.85960  Biso   1.000  O
  O14      1.0000 0.18570  0.95350  0.91220  Biso   1.000  O
  O15      1.0000 0.15200  0.96570  0.13520  Biso   1.000  O
  O16      1.0000 0.05951  0.14250  0.17468  Biso   1.000  O
  C13      1.0000 0.16310  0.08460  0.92560  Biso   1.000  C
  C14      1.0000 0.12580  0.09700  0.13550  Biso   1.000  C
  C15      1.0000 0.23000  0.17940  0.01990  Biso   1.000  C
  H10      1.0000 0.28890  0.11800  0.06220  Biso   1.000  H
  C16      1.0000 0.17140  0.22470  0.09100  Biso   1.000  C
  H11      1.0000 0.21730  0.28230  0.15040  Biso   1.000  H
  H12      1.0000 0.11640  0.29180  0.05060  Biso   1.000  H
  O17      1.0000 0.58147  0.35140  0.35960  Biso   1.000  O
  O18      1.0000 0.68570  0.54650  0.41220  Biso   1.000  O
  O19      1.0000 0.65200  0.53430  0.63520  Biso   1.000  O
  O20      1.0000 0.55951  0.35750  0.67468  Biso   1.000  O
  C17      1.0000 0.66310  0.41540  0.42560  Biso   1.000  C
  C18      1.0000 0.62580  0.40300  0.63550  Biso   1.000  C
  C19      1.0000 0.73000  0.32060  0.51990  Biso   1.000  C
  H13      1.0000 0.78890  0.38200  0.56220  Biso   1.000  H
  C20      1.0000 0.67140  0.27530  0.59100  Biso   1.000  C
  H14      1.0000 0.71730  0.21770  0.65040  Biso   1.000  H
  H15      1.0000 0.61640  0.20820  0.55060  Biso   1.000  H
  O21      1.0000 0.08147  0.85140  0.35960  Biso   1.000  O
  O22      1.0000 0.18570  0.04650  0.41220  Biso   1.000  O
  O23      1.0000 0.15200  0.03430  0.63520  Biso   1.000  O
  O24      1.0000 0.05951  0.85750  0.67468  Biso   1.000  O
  C21      1.0000 0.16310  0.91540  0.42560  Biso   1.000  C
  C22      1.0000 0.12580  0.90300  0.63550  Biso   1.000  C
  C23      1.0000 0.23000  0.82060  0.51990  Biso   1.000  C
  H16      1.0000 0.28890  0.88200  0.56220  Biso   1.000  H
  C24      1.0000 0.17140  0.77530  0.59100  Biso   1.000  C
  H17      1.0000 0.21730  0.71770  0.65040  Biso   1.000  H
  H18      1.0000 0.11640  0.70820  0.55060  Biso   1.000  H
  O25      1.0000 0.41853  0.35140  0.14040  Biso   1.000  O
  O26      1.0000 0.31430  0.54650  0.08780  Biso   1.000  O
  O27      1.0000 0.34800  0.53430  0.86480  Biso   1.000  O
  O28      1.0000 0.44049  0.35750  0.82532  Biso   1.000  O
  C25      1.0000 0.33690  0.41540  0.07440  Biso   1.000  C
  C26      1.0000 0.37420  0.40300  0.86450  Biso   1.000  C
  C27      1.0000 0.27000  0.32060  0.98010  Biso   1.000  C
  H19      1.0000 0.21110  0.38200  0.93780  Biso   1.000  H
  C28      1.0000 0.32860  0.27530  0.90900  Biso   1.000  C
  H20      1.0000 0.28270  0.21770  0.84960  Biso   1.000  H
  H21      1.0000 0.38360  0.20820  0.94940  Biso   1.000  H
  O29      1.0000 0.91853  0.85140  0.14040  Biso   1.000  O
  O30      1.0000 0.81430  0.04650  0.08780  Biso   1.000  O
  O31      1.0000 0.84800  0.03430  0.86480  Biso   1.000  O
  O32      1.0000 0.94049  0.85750  0.82532  Biso   1.000  O
  C29      1.0000 0.83690  0.91540  0.07440  Biso   1.000  C
  C30      1.0000 0.87420  0.90300  0.86450  Biso   1.000  C
  C31      1.0000 0.77000  0.82060  0.98010  Biso   1.000  C
  H22      1.0000 0.71110  0.88200  0.93780  Biso   1.000  H
  C32      1.0000 0.82860  0.77530  0.90900  Biso   1.000  C
  H23      1.0000 0.78270  0.71770  0.84960  Biso   1.000  H
  H24      1.0000 0.88360  0.70820  0.94940  Biso   1.000  H
  Zn1      1.0000 0.50000  0.50029  0.75000  Biso   1.000  Zn
  Zn2      1.0000 0.00000  0.00029  0.75000  Biso   1.000  Zn
  Zn3      1.0000 0.50000  0.49971  0.25000  Biso   1.000  Zn
  Zn4      1.0000 0.00000  0.99971  0.25000  Biso   1.000  Zn
