data_CEHWIX_clean
_audit_creation_date              2014-07-02
_audit_creation_method            'Materials Studio'
_symmetry_space_group_name_H-M    'P1'
_symmetry_Int_Tables_number       1
_symmetry_cell_setting            triclinic
loop_
_symmetry_equiv_pos_as_xyz
  x,y,z
_cell_length_a                    7.8651
_cell_length_b                    10.5450
_cell_length_c                    11.2000
_cell_angle_alpha                 90.0000
_cell_angle_beta                  90.0000
_cell_angle_gamma                 90.0000
loop_
_atom_site_label
_atom_site_type_symbol
_atom_site_fract_x
_atom_site_fract_y
_atom_site_fract_z
_atom_site_U_iso_or_equiv
_atom_site_adp_type
_atom_site_occupancy
Ni1    Ni    0.74308   0.21545   0.32108   0.01267  Uiso   1.00
Ni2    Ni    0.24308   0.78455   0.67892   0.01267  Uiso   1.00
Ni3    Ni    0.74308   0.71545   0.17892   0.01267  Uiso   1.00
Ni4    Ni    0.24308   0.28455   0.82108   0.01267  Uiso   1.00
H1     H     0.96390   0.03770   0.14440   0.01267  Uiso   1.00
H2     H     0.99590   0.42810   0.98210   0.01267  Uiso   1.00
H3     H     0.12550   0.07230   0.97950   0.01267  Uiso   1.00
H4     H     0.46390   0.96230   0.85560   0.01267  Uiso   1.00
H5     H     0.49590   0.57190   0.01790   0.01267  Uiso   1.00
H6     H     0.62550   0.92770   0.02050   0.01267  Uiso   1.00
H7     H     0.96390   0.53770   0.35560   0.01267  Uiso   1.00
H8     H     0.99590   0.92810   0.51790   0.01267  Uiso   1.00
H9     H     0.12550   0.57230   0.52050   0.01267  Uiso   1.00
H10    H     0.46390   0.46230   0.64440   0.01267  Uiso   1.00
H11    H     0.49590   0.07190   0.48210   0.01267  Uiso   1.00
H12    H     0.62550   0.42770   0.47950   0.01267  Uiso   1.00
C1     C     0.78860   0.42890   0.17300   0.01267  Uiso   1.00
C2     C     0.96920   0.11900   0.11240   0.01267  Uiso   1.00
C3     C     0.89090   0.32580   0.11220   0.01267  Uiso   1.00
C4     C     0.99150   0.34700   0.01460   0.01267  Uiso   1.00
C5     C     0.06770   0.14020   0.01350   0.01267  Uiso   1.00
C6     C     0.28860   0.57110   0.82700   0.01267  Uiso   1.00
C7     C     0.46920   0.88100   0.88760   0.01267  Uiso   1.00
C8     C     0.39090   0.67420   0.88780   0.01267  Uiso   1.00
C9     C     0.49150   0.65300   0.98540   0.01267  Uiso   1.00
C10    C     0.56770   0.85980   0.98650   0.01267  Uiso   1.00
C11    C     0.78860   0.92890   0.32700   0.01267  Uiso   1.00
C12    C     0.96920   0.61900   0.38760   0.01267  Uiso   1.00
C13    C     0.89090   0.82580   0.38780   0.01267  Uiso   1.00
C14    C     0.99150   0.84700   0.48540   0.01267  Uiso   1.00
C15    C     0.06770   0.64020   0.48650   0.01267  Uiso   1.00
C16    C     0.28860   0.07110   0.67300   0.01267  Uiso   1.00
C17    C     0.46920   0.38100   0.61240   0.01267  Uiso   1.00
C18    C     0.39090   0.17420   0.61220   0.01267  Uiso   1.00
C19    C     0.49150   0.15300   0.51460   0.01267  Uiso   1.00
C20    C     0.56770   0.35980   0.51350   0.01267  Uiso   1.00
N1     N     0.88200   0.21070   0.16320   0.01267  Uiso   1.00
N2     N     0.08370   0.25460   0.96440   0.01267  Uiso   1.00
N3     N     0.38200   0.78930   0.83680   0.01267  Uiso   1.00
N4     N     0.58370   0.74540   0.03560   0.01267  Uiso   1.00
N5     N     0.88200   0.71070   0.33680   0.01267  Uiso   1.00
N6     N     0.08370   0.75460   0.53560   0.01267  Uiso   1.00
N7     N     0.38200   0.28930   0.66320   0.01267  Uiso   1.00
N8     N     0.58370   0.24540   0.46440   0.01267  Uiso   1.00
Cl1    Cl    0.99210   0.28146   0.43893   0.01267  Uiso   1.00
Cl2    Cl    0.49210   0.71854   0.56107   0.01267  Uiso   1.00
Cl3    Cl    0.99210   0.78146   0.06107   0.01267  Uiso   1.00
Cl4    Cl    0.49210   0.21854   0.93893   0.01267  Uiso   1.00
O1     O     0.71420   0.40040   0.26740   0.01267  Uiso   1.00
O2     O     0.79270   0.53530   0.12420   0.01267  Uiso   1.00
O3     O     0.21420   0.59960   0.73260   0.01267  Uiso   1.00
O4     O     0.29270   0.46470   0.87580   0.01267  Uiso   1.00
O5     O     0.71420   0.90040   0.23260   0.01267  Uiso   1.00
O6     O     0.79270   0.03530   0.37580   0.01267  Uiso   1.00
O7     O     0.21420   0.09960   0.76740   0.01267  Uiso   1.00
O8     O     0.29270   0.96470   0.62420   0.01267  Uiso   1.00
