data_CEJBEA_clean
_audit_creation_date              2014-07-02
_audit_creation_method            'Materials Studio'
_symmetry_space_group_name_H-M    'P1'
_symmetry_Int_Tables_number       1
_symmetry_cell_setting            triclinic
loop_
_symmetry_equiv_pos_as_xyz
  x,y,z
_cell_length_a                    10.2860
_cell_length_b                    19.1610
_cell_length_c                    19.7870
_cell_angle_alpha                 77.5200
_cell_angle_beta                  76.7200
_cell_angle_gamma                 81.0200
loop_
_atom_site_label
_atom_site_type_symbol
_atom_site_fract_x
_atom_site_fract_y
_atom_site_fract_z
_atom_site_U_iso_or_equiv
_atom_site_adp_type
_atom_site_occupancy
Dy1    Dy    0.36700   0.94167   0.57157   0.01267  Uiso   1.00
Dy2    Dy    0.81608   0.48064   0.56761   0.01267  Uiso   1.00
Dy3    Dy    0.85156   0.58003   0.96141   0.01267  Uiso   1.00
Dy4    Dy    0.63300   0.05833   0.42843   0.01267  Uiso   1.00
Dy5    Dy    0.18392   0.51936   0.43239   0.01267  Uiso   1.00
Dy6    Dy    0.14844   0.41997   0.03859   0.01267  Uiso   1.00
H1     H     0.88420   0.00350   0.57040   0.01267  Uiso   1.00
H2     H     0.59010   0.00030   0.74300   0.01267  Uiso   1.00
H3     H     0.74600   0.99660   0.81090   0.01267  Uiso   1.00
H4     H     0.97240   0.99210   0.76010   0.01267  Uiso   1.00
H5     H     0.70660   0.73260   0.52890   0.01267  Uiso   1.00
H6     H     0.00500   0.71550   0.36130   0.01267  Uiso   1.00
H7     H     0.95620   0.83570   0.31530   0.01267  Uiso   1.00
H8     H     0.77860   0.90430   0.37370   0.01267  Uiso   1.00
H9     H     0.98340   0.48570   0.25300   0.01267  Uiso   1.00
H10    H     0.65890   0.58070   0.17790   0.01267  Uiso   1.00
H11    H     0.55050   0.59860   0.29060   0.01267  Uiso   1.00
H12    H     0.65930   0.55850   0.38430   0.01267  Uiso   1.00
H13    H     0.61150   0.41770   0.00310   0.01267  Uiso   1.00
H14    H     0.52700   0.22450   0.99240   0.01267  Uiso   1.00
H15    H     0.74860   0.17700   0.99620   0.01267  Uiso   1.00
H16    H     0.90090   0.25080   0.00390   0.01267  Uiso   1.00
H17    H     0.15920   0.87260   0.49930   0.01267  Uiso   1.00
H18    H     0.03580   0.77670   0.51000   0.01267  Uiso   1.00
H19    H     0.03870   0.68490   0.60460   0.01267  Uiso   1.00
H20    H     0.12730   0.62630   0.72610   0.01267  Uiso   1.00
H21    H     0.21920   0.63840   0.80420   0.01267  Uiso   1.00
H22    H     0.35970   0.71220   0.85230   0.01267  Uiso   1.00
H23    H     0.46370   0.81040   0.83580   0.01267  Uiso   1.00
H24    H     0.47490   0.89220   0.73030   0.01267  Uiso   1.00
H25    H     0.64950   0.40220   0.47980   0.01267  Uiso   1.00
H26    H     0.54970   0.30180   0.48030   0.01267  Uiso   1.00
H27    H     0.55460   0.20610   0.57240   0.01267  Uiso   1.00
H28    H     0.61870   0.15400   0.69310   0.01267  Uiso   1.00
H29    H     0.68760   0.16920   0.78630   0.01267  Uiso   1.00
H30    H     0.76540   0.25070   0.84680   0.01267  Uiso   1.00
H31    H     0.82950   0.36060   0.84510   0.01267  Uiso   1.00
H32    H     0.83760   0.44840   0.74240   0.01267  Uiso   1.00
H33    H     0.99360   0.74230   0.88530   0.01267  Uiso   1.00
H34    H     0.00350   0.83930   0.79260   0.01267  Uiso   1.00
H35    H     0.88520   0.84550   0.70550   0.01267  Uiso   1.00
H36    H     0.73880   0.78500   0.65210   0.01267  Uiso   1.00
H37    H     0.60260   0.69980   0.66630   0.01267  Uiso   1.00
H38    H     0.49340   0.59290   0.74380   0.01267  Uiso   1.00
H39    H     0.48140   0.50610   0.84330   0.01267  Uiso   1.00
H40    H     0.63040   0.49890   0.91640   0.01267  Uiso   1.00
H41    H     0.11580   0.99650   0.42960   0.01267  Uiso   1.00
H42    H     0.40990   0.99970   0.25700   0.01267  Uiso   1.00
H43    H     0.25400   0.00340   0.18910   0.01267  Uiso   1.00
H44    H     0.02760   0.00790   0.23990   0.01267  Uiso   1.00
H45    H     0.29340   0.26740   0.47110   0.01267  Uiso   1.00
H46    H     0.99500   0.28450   0.63870   0.01267  Uiso   1.00
H47    H     0.04380   0.16430   0.68470   0.01267  Uiso   1.00
H48    H     0.22140   0.09570   0.62630   0.01267  Uiso   1.00
H49    H     0.01660   0.51430   0.74700   0.01267  Uiso   1.00
H50    H     0.34110   0.41930   0.82210   0.01267  Uiso   1.00
H51    H     0.44950   0.40140   0.70940   0.01267  Uiso   1.00
H52    H     0.34070   0.44150   0.61570   0.01267  Uiso   1.00
H53    H     0.38850   0.58230   0.99690   0.01267  Uiso   1.00
H54    H     0.47300   0.77550   0.00760   0.01267  Uiso   1.00
H55    H     0.25140   0.82300   0.00380   0.01267  Uiso   1.00
H56    H     0.09910   0.74920   0.99610   0.01267  Uiso   1.00
H57    H     0.84080   0.12740   0.50070   0.01267  Uiso   1.00
H58    H     0.96420   0.22330   0.49000   0.01267  Uiso   1.00
H59    H     0.96130   0.31510   0.39540   0.01267  Uiso   1.00
H60    H     0.87270   0.37370   0.27390   0.01267  Uiso   1.00
H61    H     0.78080   0.36160   0.19580   0.01267  Uiso   1.00
H62    H     0.64030   0.28780   0.14770   0.01267  Uiso   1.00
H63    H     0.53630   0.18960   0.16420   0.01267  Uiso   1.00
H64    H     0.52510   0.10780   0.26970   0.01267  Uiso   1.00
H65    H     0.35050   0.59780   0.52020   0.01267  Uiso   1.00
H66    H     0.45030   0.69820   0.51970   0.01267  Uiso   1.00
H67    H     0.44540   0.79390   0.42760   0.01267  Uiso   1.00
H68    H     0.38130   0.84600   0.30690   0.01267  Uiso   1.00
H69    H     0.31240   0.83080   0.21370   0.01267  Uiso   1.00
H70    H     0.23460   0.74930   0.15320   0.01267  Uiso   1.00
H71    H     0.17050   0.63940   0.15490   0.01267  Uiso   1.00
H72    H     0.16240   0.55160   0.25760   0.01267  Uiso   1.00
H73    H     0.00640   0.25770   0.11470   0.01267  Uiso   1.00
H74    H     0.99650   0.16070   0.20740   0.01267  Uiso   1.00
H75    H     0.11480   0.15450   0.29450   0.01267  Uiso   1.00
H76    H     0.26120   0.21500   0.34790   0.01267  Uiso   1.00
H77    H     0.39740   0.30020   0.33370   0.01267  Uiso   1.00
H78    H     0.50660   0.40710   0.25620   0.01267  Uiso   1.00
H79    H     0.51860   0.49390   0.15670   0.01267  Uiso   1.00
H80    H     0.36960   0.50110   0.08360   0.01267  Uiso   1.00
C1     C     0.95110   0.99386   0.66059   0.01267  Uiso   1.00
C2     C     0.85650   0.00083   0.61897   0.01267  Uiso   1.00
C3     C     0.72000   0.00390   0.64973   0.01267  Uiso   1.00
C4     C     0.68070   0.00040   0.72181   0.01267  Uiso   1.00
C5     C     0.77420   0.99690   0.76274   0.01267  Uiso   1.00
C6     C     0.90950   0.99400   0.73246   0.01267  Uiso   1.00
C7     C     0.09800   0.98510   0.62725   0.01267  Uiso   1.00
C8     C     0.61910   0.01349   0.60281   0.01267  Uiso   1.00
C9     C     0.72620   0.82594   0.45872   0.01267  Uiso   1.00
C10    C     0.75680   0.75349   0.48589   0.01267  Uiso   1.00
C11    C     0.86030   0.71222   0.45010   0.01267  Uiso   1.00
C12    C     0.93500   0.74320   0.38580   0.01267  Uiso   1.00
C13    C     0.90520   0.81500   0.35810   0.01267  Uiso   1.00
C14    C     0.80010   0.85640   0.39340   0.01267  Uiso   1.00
C15    C     0.61720   0.87065   0.49839   0.01267  Uiso   1.00
C16    C     0.89510   0.63468   0.47880   0.01267  Uiso   1.00
C17    C     0.83470   0.51976   0.32763   0.01267  Uiso   1.00
C18    C     0.89600   0.50841   0.26059   0.01267  Uiso   1.00
C19    C     0.83090   0.52996   0.20400   0.01267  Uiso   1.00
C20    C     0.70280   0.56450   0.21550   0.01267  Uiso   1.00
C21    C     0.63770   0.57560   0.28310   0.01267  Uiso   1.00
C22    C     0.70330   0.55230   0.33897   0.01267  Uiso   1.00
C23    C     0.90770   0.49766   0.38773   0.01267  Uiso   1.00
C24    C     0.89580   0.51504   0.13197   0.01267  Uiso   1.00
C25    C     0.77220   0.34212   0.00333   0.01267  Uiso   1.00
C26    C     0.63960   0.36945   0.00144   0.01267  Uiso   1.00
C27    C     0.54940   0.32508   0.99708   0.01267  Uiso   1.00
C28    C     0.58870   0.25390   0.99520   0.01267  Uiso   1.00
C29    C     0.72150   0.22540   0.99760   0.01267  Uiso   1.00
C30    C     0.81250   0.26960   0.00190   0.01267  Uiso   1.00
C31    C     0.87000   0.39125   0.00640   0.01267  Uiso   1.00
C32    C     0.40730   0.35800   0.99571   0.01267  Uiso   1.00
C33    C     0.16010   0.83490   0.53780   0.01267  Uiso   1.00
C34    C     0.08520   0.77730   0.54370   0.01267  Uiso   1.00
C35    C     0.08770   0.72320   0.59990   0.01267  Uiso   1.00
C36    C     0.15970   0.72270   0.65030   0.01267  Uiso   1.00
C37    C     0.23210   0.78300   0.64130   0.01267  Uiso   1.00
C38    C     0.16810   0.66800   0.71900   0.01267  Uiso   1.00
C39    C     0.22330   0.67490   0.76440   0.01267  Uiso   1.00
C40    C     0.29640   0.73540   0.76250   0.01267  Uiso   1.00
C41    C     0.36010   0.74610   0.81080   0.01267  Uiso   1.00
C42    C     0.42290   0.80300   0.80090   0.01267  Uiso   1.00
C43    C     0.42800   0.85260   0.73710   0.01267  Uiso   1.00
C44    C     0.30140   0.78800   0.69510   0.01267  Uiso   1.00
C45    C     0.64610   0.36500   0.51890   0.01267  Uiso   1.00
C46    C     0.58790   0.30390   0.51800   0.01267  Uiso   1.00
C47    C     0.58870   0.24810   0.57300   0.01267  Uiso   1.00
C48    C     0.63960   0.25340   0.62980   0.01267  Uiso   1.00
C49    C     0.68960   0.31857   0.62870   0.01267  Uiso   1.00
C50    C     0.64570   0.19840   0.69220   0.01267  Uiso   1.00
C51    C     0.68680   0.20680   0.74770   0.01267  Uiso   1.00
C52    C     0.72980   0.27300   0.74930   0.01267  Uiso   1.00
C53    C     0.76690   0.28630   0.80650   0.01267  Uiso   1.00
C54    C     0.80630   0.35110   0.80550   0.01267  Uiso   1.00
C55    C     0.81120   0.40400   0.74310   0.01267  Uiso   1.00
C56    C     0.73610   0.32860   0.68890   0.01267  Uiso   1.00
C57    C     0.94660   0.74360   0.85000   0.01267  Uiso   1.00
C58    C     0.95260   0.80260   0.79430   0.01267  Uiso   1.00
C59    C     0.88300   0.80600   0.74250   0.01267  Uiso   1.00
C60    C     0.80840   0.75020   0.74490   0.01267  Uiso   1.00
C61    C     0.80590   0.69270   0.80359   0.01267  Uiso   1.00
C62    C     0.73220   0.74920   0.69240   0.01267  Uiso   1.00
C63    C     0.65250   0.69820   0.70040   0.01267  Uiso   1.00
C64    C     0.64270   0.64080   0.76075   0.01267  Uiso   1.00
C65    C     0.55010   0.59060   0.77480   0.01267  Uiso   1.00
C66    C     0.54350   0.53930   0.83300   0.01267  Uiso   1.00
C67    C     0.63140   0.53660   0.87780   0.01267  Uiso   1.00
C68    C     0.72200   0.63720   0.81048   0.01267  Uiso   1.00
C69    C     0.04890   0.00614   0.33941   0.01267  Uiso   1.00
C70    C     0.14350   0.99917   0.38103   0.01267  Uiso   1.00
C71    C     0.28000   0.99610   0.35027   0.01267  Uiso   1.00
C72    C     0.31930   0.99960   0.27819   0.01267  Uiso   1.00
C73    C     0.22580   0.00310   0.23726   0.01267  Uiso   1.00
C74    C     0.09050   0.00600   0.26754   0.01267  Uiso   1.00
C75    C     0.90200   0.01490   0.37275   0.01267  Uiso   1.00
C76    C     0.38090   0.98651   0.39719   0.01267  Uiso   1.00
C77    C     0.27380   0.17406   0.54128   0.01267  Uiso   1.00
C78    C     0.24320   0.24651   0.51411   0.01267  Uiso   1.00
C79    C     0.13970   0.28778   0.54990   0.01267  Uiso   1.00
C80    C     0.06500   0.25680   0.61420   0.01267  Uiso   1.00
C81    C     0.09480   0.18500   0.64190   0.01267  Uiso   1.00
C82    C     0.19990   0.14360   0.60660   0.01267  Uiso   1.00
C83    C     0.38280   0.12935   0.50161   0.01267  Uiso   1.00
C84    C     0.10490   0.36532   0.52120   0.01267  Uiso   1.00
C85    C     0.16530   0.48024   0.67237   0.01267  Uiso   1.00
C86    C     0.10400   0.49159   0.73941   0.01267  Uiso   1.00
C87    C     0.16910   0.47004   0.79600   0.01267  Uiso   1.00
C88    C     0.29720   0.43550   0.78450   0.01267  Uiso   1.00
C89    C     0.36230   0.42440   0.71690   0.01267  Uiso   1.00
C90    C     0.29670   0.44770   0.66103   0.01267  Uiso   1.00
C91    C     0.09230   0.50234   0.61227   0.01267  Uiso   1.00
C92    C     0.10420   0.48496   0.86803   0.01267  Uiso   1.00
C93    C     0.22780   0.65788   0.99667   0.01267  Uiso   1.00
C94    C     0.36040   0.63055   0.99856   0.01267  Uiso   1.00
C95    C     0.45060   0.67492   0.00292   0.01267  Uiso   1.00
C96    C     0.41130   0.74610   0.00480   0.01267  Uiso   1.00
C97    C     0.27850   0.77460   0.00240   0.01267  Uiso   1.00
C98    C     0.18750   0.73040   0.99810   0.01267  Uiso   1.00
C99    C     0.13000   0.60875   0.99360   0.01267  Uiso   1.00
C100   C     0.59270   0.64200   0.00429   0.01267  Uiso   1.00
C101   C     0.83990   0.16510   0.46220   0.01267  Uiso   1.00
C102   C     0.91480   0.22270   0.45630   0.01267  Uiso   1.00
C103   C     0.91230   0.27680   0.40010   0.01267  Uiso   1.00
C104   C     0.84030   0.27730   0.34970   0.01267  Uiso   1.00
C105   C     0.76790   0.21700   0.35870   0.01267  Uiso   1.00
C106   C     0.83190   0.33200   0.28100   0.01267  Uiso   1.00
C107   C     0.77670   0.32510   0.23560   0.01267  Uiso   1.00
C108   C     0.70360   0.26460   0.23750   0.01267  Uiso   1.00
C109   C     0.63990   0.25390   0.18920   0.01267  Uiso   1.00
C110   C     0.57710   0.19700   0.19910   0.01267  Uiso   1.00
C111   C     0.57200   0.14740   0.26290   0.01267  Uiso   1.00
C112   C     0.69860   0.21200   0.30490   0.01267  Uiso   1.00
C113   C     0.35390   0.63500   0.48110   0.01267  Uiso   1.00
C114   C     0.41210   0.69610   0.48200   0.01267  Uiso   1.00
C115   C     0.41130   0.75190   0.42700   0.01267  Uiso   1.00
C116   C     0.36040   0.74660   0.37020   0.01267  Uiso   1.00
C117   C     0.31040   0.68143   0.37130   0.01267  Uiso   1.00
C118   C     0.35430   0.80160   0.30780   0.01267  Uiso   1.00
C119   C     0.31320   0.79320   0.25230   0.01267  Uiso   1.00
C120   C     0.27020   0.72700   0.25070   0.01267  Uiso   1.00
C121   C     0.23310   0.71370   0.19350   0.01267  Uiso   1.00
C122   C     0.19370   0.64890   0.19450   0.01267  Uiso   1.00
C123   C     0.18880   0.59600   0.25690   0.01267  Uiso   1.00
C124   C     0.26390   0.67140   0.31110   0.01267  Uiso   1.00
C125   C     0.05340   0.25640   0.15000   0.01267  Uiso   1.00
C126   C     0.04740   0.19740   0.20570   0.01267  Uiso   1.00
C127   C     0.11700   0.19400   0.25750   0.01267  Uiso   1.00
C128   C     0.19160   0.24980   0.25510   0.01267  Uiso   1.00
C129   C     0.19410   0.30730   0.19641   0.01267  Uiso   1.00
C130   C     0.26780   0.25080   0.30760   0.01267  Uiso   1.00
C131   C     0.34750   0.30180   0.29960   0.01267  Uiso   1.00
C132   C     0.35730   0.35920   0.23925   0.01267  Uiso   1.00
C133   C     0.44990   0.40940   0.22520   0.01267  Uiso   1.00
C134   C     0.45650   0.46070   0.16700   0.01267  Uiso   1.00
C135   C     0.36860   0.46340   0.12220   0.01267  Uiso   1.00
C136   C     0.27800   0.36280   0.18952   0.01267  Uiso   1.00
N1     N     0.77960   0.39223   0.68583   0.01267  Uiso   1.00
N2     N     0.69600   0.37274   0.57178   0.01267  Uiso   1.00
N3     N     0.23190   0.83748   0.58494   0.01267  Uiso   1.00
N4     N     0.36970   0.84640   0.68577   0.01267  Uiso   1.00
N5     N     0.87660   0.68900   0.85502   0.01267  Uiso   1.00
N6     N     0.71700   0.58518   0.86854   0.01267  Uiso   1.00
N7     N     0.55550   0.55190   0.60901   0.01267  Uiso   1.00
N8     N     0.22040   0.60777   0.31417   0.01267  Uiso   1.00
N9     N     0.30400   0.62726   0.42822   0.01267  Uiso   1.00
N10    N     0.76810   0.16252   0.41506   0.01267  Uiso   1.00
N11    N     0.63030   0.15360   0.31423   0.01267  Uiso   1.00
N12    N     0.12340   0.31100   0.14498   0.01267  Uiso   1.00
N13    N     0.28300   0.41482   0.13146   0.01267  Uiso   1.00
N14    N     0.44450   0.44810   0.39099   0.01267  Uiso   1.00
O1     O     0.13400   0.98955   0.56234   0.01267  Uiso   1.00
O2     O     0.18500   0.97172   0.66688   0.01267  Uiso   1.00
O3     O     0.51780   0.97891   0.62610   0.01267  Uiso   1.00
O4     O     0.64560   0.05436   0.54460   0.01267  Uiso   1.00
O5     O     0.53010   0.84107   0.54560   0.01267  Uiso   1.00
O6     O     0.61300   0.93888   0.48239   0.01267  Uiso   1.00
O7     O     0.81190   0.60501   0.52838   0.01267  Uiso   1.00
O8     O     0.00540   0.60331   0.45133   0.01267  Uiso   1.00
O9     O     0.83640   0.48807   0.44880   0.01267  Uiso   1.00
O10    O     0.03330   0.49048   0.37365   0.01267  Uiso   1.00
O11    O     0.85380   0.55527   0.08046   0.01267  Uiso   1.00
O12    O     0.98740   0.46357   0.12768   0.01267  Uiso   1.00
O13    O     0.84060   0.45763   0.98797   0.01267  Uiso   1.00
O14    O     0.97610   0.36280   0.02788   0.01267  Uiso   1.00
O15    O     0.31370   0.31836   0.01224   0.01267  Uiso   1.00
O16    O     0.38230   0.42597   0.98211   0.01267  Uiso   1.00
O17    O     0.58290   0.52963   0.55249   0.01267  Uiso   1.00
O18    O     0.64000   0.53210   0.64893   0.01267  Uiso   1.00
O19    O     0.45430   0.59320   0.62610   0.01267  Uiso   1.00
O20    O     0.86600   0.01045   0.43766   0.01267  Uiso   1.00
O21    O     0.81500   0.02828   0.33312   0.01267  Uiso   1.00
O22    O     0.48220   0.02109   0.37390   0.01267  Uiso   1.00
O23    O     0.35440   0.94564   0.45540   0.01267  Uiso   1.00
O24    O     0.46990   0.15893   0.45440   0.01267  Uiso   1.00
O25    O     0.38700   0.06112   0.51761   0.01267  Uiso   1.00
O26    O     0.18810   0.39499   0.47162   0.01267  Uiso   1.00
O27    O     0.99460   0.39669   0.54867   0.01267  Uiso   1.00
O28    O     0.16360   0.51193   0.55120   0.01267  Uiso   1.00
O29    O     0.96670   0.50952   0.62635   0.01267  Uiso   1.00
O30    O     0.14620   0.44473   0.91954   0.01267  Uiso   1.00
O31    O     0.01260   0.53643   0.87232   0.01267  Uiso   1.00
O32    O     0.15940   0.54237   0.01203   0.01267  Uiso   1.00
O33    O     0.02390   0.63720   0.97212   0.01267  Uiso   1.00
O34    O     0.68630   0.68164   0.98776   0.01267  Uiso   1.00
O35    O     0.61770   0.57403   0.01789   0.01267  Uiso   1.00
O36    O     0.41710   0.47037   0.44751   0.01267  Uiso   1.00
O37    O     0.36000   0.46790   0.35107   0.01267  Uiso   1.00
O38    O     0.54570   0.40680   0.37390   0.01267  Uiso   1.00
