data_image0
_cell_length_a       11.1556
_cell_length_b       13.043
_cell_length_c       14.135
_cell_angle_alpha    89.759
_cell_angle_beta     87.182
_cell_angle_gamma    85.006

_symmetry_space_group_name_H-M    "P 1"
_symmetry_int_tables_number       1

loop_
  _symmetry_equiv_pos_as_xyz
  'x, y, z'

loop_
  _atom_site_label
  _atom_site_occupancy
  _atom_site_fract_x
  _atom_site_fract_y
  _atom_site_fract_z
  _atom_site_thermal_displace_type
  _atom_site_B_iso_or_equiv
  _atom_site_type_symbol
  Cu1      1.0000 0.59444  0.93211  0.99934  Biso   1.000  Cu
  Cu2      1.0000 0.59847  0.54972  0.49893  Biso   1.000  Cu
  C1       1.0000 0.65820  0.14970  0.78380  Biso   1.000  C
  C2       1.0000 0.59360  0.22770  0.73480  Biso   1.000  C
  C3       1.0000 0.65820  0.28560  0.66900  Biso   1.000  C
  C4       1.0000 0.77990  0.26370  0.65050  Biso   1.000  C
  H1       1.0000 0.82030  0.30300  0.60640  Biso   1.000  H
  C5       1.0000 0.84290  0.18390  0.69650  Biso   1.000  C
  H2       1.0000 0.92540  0.16970  0.68450  Biso   1.000  H
  C6       1.0000 0.77910  0.12470  0.76210  Biso   1.000  C
  H3       1.0000 0.81900  0.06820  0.79100  Biso   1.000  H
  C7       1.0000 0.59850  0.08950  0.86280  Biso   1.000  C
  C8       1.0000 0.46170  0.24770  0.75050  Biso   1.000  C
  C9       1.0000 0.59500  0.36980  0.61220  Biso   1.000  C
  O1       1.0000 0.65550  0.01100  0.89330  Biso   1.000  O
  O2       1.0000 0.49890  0.12830  0.89640  Biso   1.000  O
  O3       1.0000 0.41630  0.32620  0.79390  Biso   1.000  O
  O4       1.0000 0.39700  0.18390  0.71220  Biso   1.000  O
  O5       1.0000 0.65470  0.44370  0.58960  Biso   1.000  O
  O6       1.0000 0.48800  0.36080  0.59240  Biso   1.000  O
  C10      1.0000 0.34000  0.82420  0.81900  Biso   1.000  C
  C11      1.0000 0.40410  0.75040  0.75830  Biso   1.000  C
  C12      1.0000 0.33900  0.69110  0.70060  Biso   1.000  C
  C13      1.0000 0.21670  0.70190  0.70480  Biso   1.000  C
  H4       1.0000 0.17580  0.66010  0.66680  Biso   1.000  H
  C14      1.0000 0.15090  0.77280  0.76340  Biso   1.000  C
  H5       1.0000 0.06710  0.77960  0.76460  Biso   1.000  H
  C15      1.0000 0.21400  0.83420  0.82100  Biso   1.000  C
  H6       1.0000 0.17160  0.88230  0.86120  Biso   1.000  H
  C16      1.0000 0.40110  0.88740  0.88500  Biso   1.000  C
  C17      1.0000 0.54020  0.74510  0.75240  Biso   1.000  C
  C18      1.0000 0.40200  0.61510  0.62990  Biso   1.000  C
  O7       1.0000 0.50300  0.85540  0.91140  Biso   1.000  O
  O8       1.0000 0.34500  0.97000  0.91120  Biso   1.000  O
  O9       1.0000 0.58860  0.81470  0.70920  Biso   1.000  O
  O10      1.0000 0.59610  0.66800  0.79040  Biso   1.000  O
  O11      1.0000 0.50360  0.62910  0.60070  Biso   1.000  O
  O12      1.0000 0.34100  0.54360  0.60440  Biso   1.000  O
  N1       1.0000 0.32780  0.56080  0.00210  Biso   1.000  N
  C19      1.0000 0.29320  0.64070  0.05720  Biso   1.000  C
  H7       1.0000 0.34990  0.66590  0.09510  Biso   1.000  H
  C20      1.0000 0.17760  0.68890  0.06170  Biso   1.000  C
  H8       1.0000 0.15770  0.74440  0.10230  Biso   1.000  H
  C21      1.0000 0.09230  0.65390  0.00540  Biso   1.000  C
  C22      1.0000 0.12990  0.57010  0.94900  Biso   1.000  C
  H9       1.0000 0.07660  0.54270  0.90960  Biso   1.000  H
  C23      1.0000 0.24670  0.52750  0.95150  Biso   1.000  C
  H10      1.0000 0.26880  0.47010  0.91360  Biso   1.000  H
  N2       1.0000 0.75070  0.82520  0.00370  Biso   1.000  N
  C24      1.0000 0.80590  0.80970  0.08330  Biso   1.000  C
  H11      1.0000 0.76980  0.83920  0.13850  Biso   1.000  H
  C25      1.0000 0.91580  0.75120  0.08870  Biso   1.000  C
  H12      1.0000 0.95120  0.74170  0.14660  Biso   1.000  H
  C26      1.0000 0.97180  0.70750  0.00780  Biso   1.000  C
  C27      1.0000 0.90710  0.71770  0.92640  Biso   1.000  C
  H13      1.0000 0.93680  0.68440  0.87090  Biso   1.000  H
  C28      1.0000 0.79680  0.77840  0.92780  Biso   1.000  C
  H14      1.0000 0.75530  0.78550  0.87240  Biso   1.000  H
  Cu3      1.0000 0.40556  0.06789  0.00066  Biso   1.000  Cu
  Cu4      1.0000 0.40153  0.45028  0.50107  Biso   1.000  Cu
  C29      1.0000 0.34180  0.85030  0.21620  Biso   1.000  C
  C30      1.0000 0.40640  0.77230  0.26520  Biso   1.000  C
  C31      1.0000 0.34180  0.71440  0.33100  Biso   1.000  C
  C32      1.0000 0.22010  0.73630  0.34950  Biso   1.000  C
  H15      1.0000 0.17970  0.69700  0.39360  Biso   1.000  H
  C33      1.0000 0.15710  0.81610  0.30350  Biso   1.000  C
  H16      1.0000 0.07460  0.83030  0.31550  Biso   1.000  H
  C34      1.0000 0.22090  0.87530  0.23790  Biso   1.000  C
  H17      1.0000 0.18100  0.93180  0.20900  Biso   1.000  H
  C35      1.0000 0.40150  0.91050  0.13720  Biso   1.000  C
  C36      1.0000 0.53830  0.75230  0.24950  Biso   1.000  C
  C37      1.0000 0.40500  0.63020  0.38780  Biso   1.000  C
  O13      1.0000 0.34450  0.98900  0.10670  Biso   1.000  O
  O14      1.0000 0.50110  0.87170  0.10360  Biso   1.000  O
  O15      1.0000 0.58370  0.67380  0.20610  Biso   1.000  O
  O16      1.0000 0.60300  0.81610  0.28780  Biso   1.000  O
  O17      1.0000 0.34530  0.55630  0.41040  Biso   1.000  O
  O18      1.0000 0.51200  0.63920  0.40760  Biso   1.000  O
  C38      1.0000 0.66000  0.17580  0.18100  Biso   1.000  C
  C39      1.0000 0.59590  0.24960  0.24170  Biso   1.000  C
  C40      1.0000 0.66100  0.30890  0.29940  Biso   1.000  C
  C41      1.0000 0.78330  0.29810  0.29520  Biso   1.000  C
  H18      1.0000 0.82420  0.33990  0.33320  Biso   1.000  H
  C42      1.0000 0.84910  0.22720  0.23660  Biso   1.000  C
  H19      1.0000 0.93290  0.22040  0.23540  Biso   1.000  H
  C43      1.0000 0.78600  0.16580  0.17900  Biso   1.000  C
  H20      1.0000 0.82840  0.11770  0.13880  Biso   1.000  H
  C44      1.0000 0.59890  0.11260  0.11500  Biso   1.000  C
  C45      1.0000 0.45980  0.25490  0.24760  Biso   1.000  C
  C46      1.0000 0.59800  0.38490  0.37010  Biso   1.000  C
  O19      1.0000 0.49700  0.14460  0.08860  Biso   1.000  O
  O20      1.0000 0.65500  0.03000  0.08880  Biso   1.000  O
  O21      1.0000 0.41140  0.18530  0.29080  Biso   1.000  O
  O22      1.0000 0.40390  0.33200  0.20960  Biso   1.000  O
  O23      1.0000 0.49640  0.37090  0.39930  Biso   1.000  O
  O24      1.0000 0.65900  0.45640  0.39560  Biso   1.000  O
  N3       1.0000 0.67220  0.43920  0.99790  Biso   1.000  N
  C47      1.0000 0.70680  0.35930  0.94280  Biso   1.000  C
  H21      1.0000 0.65010  0.33410  0.90490  Biso   1.000  H
  C48      1.0000 0.82240  0.31110  0.93830  Biso   1.000  C
  H22      1.0000 0.84230  0.25560  0.89770  Biso   1.000  H
  C49      1.0000 0.90770  0.34610  0.99460  Biso   1.000  C
  C50      1.0000 0.87010  0.42990  0.05100  Biso   1.000  C
  H23      1.0000 0.92340  0.45730  0.09040  Biso   1.000  H
  C51      1.0000 0.75330  0.47250  0.04850  Biso   1.000  C
  H24      1.0000 0.73120  0.52990  0.08640  Biso   1.000  H
  N4       1.0000 0.24930  0.17480  0.99630  Biso   1.000  N
  C52      1.0000 0.19410  0.19030  0.91670  Biso   1.000  C
  H25      1.0000 0.23020  0.16080  0.86150  Biso   1.000  H
  C53      1.0000 0.08420  0.24880  0.91130  Biso   1.000  C
  H26      1.0000 0.04880  0.25830  0.85340  Biso   1.000  H
  C54      1.0000 0.02820  0.29250  0.99220  Biso   1.000  C
  C55      1.0000 0.09290  0.28230  0.07360  Biso   1.000  C
  H27      1.0000 0.06320  0.31560  0.12910  Biso   1.000  H
  C56      1.0000 0.20320  0.22160  0.07220  Biso   1.000  C
  H28      1.0000 0.24470  0.21450  0.12760  Biso   1.000  H
  Cu5      1.0000 0.50000  0.50000  0.00000  Biso   1.000  Cu
