data_image0
_cell_length_a       16.673
_cell_length_b       9.5861
_cell_length_c       22.518
_cell_angle_alpha    90
_cell_angle_beta     103.956
_cell_angle_gamma    90

_symmetry_space_group_name_H-M    "P 1"
_symmetry_int_tables_number       1

loop_
  _symmetry_equiv_pos_as_xyz
  'x, y, z'

loop_
  _atom_site_label
  _atom_site_occupancy
  _atom_site_fract_x
  _atom_site_fract_y
  _atom_site_fract_z
  _atom_site_thermal_displace_type
  _atom_site_B_iso_or_equiv
  _atom_site_type_symbol
  Ce1      1.0000 0.07400  0.27212  0.18224  Biso   1.000  Ce
  Ce2      1.0000 0.23681  0.76501  0.04563  Biso   1.000  Ce
  Ce3      1.0000 0.33226  0.20132  0.12975  Biso   1.000  Ce
  Ce4      1.0000 0.46739  0.24150  0.41552  Biso   1.000  Ce
  S1       1.0000 0.15950  0.03367  0.10531  Biso   1.000  S
  S2       1.0000 0.41057  0.83510  0.17018  Biso   1.000  S
  S3       1.0000 0.01109  0.03416  0.25951  Biso   1.000  S
  S4       1.0000 0.18159  0.50797  0.11420  Biso   1.000  S
  S5       1.0000 0.37232  0.47437  0.01547  Biso   1.000  S
  S6       1.0000 0.37821  0.98881  0.99786  Biso   1.000  S
  S7       1.0000 0.91322  0.25056  0.07294  Biso   1.000  S
  S8       1.0000 0.29804  0.29115  0.28031  Biso   1.000  S
  O1       1.0000 0.05910  0.01840  0.21277  Biso   1.000  O
  O2       1.0000 0.98540  0.33930  0.07647  Biso   1.000  O
  O3       1.0000 0.14120  0.56400  0.05371  Biso   1.000  O
  O4       1.0000 0.40550  0.75600  0.22376  Biso   1.000  O
  O5       1.0000 0.92840  0.17030  0.13047  Biso   1.000  O
  O6       1.0000 0.49610  0.87880  0.17227  Biso   1.000  O
  O7       1.0000 0.38560  0.74920  0.11384  Biso   1.000  O
  O8       1.0000 0.21110  0.06250  0.06072  Biso   1.000  O
  O9       1.0000 0.83640  0.33380  0.06471  Biso   1.000  O
  O10      1.0000 0.16220  0.88160  0.11515  Biso   1.000  O
  O11      1.0000 0.00850  0.18710  0.26966  Biso   1.000  O
  O12      1.0000 0.37690  0.41560  0.95619  Biso   1.000  O
  O13      1.0000 0.29860  0.91440  0.98314  Biso   1.000  O
  O14      1.0000 0.89790  0.15600  0.01964  Biso   1.000  O
  O15      1.0000 0.30670  0.57750  0.00494  Biso   1.000  O
  O16      1.0000 0.35520  0.95450  0.16380  Biso   1.000  O
  O17      1.0000 0.33700  0.20410  0.24053  Biso   1.000  O
  O18      1.0000 0.32880  0.24160  0.34341  Biso   1.000  O
  O19      1.0000 0.19940  0.10780  0.16220  Biso   1.000  O
  O20      1.0000 0.25230  0.60170  0.13895  Biso   1.000  O
  O21      1.0000 0.07580  0.08500  0.08541  Biso   1.000  O
  O22      1.0000 0.20750  0.27600  0.26304  Biso   1.000  O
  O23      1.0000 0.04930  0.95980  0.31593  Biso   1.000  O
  O24      1.0000 0.38570  0.06940  0.94533  Biso   1.000  O
  O25      1.0000 0.12480  0.50470  0.15427  Biso   1.000  O
  O26      1.0000 0.92770  0.97450  0.23753  Biso   1.000  O
  O27      1.0000 0.20880  0.36410  0.10850  Biso   1.000  O
  O28      1.0000 0.44990  0.53570  0.04590  Biso   1.000  O
  O29      1.0000 0.32180  0.43520  0.27470  Biso   1.000  O
  O30      1.0000 0.38740  0.06940  0.05180  Biso   1.000  O
  O31      1.0000 0.44260  0.87790  0.00640  Biso   1.000  O
  O32      1.0000 0.34950  0.36380  0.05200  Biso   1.000  O
  Ce5      1.0000 0.92600  0.77212  0.31776  Biso   1.000  Ce
  Ce6      1.0000 0.76319  0.26501  0.45437  Biso   1.000  Ce
  Ce7      1.0000 0.66774  0.70132  0.37025  Biso   1.000  Ce
  Ce8      1.0000 0.53261  0.74150  0.08448  Biso   1.000  Ce
  S9       1.0000 0.84050  0.53367  0.39469  Biso   1.000  S
  S10      1.0000 0.58943  0.33510  0.32982  Biso   1.000  S
  S11      1.0000 0.98891  0.53416  0.24049  Biso   1.000  S
  S12      1.0000 0.81841  0.00797  0.38580  Biso   1.000  S
  S13      1.0000 0.62768  0.97437  0.48453  Biso   1.000  S
  S14      1.0000 0.62179  0.48881  0.50214  Biso   1.000  S
  S15      1.0000 0.08678  0.75056  0.42706  Biso   1.000  S
  S16      1.0000 0.70196  0.79115  0.21969  Biso   1.000  S
  O33      1.0000 0.94090  0.51840  0.28723  Biso   1.000  O
  O34      1.0000 0.01460  0.83930  0.42353  Biso   1.000  O
  O35      1.0000 0.85880  0.06400  0.44629  Biso   1.000  O
  O36      1.0000 0.59450  0.25600  0.27624  Biso   1.000  O
  O37      1.0000 0.07160  0.67030  0.36953  Biso   1.000  O
  O38      1.0000 0.50390  0.37880  0.32773  Biso   1.000  O
  O39      1.0000 0.61440  0.24920  0.38616  Biso   1.000  O
  O40      1.0000 0.78890  0.56250  0.43928  Biso   1.000  O
  O41      1.0000 0.16360  0.83380  0.43529  Biso   1.000  O
  O42      1.0000 0.83780  0.38160  0.38485  Biso   1.000  O
  O43      1.0000 0.99150  0.68710  0.23034  Biso   1.000  O
  O44      1.0000 0.62310  0.91560  0.54381  Biso   1.000  O
  O45      1.0000 0.70140  0.41440  0.51686  Biso   1.000  O
  O46      1.0000 0.10210  0.65600  0.48036  Biso   1.000  O
  O47      1.0000 0.69330  0.07750  0.49506  Biso   1.000  O
  O48      1.0000 0.64480  0.45450  0.33620  Biso   1.000  O
  O49      1.0000 0.66300  0.70410  0.25947  Biso   1.000  O
  O50      1.0000 0.67120  0.74160  0.15659  Biso   1.000  O
  O51      1.0000 0.80060  0.60780  0.33780  Biso   1.000  O
  O52      1.0000 0.74770  0.10170  0.36105  Biso   1.000  O
  O53      1.0000 0.92420  0.58500  0.41459  Biso   1.000  O
  O54      1.0000 0.79250  0.77600  0.23696  Biso   1.000  O
  O55      1.0000 0.95070  0.45980  0.18407  Biso   1.000  O
  O56      1.0000 0.61430  0.56940  0.55467  Biso   1.000  O
  O57      1.0000 0.87520  0.00470  0.34573  Biso   1.000  O
  O58      1.0000 0.07230  0.47450  0.26247  Biso   1.000  O
  O59      1.0000 0.79120  0.86410  0.39150  Biso   1.000  O
  O60      1.0000 0.55010  0.03570  0.45410  Biso   1.000  O
  O61      1.0000 0.67820  0.93520  0.22530  Biso   1.000  O
  O62      1.0000 0.61260  0.56940  0.44820  Biso   1.000  O
  O63      1.0000 0.55740  0.37790  0.49360  Biso   1.000  O
  O64      1.0000 0.65050  0.86380  0.44800  Biso   1.000  O
  Ce9      1.0000 0.92600  0.72788  0.81776  Biso   1.000  Ce
  Ce10     1.0000 0.76319  0.23499  0.95437  Biso   1.000  Ce
  Ce11     1.0000 0.66774  0.79868  0.87025  Biso   1.000  Ce
  Ce12     1.0000 0.53261  0.75850  0.58448  Biso   1.000  Ce
  S17      1.0000 0.84050  0.96633  0.89469  Biso   1.000  S
  S18      1.0000 0.58943  0.16490  0.82982  Biso   1.000  S
  S19      1.0000 0.98891  0.96584  0.74049  Biso   1.000  S
  S20      1.0000 0.81841  0.49203  0.88580  Biso   1.000  S
  S21      1.0000 0.62768  0.52563  0.98453  Biso   1.000  S
  S22      1.0000 0.62179  0.01119  0.00214  Biso   1.000  S
  S23      1.0000 0.08678  0.74944  0.92706  Biso   1.000  S
  S24      1.0000 0.70196  0.70885  0.71969  Biso   1.000  S
  O65      1.0000 0.94090  0.98160  0.78723  Biso   1.000  O
  O66      1.0000 0.01460  0.66070  0.92353  Biso   1.000  O
  O67      1.0000 0.85880  0.43600  0.94629  Biso   1.000  O
  O68      1.0000 0.59450  0.24400  0.77624  Biso   1.000  O
  O69      1.0000 0.07160  0.82970  0.86953  Biso   1.000  O
  O70      1.0000 0.50390  0.12120  0.82773  Biso   1.000  O
  O71      1.0000 0.61440  0.25080  0.88616  Biso   1.000  O
  O72      1.0000 0.78890  0.93750  0.93928  Biso   1.000  O
  O73      1.0000 0.16360  0.66620  0.93529  Biso   1.000  O
  O74      1.0000 0.83780  0.11840  0.88485  Biso   1.000  O
  O75      1.0000 0.99150  0.81290  0.73034  Biso   1.000  O
  O76      1.0000 0.62310  0.58440  0.04381  Biso   1.000  O
  O77      1.0000 0.70140  0.08560  0.01686  Biso   1.000  O
  O78      1.0000 0.10210  0.84400  0.98036  Biso   1.000  O
  O79      1.0000 0.69330  0.42250  0.99506  Biso   1.000  O
  O80      1.0000 0.64480  0.04550  0.83620  Biso   1.000  O
  O81      1.0000 0.66300  0.79590  0.75947  Biso   1.000  O
  O82      1.0000 0.67120  0.75840  0.65659  Biso   1.000  O
  O83      1.0000 0.80060  0.89220  0.83780  Biso   1.000  O
  O84      1.0000 0.74770  0.39830  0.86105  Biso   1.000  O
  O85      1.0000 0.92420  0.91500  0.91459  Biso   1.000  O
  O86      1.0000 0.79250  0.72400  0.73696  Biso   1.000  O
  O87      1.0000 0.95070  0.04020  0.68407  Biso   1.000  O
  O88      1.0000 0.61430  0.93060  0.05467  Biso   1.000  O
  O89      1.0000 0.87520  0.49530  0.84573  Biso   1.000  O
  O90      1.0000 0.07230  0.02550  0.76247  Biso   1.000  O
  O91      1.0000 0.79120  0.63590  0.89150  Biso   1.000  O
  O92      1.0000 0.55010  0.46430  0.95410  Biso   1.000  O
  O93      1.0000 0.67820  0.56480  0.72530  Biso   1.000  O
  O94      1.0000 0.61260  0.93060  0.94820  Biso   1.000  O
  O95      1.0000 0.55740  0.12210  0.99360  Biso   1.000  O
  O96      1.0000 0.65050  0.63620  0.94800  Biso   1.000  O
  Ce13     1.0000 0.07400  0.22788  0.68224  Biso   1.000  Ce
  Ce14     1.0000 0.23681  0.73499  0.54563  Biso   1.000  Ce
  Ce15     1.0000 0.33226  0.29868  0.62975  Biso   1.000  Ce
  Ce16     1.0000 0.46739  0.25850  0.91552  Biso   1.000  Ce
  S25      1.0000 0.15950  0.46633  0.60531  Biso   1.000  S
  S26      1.0000 0.41057  0.66490  0.67018  Biso   1.000  S
  S27      1.0000 0.01109  0.46584  0.75951  Biso   1.000  S
  S28      1.0000 0.18159  0.99203  0.61420  Biso   1.000  S
  S29      1.0000 0.37232  0.02563  0.51547  Biso   1.000  S
  S30      1.0000 0.37821  0.51119  0.49786  Biso   1.000  S
  S31      1.0000 0.91322  0.24944  0.57294  Biso   1.000  S
  S32      1.0000 0.29804  0.20885  0.78031  Biso   1.000  S
  O97      1.0000 0.05910  0.48160  0.71277  Biso   1.000  O
  O98      1.0000 0.98540  0.16070  0.57647  Biso   1.000  O
  O99      1.0000 0.14120  0.93600  0.55371  Biso   1.000  O
  O100     1.0000 0.40550  0.74400  0.72376  Biso   1.000  O
  O101     1.0000 0.92840  0.32970  0.63047  Biso   1.000  O
  O102     1.0000 0.49610  0.62120  0.67227  Biso   1.000  O
  O103     1.0000 0.38560  0.75080  0.61384  Biso   1.000  O
  O104     1.0000 0.21110  0.43750  0.56072  Biso   1.000  O
  O105     1.0000 0.83640  0.16620  0.56471  Biso   1.000  O
  O106     1.0000 0.16220  0.61840  0.61515  Biso   1.000  O
  O107     1.0000 0.00850  0.31290  0.76966  Biso   1.000  O
  O108     1.0000 0.37690  0.08440  0.45619  Biso   1.000  O
  O109     1.0000 0.29860  0.58560  0.48314  Biso   1.000  O
  O110     1.0000 0.89790  0.34400  0.51964  Biso   1.000  O
  O111     1.0000 0.30670  0.92250  0.50494  Biso   1.000  O
  O112     1.0000 0.35520  0.54550  0.66380  Biso   1.000  O
  O113     1.0000 0.33700  0.29590  0.74053  Biso   1.000  O
  O114     1.0000 0.32880  0.25840  0.84341  Biso   1.000  O
  O115     1.0000 0.19940  0.39220  0.66220  Biso   1.000  O
  O116     1.0000 0.25230  0.89830  0.63895  Biso   1.000  O
  O117     1.0000 0.07580  0.41500  0.58541  Biso   1.000  O
  O118     1.0000 0.20750  0.22400  0.76304  Biso   1.000  O
  O119     1.0000 0.04930  0.54020  0.81593  Biso   1.000  O
  O120     1.0000 0.38570  0.43060  0.44533  Biso   1.000  O
  O121     1.0000 0.12480  0.99530  0.65427  Biso   1.000  O
  O122     1.0000 0.92770  0.52550  0.73753  Biso   1.000  O
  O123     1.0000 0.20880  0.13590  0.60850  Biso   1.000  O
  O124     1.0000 0.44990  0.96430  0.54590  Biso   1.000  O
  O125     1.0000 0.32180  0.06480  0.77470  Biso   1.000  O
  O126     1.0000 0.38740  0.43060  0.55180  Biso   1.000  O
  O127     1.0000 0.44260  0.62210  0.50640  Biso   1.000  O
  O128     1.0000 0.34950  0.13620  0.55200  Biso   1.000  O
