data_CEKHIL_clean
_audit_creation_date              2014-07-02
_audit_creation_method            'Materials Studio'
_symmetry_space_group_name_H-M    'P1'
_symmetry_Int_Tables_number       1
_symmetry_cell_setting            triclinic
loop_
_symmetry_equiv_pos_as_xyz
  x,y,z
_cell_length_a                    10.1520
_cell_length_b                    17.9530
_cell_length_c                    18.0620
_cell_angle_alpha                 90.0000
_cell_angle_beta                  94.6200
_cell_angle_gamma                 90.0000
loop_
_atom_site_label
_atom_site_type_symbol
_atom_site_fract_x
_atom_site_fract_y
_atom_site_fract_z
_atom_site_U_iso_or_equiv
_atom_site_adp_type
_atom_site_occupancy
Co1    Co    0.50930   0.69537   0.62858   0.01267  Uiso   1.00
Co2    Co    0.27432   0.75069   0.48809   0.01267  Uiso   1.00
Co3    Co    0.49070   0.19537   0.37142   0.01267  Uiso   1.00
Co4    Co    0.72568   0.25069   0.51191   0.01267  Uiso   1.00
H1     H     0.62050   0.05280   0.77510   0.01267  Uiso   1.00
H2     H     0.86460   0.10990   0.10100   0.01267  Uiso   1.00
H3     H     0.02290   0.12140   0.80280   0.01267  Uiso   1.00
H4     H     0.11410   0.14290   0.92280   0.01267  Uiso   1.00
H5     H     0.76630   0.09260   0.00210   0.01267  Uiso   1.00
H6     H     0.67510   0.07120   0.88210   0.01267  Uiso   1.00
H7     H     0.58950   0.91850   0.69740   0.01267  Uiso   1.00
H8     H     0.45840   0.96550   0.48730   0.01267  Uiso   1.00
H9     H     0.62650   0.12760   0.62230   0.01267  Uiso   1.00
H10    H     0.16540   0.16010   0.18330   0.01267  Uiso   1.00
H11    H     0.03500   0.20460   0.38190   0.01267  Uiso   1.00
H12    H     0.77440   0.16360   0.20630   0.01267  Uiso   1.00
H13    H     0.37950   0.55280   0.22490   0.01267  Uiso   1.00
H14    H     0.13540   0.60990   0.89900   0.01267  Uiso   1.00
H15    H     0.97710   0.62140   0.19720   0.01267  Uiso   1.00
H16    H     0.88590   0.64290   0.07720   0.01267  Uiso   1.00
H17    H     0.23370   0.59260   0.99790   0.01267  Uiso   1.00
H18    H     0.32490   0.57120   0.11790   0.01267  Uiso   1.00
H19    H     0.41050   0.41850   0.30260   0.01267  Uiso   1.00
H20    H     0.54160   0.46550   0.51270   0.01267  Uiso   1.00
H21    H     0.37350   0.62760   0.37770   0.01267  Uiso   1.00
H22    H     0.83460   0.66010   0.81670   0.01267  Uiso   1.00
H23    H     0.96500   0.70460   0.61810   0.01267  Uiso   1.00
H24    H     0.22560   0.66360   0.79370   0.01267  Uiso   1.00
C1     C     0.83999   0.09417   0.83054   0.01267  Uiso   1.00
C2     C     0.97149   0.11565   0.84275   0.01267  Uiso   1.00
C3     C     0.02611   0.12850   0.91467   0.01267  Uiso   1.00
C4     C     0.94923   0.11986   0.97439   0.01267  Uiso   1.00
C5     C     0.81773   0.09838   0.96218   0.01267  Uiso   1.00
C6     C     0.76311   0.08553   0.89026   0.01267  Uiso   1.00
C7     C     0.78660   0.08465   0.75237   0.01267  Uiso   1.00
C8     C     0.00899   0.14279   0.04803   0.01267  Uiso   1.00
C9     C     0.61600   0.02569   0.66965   0.01267  Uiso   1.00
C10    C     0.57570   0.95293   0.65909   0.01267  Uiso   1.00
C11    C     0.51250   0.93065   0.58912   0.01267  Uiso   1.00
C12    C     0.49910   0.98040   0.53288   0.01267  Uiso   1.00
C13    C     0.54570   0.05503   0.54157   0.01267  Uiso   1.00
C14    C     0.60120   0.07840   0.61359   0.01267  Uiso   1.00
C15    C     0.46490   0.85160   0.58063   0.01267  Uiso   1.00
C16    C     0.53110   0.10798   0.48021   0.01267  Uiso   1.00
C17    C     0.96780   0.16142   0.18176   0.01267  Uiso   1.00
C18    C     0.09470   0.16782   0.21215   0.01267  Uiso   1.00
C19    C     0.11680   0.18617   0.28708   0.01267  Uiso   1.00
C20    C     0.01680   0.19448   0.33164   0.01267  Uiso   1.00
C21    C     0.88430   0.18773   0.30116   0.01267  Uiso   1.00
C22    C     0.86070   0.16994   0.22678   0.01267  Uiso   1.00
C23    C     0.25940   0.19060   0.32087   0.01267  Uiso   1.00
C24    C     0.77200   0.19870   0.34966   0.01267  Uiso   1.00
C25    C     0.16001   0.59417   0.16946   0.01267  Uiso   1.00
C26    C     0.02851   0.61565   0.15725   0.01267  Uiso   1.00
C27    C     0.97389   0.62850   0.08533   0.01267  Uiso   1.00
C28    C     0.05077   0.61986   0.02561   0.01267  Uiso   1.00
C29    C     0.18227   0.59838   0.03782   0.01267  Uiso   1.00
C30    C     0.23689   0.58553   0.10974   0.01267  Uiso   1.00
C31    C     0.21340   0.58465   0.24763   0.01267  Uiso   1.00
C32    C     0.99101   0.64279   0.95197   0.01267  Uiso   1.00
C33    C     0.38400   0.52569   0.33035   0.01267  Uiso   1.00
C34    C     0.42430   0.45293   0.34091   0.01267  Uiso   1.00
C35    C     0.48750   0.43065   0.41088   0.01267  Uiso   1.00
C36    C     0.50090   0.48040   0.46712   0.01267  Uiso   1.00
C37    C     0.45430   0.55503   0.45843   0.01267  Uiso   1.00
C38    C     0.39880   0.57840   0.38641   0.01267  Uiso   1.00
C39    C     0.53510   0.35160   0.41937   0.01267  Uiso   1.00
C40    C     0.46890   0.60798   0.51979   0.01267  Uiso   1.00
C41    C     0.03220   0.66142   0.81824   0.01267  Uiso   1.00
C42    C     0.90530   0.66782   0.78785   0.01267  Uiso   1.00
C43    C     0.88320   0.68617   0.71292   0.01267  Uiso   1.00
C44    C     0.98320   0.69448   0.66836   0.01267  Uiso   1.00
C45    C     0.11570   0.68773   0.69884   0.01267  Uiso   1.00
C46    C     0.13930   0.66994   0.77322   0.01267  Uiso   1.00
C47    C     0.74060   0.69060   0.67913   0.01267  Uiso   1.00
C48    C     0.22800   0.69870   0.65034   0.01267  Uiso   1.00
N1     N     0.67910   0.04410   0.74120   0.01267  Uiso   1.00
N2     N     0.93120   0.14310   0.10630   0.01267  Uiso   1.00
N3     N     0.32090   0.54410   0.25880   0.01267  Uiso   1.00
N4     N     0.06880   0.64310   0.89370   0.01267  Uiso   1.00
O1     O     0.85190   0.11010   0.70230   0.01267  Uiso   1.00
O2     O     0.12290   0.17040   0.05900   0.01267  Uiso   1.00
O3     O     0.50130   0.80780   0.63110   0.01267  Uiso   1.00
O4     O     0.40040   0.83580   0.52140   0.01267  Uiso   1.00
O5     O     0.48450   0.08610   0.41800   0.01267  Uiso   1.00
O6     O     0.56380   0.17580   0.49040   0.01267  Uiso   1.00
O7     O     0.35300   0.17960   0.28030   0.01267  Uiso   1.00
O8     O     0.27760   0.20470   0.38850   0.01267  Uiso   1.00
O9     O     0.79940   0.22610   0.41170   0.01267  Uiso   1.00
O10    O     0.65910   0.17870   0.32300   0.01267  Uiso   1.00
O11    O     0.14810   0.61010   0.29770   0.01267  Uiso   1.00
O12    O     0.87710   0.67040   0.94100   0.01267  Uiso   1.00
O13    O     0.49870   0.30780   0.36890   0.01267  Uiso   1.00
O14    O     0.59960   0.33580   0.47860   0.01267  Uiso   1.00
O15    O     0.51550   0.58610   0.58200   0.01267  Uiso   1.00
O16    O     0.43620   0.67580   0.50960   0.01267  Uiso   1.00
O17    O     0.64700   0.67960   0.71970   0.01267  Uiso   1.00
O18    O     0.72240   0.70470   0.61150   0.01267  Uiso   1.00
O19    O     0.20060   0.72610   0.58830   0.01267  Uiso   1.00
O20    O     0.34090   0.67870   0.67700   0.01267  Uiso   1.00
