data_image0
_cell_length_a       16.2948
_cell_length_b       16.2948
_cell_length_c       19.3671
_cell_angle_alpha    90
_cell_angle_beta     90
_cell_angle_gamma    120

_symmetry_space_group_name_H-M    "P 1"
_symmetry_int_tables_number       1

loop_
  _symmetry_equiv_pos_as_xyz
  'x, y, z'

loop_
  _atom_site_label
  _atom_site_occupancy
  _atom_site_fract_x
  _atom_site_fract_y
  _atom_site_fract_z
  _atom_site_thermal_displace_type
  _atom_site_B_iso_or_equiv
  _atom_site_type_symbol
  Mn1      1.0000 0.50065  0.78404  0.38441  Biso   1.000  Mn
  O1       1.0000 0.44909  0.82162  0.45757  Biso   1.000  O
  O2       1.0000 0.62195  0.88088  0.41056  Biso   1.000  O
  N1       1.0000 0.36758  0.68875  0.35500  Biso   1.000  N
  N2       1.0000 0.55854  0.74930  0.30471  Biso   1.000  N
  N3       1.0000 0.49293  0.89456  0.30768  Biso   1.000  N
  N4       1.0000 0.33598  0.84091  0.11339  Biso   1.000  N
  N5       1.0000 0.59574  0.85805  0.12105  Biso   1.000  N
  C1       1.0000 0.37484  0.83401  0.45056  Biso   1.000  C
  C2       1.0000 0.36728  0.89984  0.49327  Biso   1.000  C
  H1       1.0000 0.41560  0.93520  0.52610  Biso   1.000  H
  C3       1.0000 0.29073  0.91358  0.48794  Biso   1.000  C
  H2       1.0000 0.28660  0.95850  0.51680  Biso   1.000  H
  C4       1.0000 0.21961  0.86173  0.44034  Biso   1.000  C
  C5       1.0000 0.22316  0.79533  0.39901  Biso   1.000  C
  H3       1.0000 0.17300  0.75890  0.36770  Biso   1.000  H
  C6       1.0000 0.30166  0.78134  0.40322  Biso   1.000  C
  C7       1.0000 0.29870  0.70521  0.36305  Biso   1.000  C
  H4       1.0000 0.24070  0.66350  0.34050  Biso   1.000  H
  C8       1.0000 0.34631  0.59937  0.32082  Biso   1.000  C
  H5       1.0000 0.27860  0.56480  0.30740  Biso   1.000  H
  H6       1.0000 0.35670  0.55940  0.35410  Biso   1.000  H
  C9       1.0000 0.40689  0.61404  0.25647  Biso   1.000  C
  C10      1.0000 0.51132  0.65235  0.27555  Biso   1.000  C
  H7       1.0000 0.51520  0.60910  0.30960  Biso   1.000  H
  H8       1.0000 0.54610  0.65220  0.23370  Biso   1.000  H
  C11      1.0000 0.63844  0.80960  0.27766  Biso   1.000  C
  H9       1.0000 0.65750  0.78990  0.23750  Biso   1.000  H
  C12      1.0000 0.70185  0.90432  0.30241  Biso   1.000  C
  C13      1.0000 0.78237  0.96270  0.26239  Biso   1.000  C
  H10      1.0000 0.79150  0.94070  0.21920  Biso   1.000  H
  C14      1.0000 0.84746  0.05093  0.28542  Biso   1.000  C
  C15      1.0000 0.83507  0.08497  0.34818  Biso   1.000  C
  H11      1.0000 0.87990  0.14720  0.36290  Biso   1.000  H
  C16      1.0000 0.75752  0.02818  0.38889  Biso   1.000  C
  H12      1.0000 0.74940  0.05150  0.43170  Biso   1.000  H
  C17      1.0000 0.69036  0.93598  0.36743  Biso   1.000  C
  C18      1.0000 0.39524  0.67854  0.20544  Biso   1.000  C
  H13      1.0000 0.32810  0.65090  0.19330  Biso   1.000  H
  H14      1.0000 0.43200  0.68530  0.16360  Biso   1.000  H
  H15      1.0000 0.41810  0.74100  0.22640  Biso   1.000  H
  C19      1.0000 0.37270  0.51572  0.22489  Biso   1.000  C
  H16      1.0000 0.30520  0.48630  0.21340  Biso   1.000  H
  H17      1.0000 0.38210  0.47590  0.25820  Biso   1.000  H
  H18      1.0000 0.40890  0.52220  0.18280  Biso   1.000  H
  C20      1.0000 0.40639  0.90251  0.13404  Biso   1.000  C
  C21      1.0000 0.57365  0.91231  0.13713  Biso   1.000  C
  C22      1.0000 0.50598  0.93670  0.25679  Biso   1.000  C
  Cl1      1.0000 0.12431  0.88233  0.43255  Biso   1.000  Cl
  Cl2      1.0000 0.94738  0.12270  0.23530  Biso   1.000  Cl
  Mn2      1.0000 0.21596  0.71661  0.05108  Biso   1.000  Mn
  O3       1.0000 0.17838  0.62747  0.12424  Biso   1.000  O
  O4       1.0000 0.11912  0.74107  0.07723  Biso   1.000  O
  N6       1.0000 0.31125  0.67883  0.02167  Biso   1.000  N
  N7       1.0000 0.25070  0.80924  0.97138  Biso   1.000  N
  N8       1.0000 0.10544  0.59837  0.97435  Biso   1.000  N
  N9       1.0000 0.15909  0.49507  0.78006  Biso   1.000  N
  N10      1.0000 0.14195  0.73769  0.78772  Biso   1.000  N
  C23      1.0000 0.16599  0.54083  0.11723  Biso   1.000  C
  C24      1.0000 0.10016  0.46744  0.15994  Biso   1.000  C
  H19      1.0000 0.06480  0.48040  0.19277  Biso   1.000  H
  C25      1.0000 0.08642  0.37715  0.15461  Biso   1.000  C
  H20      1.0000 0.04150  0.32810  0.18347  Biso   1.000  H
  C26      1.0000 0.13827  0.35788  0.10701  Biso   1.000  C
  C27      1.0000 0.20467  0.42783  0.06568  Biso   1.000  C
  H21      1.0000 0.24110  0.41410  0.03437  Biso   1.000  H
  C28      1.0000 0.21866  0.52032  0.06989  Biso   1.000  C
  C29      1.0000 0.29479  0.59349  0.02972  Biso   1.000  C
  H22      1.0000 0.33650  0.57720  0.00717  Biso   1.000  H
  C30      1.0000 0.40063  0.74694  0.98749  Biso   1.000  C
  H23      1.0000 0.43520  0.71380  0.97407  Biso   1.000  H
  H24      1.0000 0.44060  0.79730  0.02077  Biso   1.000  H
  C31      1.0000 0.38596  0.79285  0.92314  Biso   1.000  C
  C32      1.0000 0.34765  0.85897  0.94222  Biso   1.000  C
  H25      1.0000 0.39090  0.90610  0.97627  Biso   1.000  H
  H26      1.0000 0.34780  0.89390  0.90037  Biso   1.000  H
  C33      1.0000 0.19040  0.82884  0.94433  Biso   1.000  C
  H27      1.0000 0.21010  0.86760  0.90417  Biso   1.000  H
  C34      1.0000 0.09568  0.79753  0.96908  Biso   1.000  C
  C35      1.0000 0.03730  0.81967  0.92906  Biso   1.000  C
  H28      1.0000 0.05930  0.85080  0.88587  Biso   1.000  H
  C36      1.0000 0.94907  0.79653  0.95209  Biso   1.000  C
  C37      1.0000 0.91503  0.75010  0.01485  Biso   1.000  C
  H29      1.0000 0.85280  0.73270  0.02957  Biso   1.000  H
  C38      1.0000 0.97182  0.72934  0.05556  Biso   1.000  C
  H30      1.0000 0.94850  0.69790  0.09837  Biso   1.000  H
  C39      1.0000 0.06402  0.75438  0.03410  Biso   1.000  C
  C40      1.0000 0.32146  0.71670  0.87211  Biso   1.000  C
  H31      1.0000 0.34910  0.67720  0.85997  Biso   1.000  H
  H32      1.0000 0.31470  0.74670  0.83027  Biso   1.000  H
  H33      1.0000 0.25900  0.67710  0.89307  Biso   1.000  H
  C41      1.0000 0.48428  0.85698  0.89156  Biso   1.000  C
  H34      1.0000 0.51370  0.81890  0.88007  Biso   1.000  H
  H35      1.0000 0.52410  0.90620  0.92487  Biso   1.000  H
  H36      1.0000 0.47780  0.88670  0.84947  Biso   1.000  H
  C42      1.0000 0.09749  0.50388  0.80071  Biso   1.000  C
  C43      1.0000 0.08769  0.66134  0.80380  Biso   1.000  C
  C44      1.0000 0.06330  0.56928  0.92346  Biso   1.000  C
  Cl3      1.0000 0.11767  0.24198  0.09922  Biso   1.000  Cl
  Cl4      1.0000 0.87730  0.82468  0.90197  Biso   1.000  Cl
  Mn3      1.0000 0.28339  0.49935  0.71774  Biso   1.000  Mn
  O5       1.0000 0.37253  0.55091  0.79090  Biso   1.000  O
  O6       1.0000 0.25893  0.37805  0.74389  Biso   1.000  O
  N11      1.0000 0.32117  0.63242  0.68833  Biso   1.000  N
  N12      1.0000 0.19076  0.44146  0.63804  Biso   1.000  N
  N13      1.0000 0.40163  0.50707  0.64101  Biso   1.000  N
  N14      1.0000 0.50493  0.66402  0.44672  Biso   1.000  N
  N15      1.0000 0.26231  0.40426  0.45438  Biso   1.000  N
  C45      1.0000 0.45917  0.62516  0.78389  Biso   1.000  C
  C46      1.0000 0.53256  0.63272  0.82660  Biso   1.000  C
  H37      1.0000 0.51960  0.58440  0.85943  Biso   1.000  H
  C47      1.0000 0.62285  0.70927  0.82127  Biso   1.000  C
  H38      1.0000 0.67190  0.71340  0.85013  Biso   1.000  H
  C48      1.0000 0.64212  0.78039  0.77367  Biso   1.000  C
  C49      1.0000 0.57217  0.77684  0.73234  Biso   1.000  C
  H39      1.0000 0.58590  0.82700  0.70103  Biso   1.000  H
  C50      1.0000 0.47968  0.69834  0.73655  Biso   1.000  C
  C51      1.0000 0.40651  0.70130  0.69638  Biso   1.000  C
  H40      1.0000 0.42280  0.75930  0.67383  Biso   1.000  H
  C52      1.0000 0.25306  0.65369  0.65415  Biso   1.000  C
  H41      1.0000 0.28620  0.72140  0.64073  Biso   1.000  H
  H42      1.0000 0.20270  0.64330  0.68743  Biso   1.000  H
  C53      1.0000 0.20715  0.59311  0.58980  Biso   1.000  C
  C54      1.0000 0.14103  0.48868  0.60888  Biso   1.000  C
  H43      1.0000 0.09390  0.48480  0.64293  Biso   1.000  H
  H44      1.0000 0.10610  0.45390  0.56703  Biso   1.000  H
  C55      1.0000 0.17116  0.36156  0.61099  Biso   1.000  C
  H45      1.0000 0.13240  0.34250  0.57083  Biso   1.000  H
  C56      1.0000 0.20247  0.29815  0.63574  Biso   1.000  C
  C57      1.0000 0.18033  0.21763  0.59572  Biso   1.000  C
  H46      1.0000 0.14920  0.20850  0.55253  Biso   1.000  H
  C58      1.0000 0.20347  0.15254  0.61875  Biso   1.000  C
  C59      1.0000 0.24990  0.16493  0.68151  Biso   1.000  C
  H47      1.0000 0.26730  0.12010  0.69623  Biso   1.000  H
  C60      1.0000 0.27066  0.24248  0.72222  Biso   1.000  C
  H48      1.0000 0.30210  0.25060  0.76503  Biso   1.000  H
  C61      1.0000 0.24562  0.30964  0.70076  Biso   1.000  C
  C62      1.0000 0.28330  0.60476  0.53877  Biso   1.000  C
  H49      1.0000 0.32280  0.67190  0.52663  Biso   1.000  H
  H50      1.0000 0.25330  0.56800  0.49693  Biso   1.000  H
  H51      1.0000 0.32290  0.58190  0.55973  Biso   1.000  H
  C63      1.0000 0.14302  0.62730  0.55822  Biso   1.000  C
  H52      1.0000 0.18110  0.69480  0.54673  Biso   1.000  H
  H53      1.0000 0.09380  0.61790  0.59153  Biso   1.000  H
  H54      1.0000 0.11330  0.59110  0.51613  Biso   1.000  H
  C64      1.0000 0.49612  0.59361  0.46737  Biso   1.000  C
  C65      1.0000 0.33866  0.42635  0.47046  Biso   1.000  C
  C66      1.0000 0.43072  0.49402  0.59012  Biso   1.000  C
  Cl5      1.0000 0.75802  0.87569  0.76588  Biso   1.000  Cl
  Cl6      1.0000 0.17532  0.05262  0.56863  Biso   1.000  Cl
  Mn4      1.0000 0.78404  0.50065  0.61559  Biso   1.000  Mn
  O7       1.0000 0.82162  0.44909  0.54243  Biso   1.000  O
  O8       1.0000 0.88088  0.62195  0.58944  Biso   1.000  O
  N16      1.0000 0.68875  0.36758  0.64500  Biso   1.000  N
  N17      1.0000 0.74930  0.55854  0.69529  Biso   1.000  N
  N18      1.0000 0.89456  0.49293  0.69232  Biso   1.000  N
  N19      1.0000 0.84091  0.33598  0.88661  Biso   1.000  N
  N20      1.0000 0.85805  0.59574  0.87895  Biso   1.000  N
  C67      1.0000 0.83401  0.37484  0.54944  Biso   1.000  C
  C68      1.0000 0.89984  0.36728  0.50673  Biso   1.000  C
  H55      1.0000 0.93520  0.41560  0.47390  Biso   1.000  H
  C69      1.0000 0.91358  0.29073  0.51206  Biso   1.000  C
  H56      1.0000 0.95850  0.28660  0.48320  Biso   1.000  H
  C70      1.0000 0.86173  0.21961  0.55966  Biso   1.000  C
  C71      1.0000 0.79533  0.22316  0.60099  Biso   1.000  C
  H57      1.0000 0.75890  0.17300  0.63230  Biso   1.000  H
  C72      1.0000 0.78134  0.30166  0.59678  Biso   1.000  C
  C73      1.0000 0.70521  0.29870  0.63695  Biso   1.000  C
  H58      1.0000 0.66350  0.24070  0.65950  Biso   1.000  H
  C74      1.0000 0.59937  0.34631  0.67918  Biso   1.000  C
  H59      1.0000 0.56480  0.27860  0.69260  Biso   1.000  H
  H60      1.0000 0.55940  0.35670  0.64590  Biso   1.000  H
  C75      1.0000 0.61404  0.40689  0.74353  Biso   1.000  C
  C76      1.0000 0.65235  0.51132  0.72445  Biso   1.000  C
  H61      1.0000 0.60910  0.51520  0.69040  Biso   1.000  H
  H62      1.0000 0.65220  0.54610  0.76630  Biso   1.000  H
  C77      1.0000 0.80960  0.63844  0.72234  Biso   1.000  C
  H63      1.0000 0.78990  0.65750  0.76250  Biso   1.000  H
  C78      1.0000 0.90432  0.70185  0.69759  Biso   1.000  C
  C79      1.0000 0.96270  0.78237  0.73761  Biso   1.000  C
  H64      1.0000 0.94070  0.79150  0.78080  Biso   1.000  H
  C80      1.0000 0.05093  0.84746  0.71458  Biso   1.000  C
  C81      1.0000 0.08497  0.83507  0.65182  Biso   1.000  C
  H65      1.0000 0.14720  0.87990  0.63710  Biso   1.000  H
  C82      1.0000 0.02818  0.75752  0.61111  Biso   1.000  C
  H66      1.0000 0.05150  0.74940  0.56830  Biso   1.000  H
  C83      1.0000 0.93598  0.69036  0.63257  Biso   1.000  C
  C84      1.0000 0.67854  0.39524  0.79456  Biso   1.000  C
  H67      1.0000 0.65090  0.32810  0.80670  Biso   1.000  H
  H68      1.0000 0.68530  0.43200  0.83640  Biso   1.000  H
  H69      1.0000 0.74100  0.41810  0.77360  Biso   1.000  H
  C85      1.0000 0.51572  0.37270  0.77511  Biso   1.000  C
  H70      1.0000 0.48630  0.30520  0.78660  Biso   1.000  H
  H71      1.0000 0.47590  0.38210  0.74180  Biso   1.000  H
  H72      1.0000 0.52220  0.40890  0.81720  Biso   1.000  H
  C86      1.0000 0.90251  0.40639  0.86596  Biso   1.000  C
  C87      1.0000 0.91231  0.57365  0.86287  Biso   1.000  C
  C88      1.0000 0.93670  0.50598  0.74321  Biso   1.000  C
  Cl7      1.0000 0.88233  0.12431  0.56745  Biso   1.000  Cl
  Cl8      1.0000 0.12270  0.94738  0.76470  Biso   1.000  Cl
  Mn5      1.0000 0.71661  0.21596  0.94892  Biso   1.000  Mn
  O9       1.0000 0.62747  0.17838  0.87576  Biso   1.000  O
  O10      1.0000 0.74107  0.11912  0.92277  Biso   1.000  O
  N21      1.0000 0.67883  0.31125  0.97833  Biso   1.000  N
  N22      1.0000 0.80924  0.25070  0.02862  Biso   1.000  N
  N23      1.0000 0.59837  0.10544  0.02565  Biso   1.000  N
  N24      1.0000 0.49507  0.15909  0.21994  Biso   1.000  N
  N25      1.0000 0.73769  0.14195  0.21228  Biso   1.000  N
  C89      1.0000 0.54083  0.16599  0.88277  Biso   1.000  C
  C90      1.0000 0.46744  0.10016  0.84006  Biso   1.000  C
  H73      1.0000 0.48040  0.06480  0.80723  Biso   1.000  H
  C91      1.0000 0.37715  0.08642  0.84539  Biso   1.000  C
  H74      1.0000 0.32810  0.04150  0.81653  Biso   1.000  H
  C92      1.0000 0.35788  0.13827  0.89299  Biso   1.000  C
  C93      1.0000 0.42783  0.20467  0.93432  Biso   1.000  C
  H75      1.0000 0.41410  0.24110  0.96563  Biso   1.000  H
  C94      1.0000 0.52032  0.21866  0.93011  Biso   1.000  C
  C95      1.0000 0.59349  0.29479  0.97028  Biso   1.000  C
  H76      1.0000 0.57720  0.33650  0.99283  Biso   1.000  H
  C96      1.0000 0.74694  0.40063  0.01251  Biso   1.000  C
  H77      1.0000 0.71380  0.43520  0.02593  Biso   1.000  H
  H78      1.0000 0.79730  0.44060  0.97923  Biso   1.000  H
  C97      1.0000 0.79285  0.38596  0.07686  Biso   1.000  C
  C98      1.0000 0.85897  0.34765  0.05778  Biso   1.000  C
  H79      1.0000 0.90610  0.39090  0.02373  Biso   1.000  H
  H80      1.0000 0.89390  0.34780  0.09963  Biso   1.000  H
  C99      1.0000 0.82884  0.19040  0.05567  Biso   1.000  C
  H81      1.0000 0.86760  0.21010  0.09583  Biso   1.000  H
  C100     1.0000 0.79753  0.09568  0.03092  Biso   1.000  C
  C101     1.0000 0.81967  0.03730  0.07094  Biso   1.000  C
  H82      1.0000 0.85080  0.05930  0.11413  Biso   1.000  H
  C102     1.0000 0.79653  0.94907  0.04791  Biso   1.000  C
  C103     1.0000 0.75010  0.91503  0.98515  Biso   1.000  C
  H83      1.0000 0.73270  0.85280  0.97043  Biso   1.000  H
  C104     1.0000 0.72934  0.97182  0.94444  Biso   1.000  C
  H84      1.0000 0.69790  0.94850  0.90163  Biso   1.000  H
  C105     1.0000 0.75438  0.06402  0.96590  Biso   1.000  C
  C106     1.0000 0.71670  0.32146  0.12789  Biso   1.000  C
  H85      1.0000 0.67720  0.34910  0.14003  Biso   1.000  H
  H86      1.0000 0.74670  0.31470  0.16973  Biso   1.000  H
  H87      1.0000 0.67710  0.25900  0.10693  Biso   1.000  H
  C107     1.0000 0.85698  0.48428  0.10844  Biso   1.000  C
  H88      1.0000 0.81890  0.51370  0.11993  Biso   1.000  H
  H89      1.0000 0.90620  0.52410  0.07513  Biso   1.000  H
  H90      1.0000 0.88670  0.47780  0.15053  Biso   1.000  H
  C108     1.0000 0.50388  0.09749  0.19929  Biso   1.000  C
  C109     1.0000 0.66134  0.08769  0.19620  Biso   1.000  C
  C110     1.0000 0.56928  0.06330  0.07654  Biso   1.000  C
  Cl9      1.0000 0.24198  0.11767  0.90078  Biso   1.000  Cl
  Cl10     1.0000 0.82468  0.87730  0.09803  Biso   1.000  Cl
  Mn6      1.0000 0.49935  0.28339  0.28226  Biso   1.000  Mn
  O11      1.0000 0.55091  0.37253  0.20910  Biso   1.000  O
  O12      1.0000 0.37805  0.25893  0.25611  Biso   1.000  O
  N26      1.0000 0.63242  0.32117  0.31167  Biso   1.000  N
  N27      1.0000 0.44146  0.19076  0.36196  Biso   1.000  N
  N28      1.0000 0.50707  0.40163  0.35899  Biso   1.000  N
  N29      1.0000 0.66402  0.50493  0.55328  Biso   1.000  N
  N30      1.0000 0.40426  0.26231  0.54562  Biso   1.000  N
  C111     1.0000 0.62516  0.45917  0.21611  Biso   1.000  C
  C112     1.0000 0.63272  0.53256  0.17340  Biso   1.000  C
  H91      1.0000 0.58440  0.51960  0.14057  Biso   1.000  H
  C113     1.0000 0.70927  0.62285  0.17873  Biso   1.000  C
  H92      1.0000 0.71340  0.67190  0.14987  Biso   1.000  H
  C114     1.0000 0.78039  0.64212  0.22633  Biso   1.000  C
  C115     1.0000 0.77684  0.57217  0.26766  Biso   1.000  C
  H93      1.0000 0.82700  0.58590  0.29897  Biso   1.000  H
  C116     1.0000 0.69834  0.47968  0.26345  Biso   1.000  C
  C117     1.0000 0.70130  0.40651  0.30362  Biso   1.000  C
  H94      1.0000 0.75930  0.42280  0.32617  Biso   1.000  H
  C118     1.0000 0.65369  0.25306  0.34585  Biso   1.000  C
  H95      1.0000 0.72140  0.28620  0.35927  Biso   1.000  H
  H96      1.0000 0.64330  0.20270  0.31257  Biso   1.000  H
  C119     1.0000 0.59311  0.20715  0.41020  Biso   1.000  C
  C120     1.0000 0.48868  0.14103  0.39112  Biso   1.000  C
  H97      1.0000 0.48480  0.09390  0.35707  Biso   1.000  H
  H98      1.0000 0.45390  0.10610  0.43297  Biso   1.000  H
  C121     1.0000 0.36156  0.17116  0.38901  Biso   1.000  C
  H99      1.0000 0.34250  0.13240  0.42917  Biso   1.000  H
  C122     1.0000 0.29815  0.20247  0.36426  Biso   1.000  C
  C123     1.0000 0.21763  0.18033  0.40428  Biso   1.000  C
  H100     1.0000 0.20850  0.14920  0.44747  Biso   1.000  H
  C124     1.0000 0.15254  0.20347  0.38125  Biso   1.000  C
  C125     1.0000 0.16493  0.24990  0.31849  Biso   1.000  C
  H101     1.0000 0.12010  0.26730  0.30377  Biso   1.000  H
  C126     1.0000 0.24248  0.27066  0.27778  Biso   1.000  C
  H102     1.0000 0.25060  0.30210  0.23497  Biso   1.000  H
  C127     1.0000 0.30964  0.24562  0.29924  Biso   1.000  C
  C128     1.0000 0.60476  0.28330  0.46123  Biso   1.000  C
  H103     1.0000 0.67190  0.32280  0.47337  Biso   1.000  H
  H104     1.0000 0.56800  0.25330  0.50307  Biso   1.000  H
  H105     1.0000 0.58190  0.32290  0.44027  Biso   1.000  H
  C129     1.0000 0.62730  0.14302  0.44178  Biso   1.000  C
  H106     1.0000 0.69480  0.18110  0.45327  Biso   1.000  H
  H107     1.0000 0.61790  0.09380  0.40847  Biso   1.000  H
  H108     1.0000 0.59110  0.11330  0.48387  Biso   1.000  H
  C130     1.0000 0.59361  0.49612  0.53263  Biso   1.000  C
  C131     1.0000 0.42635  0.33866  0.52954  Biso   1.000  C
  C132     1.0000 0.49402  0.43072  0.40988  Biso   1.000  C
  Cl11     1.0000 0.87569  0.75802  0.23412  Biso   1.000  Cl
  Cl12     1.0000 0.05262  0.17532  0.43137  Biso   1.000  Cl
  Fe1      1.0000 0.53315  0.00000  0.16667  Biso   1.000  Fe
  Fe2      1.0000 0.00000  0.53315  0.83333  Biso   1.000  Fe
  Fe3      1.0000 0.46685  0.46685  0.50000  Biso   1.000  Fe
