data_CELZIE_clean
_audit_creation_date              2015-05-18
_audit_creation_method            'Materials Studio'
_symmetry_space_group_name_H-M    'P1'
_symmetry_Int_Tables_number       1
_symmetry_cell_setting            triclinic
loop_
_symmetry_equiv_pos_as_xyz
  x,y,z
_cell_length_a                    21.3609
_cell_length_b                    21.3609
_cell_length_c                    10.5698
_cell_angle_alpha                 90.0000
_cell_angle_beta                  90.0000
_cell_angle_gamma                 90.0000
loop_
_atom_site_label
_atom_site_type_symbol
_atom_site_fract_x
_atom_site_fract_y
_atom_site_fract_z
_atom_site_U_iso_or_equiv
_atom_site_adp_type
_atom_site_occupancy
Al1    Al    0.25939   0.81675   0.92903   0.01267  Uiso   1.00
C2     C     0.95564   0.79670   0.82563   0.01267  Uiso   1.00
C3     C     0.07891   0.82129   0.74978   0.01267  Uiso   1.00
C4     C     0.88883   0.79073   0.87083   0.01267  Uiso   1.00
C5     C     0.99317   0.85935   0.45590   0.01267  Uiso   1.00
C6     C     0.96742   0.81730   0.70623   0.01267  Uiso   1.00
C7     C     0.00496   0.78673   0.91810   0.01267  Uiso   1.00
C8     C     0.12538   0.79456   0.95004   0.01267  Uiso   1.00
C9     C     0.06251   0.80016   0.87326   0.01267  Uiso   1.00
C10    C     0.03019   0.82772   0.66462   0.01267  Uiso   1.00
O11    O     0.84548   0.81393   0.80593   0.01267  Uiso   1.00
O12    O     0.17513   0.82042   0.91102   0.01267  Uiso   1.00
O13    O     0.11705   0.76078   0.04740   0.01267  Uiso   1.00
O14    O     0.88523   0.74866   0.95359   0.01267  Uiso   1.00
O15    O     0.24924   0.76209   0.06101   0.01267  Uiso   1.00
O16    O     0.04264   0.85631   0.54486   0.01267  Uiso   1.00
H17    H     0.18965   0.47373   0.68906   0.00000  Uiso   1.00
H18    H     0.12072   0.51148   0.61295   0.00000  Uiso   1.00
H19    H     0.10913   0.45446   0.74407   0.00000  Uiso   1.00
H20    H     0.12988   0.83185   0.72594   0.00000  Uiso   1.00
H21    H     0.99282   0.76922   0.01699   0.00000  Uiso   1.00
H22    H     0.92700   0.82642   0.63826   0.00000  Uiso   1.00
H23    H     0.22464   0.21331   0.43899   0.01267  Uiso   1.00
Al24   Al    0.75939   0.31675   0.42903   0.01267  Uiso   1.00
C25    C     0.45564   0.29670   0.32563   0.01267  Uiso   1.00
C26    C     0.57891   0.32129   0.24978   0.01267  Uiso   1.00
C27    C     0.38883   0.29073   0.37083   0.01267  Uiso   1.00
C28    C     0.49317   0.35935   0.95590   0.01267  Uiso   1.00
C29    C     0.46742   0.31730   0.20623   0.01267  Uiso   1.00
C30    C     0.50496   0.28673   0.41810   0.01267  Uiso   1.00
C31    C     0.62538   0.29456   0.45004   0.01267  Uiso   1.00
C32    C     0.56251   0.30016   0.37326   0.01267  Uiso   1.00
C33    C     0.53019   0.32772   0.16462   0.01267  Uiso   1.00
O34    O     0.34548   0.31393   0.30593   0.01267  Uiso   1.00
O35    O     0.67513   0.32042   0.41102   0.01267  Uiso   1.00
O36    O     0.61705   0.26078   0.54740   0.01267  Uiso   1.00
O37    O     0.38523   0.24866   0.45359   0.01267  Uiso   1.00
O38    O     0.74924   0.26209   0.56101   0.01267  Uiso   1.00
O39    O     0.54264   0.35631   0.04486   0.01267  Uiso   1.00
H40    H     0.68965   0.97373   0.18906   0.00000  Uiso   1.00
H41    H     0.62072   0.01148   0.11295   0.00000  Uiso   1.00
H42    H     0.60913   0.95446   0.24407   0.00000  Uiso   1.00
H43    H     0.62988   0.33185   0.22594   0.00000  Uiso   1.00
H44    H     0.49282   0.26922   0.51699   0.00000  Uiso   1.00
H45    H     0.42700   0.32642   0.13826   0.00000  Uiso   1.00
H46    H     0.72464   0.71331   0.93899   0.01267  Uiso   1.00
Al47   Al    0.24061   0.68325   0.42903   0.01267  Uiso   1.00
C48    C     0.54436   0.70330   0.32563   0.01267  Uiso   1.00
C49    C     0.42109   0.67871   0.24978   0.01267  Uiso   1.00
C50    C     0.61117   0.70927   0.37083   0.01267  Uiso   1.00
C51    C     0.50683   0.64065   0.95590   0.01267  Uiso   1.00
C52    C     0.53258   0.68270   0.20623   0.01267  Uiso   1.00
C53    C     0.49504   0.71327   0.41810   0.01267  Uiso   1.00
C54    C     0.37462   0.70544   0.45004   0.01267  Uiso   1.00
C55    C     0.43749   0.69984   0.37326   0.01267  Uiso   1.00
C56    C     0.46981   0.67228   0.16462   0.01267  Uiso   1.00
O57    O     0.65452   0.68607   0.30593   0.01267  Uiso   1.00
O58    O     0.32487   0.67958   0.41102   0.01267  Uiso   1.00
O59    O     0.38295   0.73922   0.54740   0.01267  Uiso   1.00
O60    O     0.61477   0.75134   0.45359   0.01267  Uiso   1.00
O61    O     0.25076   0.73791   0.56101   0.01267  Uiso   1.00
O62    O     0.45736   0.64369   0.04486   0.01267  Uiso   1.00
H63    H     0.31035   0.02627   0.18906   0.00000  Uiso   1.00
H64    H     0.37928   0.98852   0.11295   0.00000  Uiso   1.00
H65    H     0.39087   0.04554   0.24407   0.00000  Uiso   1.00
H66    H     0.37012   0.66815   0.22594   0.00000  Uiso   1.00
H67    H     0.50718   0.73078   0.51699   0.00000  Uiso   1.00
H68    H     0.57300   0.67358   0.13826   0.00000  Uiso   1.00
H69    H     0.27536   0.28669   0.93899   0.01267  Uiso   1.00
Al70   Al    0.74061   0.18325   0.92903   0.01267  Uiso   1.00
C71    C     0.04436   0.20330   0.82563   0.01267  Uiso   1.00
C72    C     0.92109   0.17871   0.74978   0.01267  Uiso   1.00
C73    C     0.11117   0.20927   0.87083   0.01267  Uiso   1.00
C74    C     0.00683   0.14065   0.45590   0.01267  Uiso   1.00
C75    C     0.03258   0.18270   0.70623   0.01267  Uiso   1.00
C76    C     0.99504   0.21327   0.91810   0.01267  Uiso   1.00
C77    C     0.87462   0.20544   0.95004   0.01267  Uiso   1.00
C78    C     0.93749   0.19984   0.87326   0.01267  Uiso   1.00
C79    C     0.96981   0.17228   0.66462   0.01267  Uiso   1.00
O80    O     0.15452   0.18607   0.80593   0.01267  Uiso   1.00
O81    O     0.82487   0.17958   0.91102   0.01267  Uiso   1.00
O82    O     0.88295   0.23922   0.04740   0.01267  Uiso   1.00
O83    O     0.11477   0.25134   0.95359   0.01267  Uiso   1.00
O84    O     0.75076   0.23791   0.06101   0.01267  Uiso   1.00
O85    O     0.95736   0.14369   0.54486   0.01267  Uiso   1.00
H86    H     0.81035   0.52627   0.68906   0.00000  Uiso   1.00
H87    H     0.87928   0.48852   0.61295   0.00000  Uiso   1.00
H88    H     0.89087   0.54554   0.74407   0.00000  Uiso   1.00
H89    H     0.87012   0.16815   0.72594   0.00000  Uiso   1.00
H90    H     0.00718   0.23078   0.01699   0.00000  Uiso   1.00
H91    H     0.07300   0.17358   0.63826   0.00000  Uiso   1.00
H92    H     0.77536   0.78669   0.43899   0.01267  Uiso   1.00
Al93   Al    0.18325   0.75939   0.17903   0.01267  Uiso   1.00
C94    C     0.20330   0.45564   0.07563   0.01267  Uiso   1.00
C95    C     0.17871   0.57891   0.99978   0.01267  Uiso   1.00
C96    C     0.20927   0.38883   0.12083   0.01267  Uiso   1.00
C97    C     0.14065   0.49317   0.70590   0.01267  Uiso   1.00
C98    C     0.18270   0.46742   0.95623   0.01267  Uiso   1.00
C99    C     0.21327   0.50496   0.16810   0.01267  Uiso   1.00
C100   C     0.20544   0.62538   0.20004   0.01267  Uiso   1.00
C101   C     0.19984   0.56251   0.12326   0.01267  Uiso   1.00
C102   C     0.17228   0.53019   0.91462   0.01267  Uiso   1.00
O103   O     0.18607   0.34548   0.05593   0.01267  Uiso   1.00
O104   O     0.17958   0.67513   0.16102   0.01267  Uiso   1.00
O105   O     0.23922   0.61705   0.29740   0.01267  Uiso   1.00
O106   O     0.25134   0.38523   0.20359   0.01267  Uiso   1.00
O107   O     0.23791   0.74924   0.31101   0.01267  Uiso   1.00
O108   O     0.14369   0.54264   0.79486   0.01267  Uiso   1.00
H109   H     0.52627   0.68965   0.93906   0.00000  Uiso   1.00
H110   H     0.48852   0.62072   0.86295   0.00000  Uiso   1.00
H111   H     0.54554   0.60913   0.99407   0.00000  Uiso   1.00
H112   H     0.16815   0.62988   0.97594   0.00000  Uiso   1.00
H113   H     0.23078   0.49282   0.26699   0.00000  Uiso   1.00
H114   H     0.17358   0.42700   0.88826   0.00000  Uiso   1.00
H115   H     0.78669   0.72464   0.68899   0.01267  Uiso   1.00
Al116  Al    0.68325   0.25939   0.67903   0.01267  Uiso   1.00
C117   C     0.70330   0.95564   0.57563   0.01267  Uiso   1.00
C118   C     0.67871   0.07891   0.49978   0.01267  Uiso   1.00
C119   C     0.70927   0.88883   0.62083   0.01267  Uiso   1.00
C120   C     0.64065   0.99317   0.20590   0.01267  Uiso   1.00
C121   C     0.68270   0.96742   0.45623   0.01267  Uiso   1.00
C122   C     0.71327   0.00496   0.66810   0.01267  Uiso   1.00
C123   C     0.70544   0.12538   0.70004   0.01267  Uiso   1.00
C124   C     0.69984   0.06251   0.62326   0.01267  Uiso   1.00
C125   C     0.67228   0.03019   0.41462   0.01267  Uiso   1.00
O126   O     0.68607   0.84548   0.55593   0.01267  Uiso   1.00
O127   O     0.67958   0.17513   0.66102   0.01267  Uiso   1.00
O128   O     0.73922   0.11705   0.79740   0.01267  Uiso   1.00
O129   O     0.75134   0.88523   0.70359   0.01267  Uiso   1.00
O130   O     0.73791   0.24924   0.81101   0.01267  Uiso   1.00
O131   O     0.64369   0.04264   0.29486   0.01267  Uiso   1.00
H132   H     0.02627   0.18965   0.43906   0.00000  Uiso   1.00
H133   H     0.98852   0.12072   0.36295   0.00000  Uiso   1.00
H134   H     0.04554   0.10913   0.49407   0.00000  Uiso   1.00
H135   H     0.66815   0.12988   0.47594   0.00000  Uiso   1.00
H136   H     0.73078   0.99282   0.76699   0.00000  Uiso   1.00
H137   H     0.67358   0.92700   0.38826   0.00000  Uiso   1.00
H138   H     0.28669   0.22464   0.18899   0.01267  Uiso   1.00
Al139  Al    0.31675   0.74061   0.67903   0.01267  Uiso   1.00
C140   C     0.29670   0.04436   0.57563   0.01267  Uiso   1.00
C141   C     0.32129   0.92109   0.49978   0.01267  Uiso   1.00
C142   C     0.29073   0.11117   0.62083   0.01267  Uiso   1.00
C143   C     0.35935   0.00683   0.20590   0.01267  Uiso   1.00
C144   C     0.31730   0.03258   0.45623   0.01267  Uiso   1.00
C145   C     0.28673   0.99504   0.66810   0.01267  Uiso   1.00
C146   C     0.29456   0.87462   0.70004   0.01267  Uiso   1.00
C147   C     0.30016   0.93749   0.62326   0.01267  Uiso   1.00
C148   C     0.32772   0.96981   0.41462   0.01267  Uiso   1.00
O149   O     0.31393   0.15452   0.55593   0.01267  Uiso   1.00
O150   O     0.32042   0.82487   0.66102   0.01267  Uiso   1.00
O151   O     0.26078   0.88295   0.79740   0.01267  Uiso   1.00
O152   O     0.24866   0.11477   0.70359   0.01267  Uiso   1.00
O153   O     0.26209   0.75076   0.81101   0.01267  Uiso   1.00
O154   O     0.35631   0.95736   0.29486   0.01267  Uiso   1.00
H155   H     0.97373   0.81035   0.43906   0.00000  Uiso   1.00
H156   H     0.01148   0.87928   0.36295   0.00000  Uiso   1.00
H157   H     0.95446   0.89087   0.49407   0.00000  Uiso   1.00
H158   H     0.33185   0.87012   0.47594   0.00000  Uiso   1.00
H159   H     0.26922   0.00718   0.76699   0.00000  Uiso   1.00
H160   H     0.32642   0.07300   0.38826   0.00000  Uiso   1.00
H161   H     0.71331   0.77536   0.18899   0.01267  Uiso   1.00
Al162  Al    0.81675   0.24061   0.17903   0.01267  Uiso   1.00
C163   C     0.79670   0.54436   0.07563   0.01267  Uiso   1.00
C164   C     0.82129   0.42109   0.99978   0.01267  Uiso   1.00
C165   C     0.79073   0.61117   0.12083   0.01267  Uiso   1.00
C166   C     0.85935   0.50683   0.70590   0.01267  Uiso   1.00
C167   C     0.81730   0.53258   0.95623   0.01267  Uiso   1.00
C168   C     0.78673   0.49504   0.16810   0.01267  Uiso   1.00
C169   C     0.79456   0.37462   0.20004   0.01267  Uiso   1.00
C170   C     0.80016   0.43749   0.12326   0.01267  Uiso   1.00
C171   C     0.82772   0.46981   0.91462   0.01267  Uiso   1.00
O172   O     0.81393   0.65452   0.05593   0.01267  Uiso   1.00
O173   O     0.82042   0.32487   0.16102   0.01267  Uiso   1.00
O174   O     0.76078   0.38295   0.29740   0.01267  Uiso   1.00
O175   O     0.74866   0.61477   0.20359   0.01267  Uiso   1.00
O176   O     0.76209   0.25076   0.31101   0.01267  Uiso   1.00
O177   O     0.85631   0.45736   0.79486   0.01267  Uiso   1.00
H178   H     0.47373   0.31035   0.93906   0.00000  Uiso   1.00
H179   H     0.51148   0.37928   0.86295   0.00000  Uiso   1.00
H180   H     0.45446   0.39087   0.99407   0.00000  Uiso   1.00
H181   H     0.83185   0.37012   0.97594   0.00000  Uiso   1.00
H182   H     0.76922   0.50718   0.26699   0.00000  Uiso   1.00
H183   H     0.82642   0.57300   0.88826   0.00000  Uiso   1.00
H184   H     0.21331   0.27536   0.68899   0.01267  Uiso   1.00
Al185  Al    0.74061   0.68325   0.32097   0.01267  Uiso   1.00
C186   C     0.04436   0.70330   0.42437   0.01267  Uiso   1.00
C187   C     0.92109   0.67871   0.50022   0.01267  Uiso   1.00
C188   C     0.11117   0.70927   0.37917   0.01267  Uiso   1.00
C189   C     0.00683   0.64065   0.79410   0.01267  Uiso   1.00
C190   C     0.03258   0.68270   0.54377   0.01267  Uiso   1.00
C191   C     0.99504   0.71327   0.33190   0.01267  Uiso   1.00
C192   C     0.87462   0.70544   0.29996   0.01267  Uiso   1.00
C193   C     0.93749   0.69984   0.37674   0.01267  Uiso   1.00
C194   C     0.96981   0.67228   0.58538   0.01267  Uiso   1.00
O195   O     0.15452   0.68607   0.44407   0.01267  Uiso   1.00
O196   O     0.82487   0.67958   0.33898   0.01267  Uiso   1.00
O197   O     0.88295   0.73922   0.20260   0.01267  Uiso   1.00
O198   O     0.11477   0.75134   0.29641   0.01267  Uiso   1.00
O199   O     0.75076   0.73791   0.18899   0.01267  Uiso   1.00
O200   O     0.95736   0.64369   0.70514   0.01267  Uiso   1.00
H201   H     0.81035   0.02627   0.56094   0.00000  Uiso   1.00
H202   H     0.87928   0.98852   0.63705   0.00000  Uiso   1.00
H203   H     0.89087   0.04554   0.50593   0.00000  Uiso   1.00
H204   H     0.87012   0.66815   0.52406   0.00000  Uiso   1.00
H205   H     0.00718   0.73078   0.23301   0.00000  Uiso   1.00
H206   H     0.07300   0.67358   0.61174   0.00000  Uiso   1.00
H207   H     0.77536   0.28669   0.81101   0.01267  Uiso   1.00
Al208  Al    0.24061   0.18325   0.82097   0.01267  Uiso   1.00
C209   C     0.54436   0.20330   0.92437   0.01267  Uiso   1.00
C210   C     0.42109   0.17871   0.00022   0.01267  Uiso   1.00
C211   C     0.61117   0.20927   0.87917   0.01267  Uiso   1.00
C212   C     0.50683   0.14065   0.29410   0.01267  Uiso   1.00
C213   C     0.53258   0.18270   0.04377   0.01267  Uiso   1.00
C214   C     0.49504   0.21327   0.83190   0.01267  Uiso   1.00
C215   C     0.37462   0.20544   0.79996   0.01267  Uiso   1.00
C216   C     0.43749   0.19984   0.87674   0.01267  Uiso   1.00
C217   C     0.46981   0.17228   0.08538   0.01267  Uiso   1.00
O218   O     0.65452   0.18607   0.94407   0.01267  Uiso   1.00
O219   O     0.32487   0.17958   0.83898   0.01267  Uiso   1.00
O220   O     0.38295   0.23922   0.70260   0.01267  Uiso   1.00
O221   O     0.61477   0.25134   0.79641   0.01267  Uiso   1.00
O222   O     0.25076   0.23791   0.68899   0.01267  Uiso   1.00
O223   O     0.45736   0.14369   0.20514   0.01267  Uiso   1.00
H224   H     0.31035   0.52627   0.06094   0.00000  Uiso   1.00
H225   H     0.37928   0.48852   0.13705   0.00000  Uiso   1.00
H226   H     0.39087   0.54554   0.00593   0.00000  Uiso   1.00
H227   H     0.37012   0.16815   0.02406   0.00000  Uiso   1.00
H228   H     0.50718   0.23078   0.73301   0.00000  Uiso   1.00
H229   H     0.57300   0.17358   0.11174   0.00000  Uiso   1.00
H230   H     0.27536   0.78669   0.31101   0.01267  Uiso   1.00
Al231  Al    0.75939   0.81675   0.82097   0.01267  Uiso   1.00
C232   C     0.45564   0.79670   0.92437   0.01267  Uiso   1.00
C233   C     0.57891   0.82129   0.00022   0.01267  Uiso   1.00
C234   C     0.38883   0.79073   0.87917   0.01267  Uiso   1.00
C235   C     0.49317   0.85935   0.29410   0.01267  Uiso   1.00
C236   C     0.46742   0.81730   0.04377   0.01267  Uiso   1.00
C237   C     0.50496   0.78673   0.83190   0.01267  Uiso   1.00
C238   C     0.62538   0.79456   0.79996   0.01267  Uiso   1.00
C239   C     0.56251   0.80016   0.87674   0.01267  Uiso   1.00
C240   C     0.53019   0.82772   0.08538   0.01267  Uiso   1.00
O241   O     0.34548   0.81393   0.94407   0.01267  Uiso   1.00
O242   O     0.67513   0.82042   0.83898   0.01267  Uiso   1.00
O243   O     0.61705   0.76078   0.70260   0.01267  Uiso   1.00
O244   O     0.38523   0.74866   0.79641   0.01267  Uiso   1.00
O245   O     0.74924   0.76209   0.68899   0.01267  Uiso   1.00
O246   O     0.54264   0.85631   0.20514   0.01267  Uiso   1.00
H247   H     0.68965   0.47373   0.06094   0.00000  Uiso   1.00
H248   H     0.62072   0.51148   0.13705   0.00000  Uiso   1.00
H249   H     0.60913   0.45446   0.00593   0.00000  Uiso   1.00
H250   H     0.62988   0.83185   0.02406   0.00000  Uiso   1.00
H251   H     0.49282   0.76922   0.73301   0.00000  Uiso   1.00
H252   H     0.42700   0.82642   0.11174   0.00000  Uiso   1.00
H253   H     0.72464   0.21331   0.31101   0.01267  Uiso   1.00
Al254  Al    0.25939   0.31675   0.32097   0.01267  Uiso   1.00
C255   C     0.95564   0.29670   0.42437   0.01267  Uiso   1.00
C256   C     0.07891   0.32129   0.50022   0.01267  Uiso   1.00
C257   C     0.88883   0.29073   0.37917   0.01267  Uiso   1.00
C258   C     0.99317   0.35935   0.79410   0.01267  Uiso   1.00
C259   C     0.96742   0.31730   0.54377   0.01267  Uiso   1.00
C260   C     0.00496   0.28673   0.33190   0.01267  Uiso   1.00
C261   C     0.12538   0.29456   0.29996   0.01267  Uiso   1.00
C262   C     0.06251   0.30016   0.37674   0.01267  Uiso   1.00
C263   C     0.03019   0.32772   0.58538   0.01267  Uiso   1.00
O264   O     0.84548   0.31393   0.44407   0.01267  Uiso   1.00
O265   O     0.17513   0.32042   0.33898   0.01267  Uiso   1.00
O266   O     0.11705   0.26078   0.20260   0.01267  Uiso   1.00
O267   O     0.88523   0.24866   0.29641   0.01267  Uiso   1.00
O268   O     0.24924   0.26209   0.18899   0.01267  Uiso   1.00
O269   O     0.04264   0.35631   0.70514   0.01267  Uiso   1.00
H270   H     0.18965   0.97373   0.56094   0.00000  Uiso   1.00
H271   H     0.12072   0.01148   0.63705   0.00000  Uiso   1.00
H272   H     0.10913   0.95446   0.50593   0.00000  Uiso   1.00
H273   H     0.12988   0.33185   0.52406   0.00000  Uiso   1.00
H274   H     0.99282   0.26922   0.23301   0.00000  Uiso   1.00
H275   H     0.92700   0.32642   0.61174   0.00000  Uiso   1.00
H276   H     0.22464   0.71331   0.81101   0.01267  Uiso   1.00
Al277  Al    0.81675   0.74061   0.07097   0.01267  Uiso   1.00
C278   C     0.79670   0.04436   0.17437   0.01267  Uiso   1.00
C279   C     0.82129   0.92109   0.25022   0.01267  Uiso   1.00
C280   C     0.79073   0.11117   0.12917   0.01267  Uiso   1.00
C281   C     0.85935   0.00683   0.54410   0.01267  Uiso   1.00
C282   C     0.81730   0.03258   0.29377   0.01267  Uiso   1.00
C283   C     0.78673   0.99504   0.08190   0.01267  Uiso   1.00
C284   C     0.79456   0.87462   0.04996   0.01267  Uiso   1.00
C285   C     0.80016   0.93749   0.12674   0.01267  Uiso   1.00
C286   C     0.82772   0.96981   0.33538   0.01267  Uiso   1.00
O287   O     0.81393   0.15452   0.19407   0.01267  Uiso   1.00
O288   O     0.82042   0.82487   0.08898   0.01267  Uiso   1.00
O289   O     0.76078   0.88295   0.95260   0.01267  Uiso   1.00
O290   O     0.74866   0.11477   0.04641   0.01267  Uiso   1.00
O291   O     0.76209   0.75076   0.93899   0.01267  Uiso   1.00
O292   O     0.85631   0.95736   0.45514   0.01267  Uiso   1.00
H293   H     0.47373   0.81035   0.31094   0.00000  Uiso   1.00
H294   H     0.51148   0.87928   0.38705   0.00000  Uiso   1.00
H295   H     0.45446   0.89087   0.25593   0.00000  Uiso   1.00
H296   H     0.83185   0.87012   0.27406   0.00000  Uiso   1.00
H297   H     0.76922   0.00718   0.98301   0.00000  Uiso   1.00
H298   H     0.82642   0.07300   0.36174   0.00000  Uiso   1.00
H299   H     0.21331   0.77536   0.56101   0.01267  Uiso   1.00
Al300  Al    0.31675   0.24061   0.57097   0.01267  Uiso   1.00
C301   C     0.29670   0.54436   0.67437   0.01267  Uiso   1.00
C302   C     0.32129   0.42109   0.75022   0.01267  Uiso   1.00
C303   C     0.29073   0.61117   0.62917   0.01267  Uiso   1.00
C304   C     0.35935   0.50683   0.04410   0.01267  Uiso   1.00
C305   C     0.31730   0.53258   0.79377   0.01267  Uiso   1.00
C306   C     0.28673   0.49504   0.58190   0.01267  Uiso   1.00
C307   C     0.29456   0.37462   0.54996   0.01267  Uiso   1.00
C308   C     0.30016   0.43749   0.62674   0.01267  Uiso   1.00
C309   C     0.32772   0.46981   0.83538   0.01267  Uiso   1.00
O310   O     0.31393   0.65452   0.69407   0.01267  Uiso   1.00
O311   O     0.32042   0.32487   0.58898   0.01267  Uiso   1.00
O312   O     0.26078   0.38295   0.45260   0.01267  Uiso   1.00
O313   O     0.24866   0.61477   0.54641   0.01267  Uiso   1.00
O314   O     0.26209   0.25076   0.43899   0.01267  Uiso   1.00
O315   O     0.35631   0.45736   0.95514   0.01267  Uiso   1.00
H316   H     0.97373   0.31035   0.81094   0.00000  Uiso   1.00
H317   H     0.01148   0.37928   0.88705   0.00000  Uiso   1.00
H318   H     0.95446   0.39087   0.75593   0.00000  Uiso   1.00
H319   H     0.33185   0.37012   0.77406   0.00000  Uiso   1.00
H320   H     0.26922   0.50718   0.48301   0.00000  Uiso   1.00
H321   H     0.32642   0.57300   0.86174   0.00000  Uiso   1.00
H322   H     0.71331   0.27536   0.06101   0.01267  Uiso   1.00
Al323  Al    0.68325   0.75939   0.57097   0.01267  Uiso   1.00
C324   C     0.70330   0.45564   0.67437   0.01267  Uiso   1.00
C325   C     0.67871   0.57891   0.75022   0.01267  Uiso   1.00
C326   C     0.70927   0.38883   0.62917   0.01267  Uiso   1.00
C327   C     0.64065   0.49317   0.04410   0.01267  Uiso   1.00
C328   C     0.68270   0.46742   0.79377   0.01267  Uiso   1.00
C329   C     0.71327   0.50496   0.58190   0.01267  Uiso   1.00
C330   C     0.70544   0.62538   0.54996   0.01267  Uiso   1.00
C331   C     0.69984   0.56251   0.62674   0.01267  Uiso   1.00
C332   C     0.67228   0.53019   0.83538   0.01267  Uiso   1.00
O333   O     0.68607   0.34548   0.69407   0.01267  Uiso   1.00
O334   O     0.67958   0.67513   0.58898   0.01267  Uiso   1.00
O335   O     0.73922   0.61705   0.45260   0.01267  Uiso   1.00
O336   O     0.75134   0.38523   0.54641   0.01267  Uiso   1.00
O337   O     0.73791   0.74924   0.43899   0.01267  Uiso   1.00
O338   O     0.64369   0.54264   0.95514   0.01267  Uiso   1.00
H339   H     0.02627   0.68965   0.81094   0.00000  Uiso   1.00
H340   H     0.98852   0.62072   0.88705   0.00000  Uiso   1.00
H341   H     0.04554   0.60913   0.75593   0.00000  Uiso   1.00
H342   H     0.66815   0.62988   0.77406   0.00000  Uiso   1.00
H343   H     0.73078   0.49282   0.48301   0.00000  Uiso   1.00
H344   H     0.67358   0.42700   0.86174   0.00000  Uiso   1.00
H345   H     0.28669   0.72464   0.06101   0.01267  Uiso   1.00
Al346  Al    0.18325   0.25939   0.07097   0.01267  Uiso   1.00
C347   C     0.20330   0.95564   0.17437   0.01267  Uiso   1.00
C348   C     0.17871   0.07891   0.25022   0.01267  Uiso   1.00
C349   C     0.20927   0.88883   0.12917   0.01267  Uiso   1.00
C350   C     0.14065   0.99317   0.54410   0.01267  Uiso   1.00
C351   C     0.18270   0.96742   0.29377   0.01267  Uiso   1.00
C352   C     0.21327   0.00496   0.08190   0.01267  Uiso   1.00
C353   C     0.20544   0.12538   0.04996   0.01267  Uiso   1.00
C354   C     0.19984   0.06251   0.12674   0.01267  Uiso   1.00
C355   C     0.17228   0.03019   0.33538   0.01267  Uiso   1.00
O356   O     0.18607   0.84548   0.19407   0.01267  Uiso   1.00
O357   O     0.17958   0.17513   0.08898   0.01267  Uiso   1.00
O358   O     0.23922   0.11705   0.95260   0.01267  Uiso   1.00
O359   O     0.25134   0.88523   0.04641   0.01267  Uiso   1.00
O360   O     0.23791   0.24924   0.93899   0.01267  Uiso   1.00
O361   O     0.14369   0.04264   0.45514   0.01267  Uiso   1.00
H362   H     0.52627   0.18965   0.31094   0.00000  Uiso   1.00
H363   H     0.48852   0.12072   0.38705   0.00000  Uiso   1.00
H364   H     0.54554   0.10913   0.25593   0.00000  Uiso   1.00
H365   H     0.16815   0.12988   0.27406   0.00000  Uiso   1.00
H366   H     0.23078   0.99282   0.98301   0.00000  Uiso   1.00
H367   H     0.17358   0.92700   0.36174   0.00000  Uiso   1.00
H368   H     0.78669   0.22464   0.56101   0.01267  Uiso   1.00
