data_CELZEA_clean
_audit_creation_date              2014-07-02
_audit_creation_method            'Materials Studio'
_symmetry_space_group_name_H-M    'P1'
_symmetry_Int_Tables_number       1
_symmetry_cell_setting            triclinic
loop_
_symmetry_equiv_pos_as_xyz
  x,y,z
_cell_length_a                    9.0023
_cell_length_b                    10.6114
_cell_length_c                    11.6941
_cell_angle_alpha                 116.9820
_cell_angle_beta                  109.2260
_cell_angle_gamma                 90.0000
loop_
_atom_site_label
_atom_site_type_symbol
_atom_site_fract_x
_atom_site_fract_y
_atom_site_fract_z
_atom_site_U_iso_or_equiv
_atom_site_adp_type
_atom_site_occupancy
Mo1    Mo    0.76367   0.41345   0.53004   0.01267  Uiso   1.00
Mo2    Mo    0.73633   0.88341   0.46996   0.01267  Uiso   1.00
Mo3    Mo    0.23633   0.58655   0.46996   0.01267  Uiso   1.00
Mo4    Mo    0.26367   0.11659   0.53004   0.01267  Uiso   1.00
P1     P     0.53892   0.09557   0.38148   0.01267  Uiso   1.00
P2     P     0.96108   0.71409   0.61852   0.01267  Uiso   1.00
P3     P     0.46108   0.90443   0.61852   0.01267  Uiso   1.00
P4     P     0.03892   0.28591   0.38148   0.01267  Uiso   1.00
H1     H     0.35540   0.17490   0.25060   0.01267  Uiso   1.00
H2     H     0.29760   0.00940   0.19900   0.01267  Uiso   1.00
H3     H     0.45010   0.23140   0.11280   0.01267  Uiso   1.00
H4     H     0.53660   0.16760   0.93020   0.01267  Uiso   1.00
H5     H     0.14460   0.92430   0.74940   0.01267  Uiso   1.00
H6     H     0.20240   0.81040   0.80100   0.01267  Uiso   1.00
H7     H     0.04990   0.11860   0.88720   0.01267  Uiso   1.00
H8     H     0.96340   0.23740   0.06980   0.01267  Uiso   1.00
H9     H     0.64460   0.82510   0.74940   0.01267  Uiso   1.00
H10    H     0.70240   0.99060   0.80100   0.01267  Uiso   1.00
H11    H     0.54990   0.76860   0.88720   0.01267  Uiso   1.00
H12    H     0.46340   0.83240   0.06980   0.01267  Uiso   1.00
H13    H     0.85540   0.07570   0.25060   0.01267  Uiso   1.00
H14    H     0.79760   0.18960   0.19900   0.01267  Uiso   1.00
H15    H     0.95010   0.88140   0.11280   0.01267  Uiso   1.00
H16    H     0.03660   0.76260   0.93020   0.01267  Uiso   1.00
C1     C     0.39120   0.08126   0.22852   0.01267  Uiso   1.00
C2     C     0.44700   0.03860   0.10920   0.01267  Uiso   1.00
C3     C     0.47010   0.13677   0.06694   0.01267  Uiso   1.00
C4     C     0.52200   0.09906   0.95852   0.01267  Uiso   1.00
C5     C     0.10880   0.85274   0.77148   0.01267  Uiso   1.00
C6     C     0.05300   0.92940   0.89080   0.01267  Uiso   1.00
C7     C     0.02990   0.06983   0.93306   0.01267  Uiso   1.00
C8     C     0.97800   0.14054   0.04148   0.01267  Uiso   1.00
C9     C     0.60880   0.91874   0.77148   0.01267  Uiso   1.00
C10    C     0.55300   0.96140   0.89080   0.01267  Uiso   1.00
C11    C     0.52990   0.86323   0.93306   0.01267  Uiso   1.00
C12    C     0.47800   0.90094   0.04148   0.01267  Uiso   1.00
C13    C     0.89120   0.14726   0.22852   0.01267  Uiso   1.00
C14    C     0.94700   0.07060   0.10920   0.01267  Uiso   1.00
C15    C     0.97010   0.93017   0.06694   0.01267  Uiso   1.00
C16    C     0.02200   0.85946   0.95852   0.01267  Uiso   1.00
O1     O     0.68839   0.20132   0.42424   0.01267  Uiso   1.00
O2     O     0.47346   0.14629   0.49520   0.01267  Uiso   1.00
O3     O     0.58672   0.94653   0.34360   0.01267  Uiso   1.00
O4     O     0.81161   0.77708   0.57576   0.01267  Uiso   1.00
O5     O     0.02654   0.65109   0.50480   0.01267  Uiso   1.00
O6     O     0.91328   0.60293   0.65640   0.01267  Uiso   1.00
O7     O     0.31161   0.79868   0.57576   0.01267  Uiso   1.00
O8     O     0.52654   0.85371   0.50480   0.01267  Uiso   1.00
O9     O     0.41328   0.05347   0.65640   0.01267  Uiso   1.00
O10    O     0.18839   0.22292   0.42424   0.01267  Uiso   1.00
O11    O     0.97346   0.34891   0.49520   0.01267  Uiso   1.00
O12    O     0.08672   0.39707   0.34360   0.01267  Uiso   1.00
