data_CENPUI_clean
_audit_creation_date              2014-07-02
_audit_creation_method            'Materials Studio'
_symmetry_space_group_name_H-M    'P1'
_symmetry_Int_Tables_number       1
_symmetry_cell_setting            triclinic
loop_
_symmetry_equiv_pos_as_xyz
  x,y,z
_cell_length_a                    8.4319
_cell_length_b                    12.8251
_cell_length_c                    20.9240
_cell_angle_alpha                 73.4620
_cell_angle_beta                  84.6920
_cell_angle_gamma                 78.3070
loop_
_atom_site_label
_atom_site_type_symbol
_atom_site_fract_x
_atom_site_fract_y
_atom_site_fract_z
_atom_site_U_iso_or_equiv
_atom_site_adp_type
_atom_site_occupancy
Mg1    Mg    0.43397   0.82994   0.00053   0.01267  Uiso   1.00
Mg2    Mg    0.56603   0.17006   0.99947   0.01267  Uiso   1.00
Mg3    Mg    0.00000   0.00000   0.00000   0.01267  Uiso   1.00
H1     H     0.58430   0.04700   0.18770   0.01267  Uiso   1.00
H2     H     0.35490   0.74630   0.30510   0.01267  Uiso   1.00
H3     H     0.35110   0.80150   0.19070   0.01267  Uiso   1.00
H4     H     0.16000   0.70600   0.74200   0.01267  Uiso   1.00
H5     H     0.93080   0.52870   0.75010   0.01267  Uiso   1.00
H6     H     0.60700   0.98410   0.30080   0.01267  Uiso   1.00
H7     H     0.01540   0.79280   0.62900   0.01267  Uiso   1.00
H8     H     0.65070   0.80330   0.76770   0.01267  Uiso   1.00
H9     H     0.13400   0.16020   0.85370   0.01267  Uiso   1.00
H10    H     0.48850   0.74820   0.70500   0.01267  Uiso   1.00
H11    H     0.44860   0.41480   0.77140   0.01267  Uiso   1.00
H12    H     0.30830   0.72570   0.82440   0.01267  Uiso   1.00
H13    H     0.95160   0.96900   0.85860   0.01267  Uiso   1.00
H14    H     0.62170   0.52140   0.70500   0.01267  Uiso   1.00
H15    H     0.09970   0.55510   0.63810   0.01267  Uiso   1.00
H16    H     0.30070   0.26580   0.78110   0.01267  Uiso   1.00
H17    H     0.27090   0.66570   0.57290   0.01267  Uiso   1.00
H18    H     0.57430   0.57730   0.50490   0.01267  Uiso   1.00
H19    H     0.79850   0.94620   0.77890   0.01267  Uiso   1.00
H20    H     0.76670   0.42460   0.82580   0.01267  Uiso   1.00
H21    H     0.52850   0.88700   0.52330   0.01267  Uiso   1.00
H22    H     0.85560   0.73380   0.56680   0.01267  Uiso   1.00
H23    H     0.49610   0.95780   0.40970   0.01267  Uiso   1.00
H24    H     0.53380   0.64870   0.39280   0.01267  Uiso   1.00
H25    H     0.41570   0.95300   0.81230   0.01267  Uiso   1.00
H26    H     0.64510   0.25370   0.69490   0.01267  Uiso   1.00
H27    H     0.64890   0.19850   0.80930   0.01267  Uiso   1.00
H28    H     0.84000   0.29400   0.25800   0.01267  Uiso   1.00
H29    H     0.06920   0.47130   0.24990   0.01267  Uiso   1.00
H30    H     0.39300   0.01590   0.69920   0.01267  Uiso   1.00
H31    H     0.98460   0.20720   0.37100   0.01267  Uiso   1.00
H32    H     0.34930   0.19670   0.23230   0.01267  Uiso   1.00
H33    H     0.86600   0.83980   0.14630   0.01267  Uiso   1.00
H34    H     0.51150   0.25180   0.29500   0.01267  Uiso   1.00
H35    H     0.55140   0.58520   0.22860   0.01267  Uiso   1.00
H36    H     0.69170   0.27430   0.17560   0.01267  Uiso   1.00
H37    H     0.04840   0.03100   0.14140   0.01267  Uiso   1.00
H38    H     0.37830   0.47860   0.29500   0.01267  Uiso   1.00
H39    H     0.90030   0.44490   0.36190   0.01267  Uiso   1.00
H40    H     0.69930   0.73420   0.21890   0.01267  Uiso   1.00
H41    H     0.72910   0.33430   0.42710   0.01267  Uiso   1.00
H42    H     0.42570   0.42270   0.49510   0.01267  Uiso   1.00
H43    H     0.20150   0.05380   0.22110   0.01267  Uiso   1.00
H44    H     0.23330   0.57540   0.17420   0.01267  Uiso   1.00
H45    H     0.47150   0.11300   0.47670   0.01267  Uiso   1.00
H46    H     0.14440   0.26620   0.43320   0.01267  Uiso   1.00
H47    H     0.50390   0.04220   0.59030   0.01267  Uiso   1.00
H48    H     0.46620   0.35130   0.60720   0.01267  Uiso   1.00
C1     C     0.54250   0.98450   0.21120   0.01267  Uiso   1.00
C2     C     0.46790   0.92990   0.17650   0.01267  Uiso   1.00
C3     C     0.40630   0.80410   0.28130   0.01267  Uiso   1.00
C4     C     0.40050   0.83900   0.21290   0.01267  Uiso   1.00
C5     C     0.83560   0.21380   0.90360   0.01267  Uiso   1.00
C6     C     0.48930   0.85490   0.31570   0.01267  Uiso   1.00
C7     C     0.11670   0.75640   0.76620   0.01267  Uiso   1.00
C8     C     0.96060   0.82120   0.75270   0.01267  Uiso   1.00
C9     C     0.25060   0.47520   0.71370   0.01267  Uiso   1.00
C10    C     0.97220   0.45550   0.77200   0.01267  Uiso   1.00
C11    C     0.93490   0.28210   0.85030   0.01267  Uiso   1.00
C12    C     0.23420   0.84630   0.91070   0.01267  Uiso   1.00
C13    C     0.85430   0.79880   0.70740   0.01267  Uiso   1.00
C14    C     0.46530   0.96680   0.10200   0.01267  Uiso   1.00
C15    C     0.14020   0.84390   0.85300   0.01267  Uiso   1.00
C16    C     0.46320   0.60940   0.63330   0.01267  Uiso   1.00
C17    C     0.55490   0.94760   0.27890   0.01267  Uiso   1.00
C18    C     0.91220   0.78100   0.64510   0.01267  Uiso   1.00
C19    C     0.69270   0.78760   0.72810   0.01267  Uiso   1.00
C20    C     0.13680   0.40910   0.75840   0.01267  Uiso   1.00
C21    C     0.09500   0.23480   0.83420   0.01267  Uiso   1.00
C22    C     0.59510   0.75390   0.69090   0.01267  Uiso   1.00
C23    C     0.41180   0.46580   0.73180   0.01267  Uiso   1.00
C24    C     0.20530   0.76810   0.81580   0.01267  Uiso   1.00
C25    C     0.99010   0.91430   0.83690   0.01267  Uiso   1.00
C26    C     0.55320   0.72490   0.52660   0.01267  Uiso   1.00
C27    C     0.51590   0.53050   0.69230   0.01267  Uiso   1.00
C28    C     0.20270   0.54980   0.65270   0.01267  Uiso   1.00
C29    C     0.65920   0.72840   0.63140   0.01267  Uiso   1.00
C30    C     0.19470   0.29780   0.78990   0.01267  Uiso   1.00
C31    C     0.30620   0.61620   0.61310   0.01267  Uiso   1.00
C32    C     0.55660   0.65350   0.48610   0.01267  Uiso   1.00
C33    C     0.89990   0.90170   0.78840   0.01267  Uiso   1.00
C34    C     0.87320   0.39320   0.81730   0.01267  Uiso   1.00
C35    C     0.51040   0.81100   0.38860   0.01267  Uiso   1.00
C36    C     0.53020   0.83920   0.49700   0.01267  Uiso   1.00
C37    C     0.81600   0.74580   0.60760   0.01267  Uiso   1.00
C38    C     0.51000   0.88170   0.42880   0.01267  Uiso   1.00
C39    C     0.53380   0.69650   0.41890   0.01267  Uiso   1.00
C40    C     0.45750   0.01550   0.78880   0.01267  Uiso   1.00
C41    C     0.53210   0.07010   0.82350   0.01267  Uiso   1.00
C42    C     0.59370   0.19590   0.71870   0.01267  Uiso   1.00
C43    C     0.59950   0.16100   0.78710   0.01267  Uiso   1.00
C44    C     0.16440   0.78620   0.09640   0.01267  Uiso   1.00
C45    C     0.51070   0.14510   0.68430   0.01267  Uiso   1.00
C46    C     0.88330   0.24360   0.23380   0.01267  Uiso   1.00
C47    C     0.03940   0.17880   0.24730   0.01267  Uiso   1.00
C48    C     0.74940   0.52480   0.28630   0.01267  Uiso   1.00
C49    C     0.02780   0.54450   0.22800   0.01267  Uiso   1.00
C50    C     0.06510   0.71790   0.14970   0.01267  Uiso   1.00
C51    C     0.76580   0.15370   0.08930   0.01267  Uiso   1.00
C52    C     0.14570   0.20120   0.29260   0.01267  Uiso   1.00
C53    C     0.53470   0.03320   0.89800   0.01267  Uiso   1.00
C54    C     0.85980   0.15610   0.14700   0.01267  Uiso   1.00
C55    C     0.53680   0.39060   0.36670   0.01267  Uiso   1.00
C56    C     0.44510   0.05240   0.72110   0.01267  Uiso   1.00
C57    C     0.08780   0.21900   0.35490   0.01267  Uiso   1.00
C58    C     0.30730   0.21240   0.27190   0.01267  Uiso   1.00
C59    C     0.86320   0.59090   0.24160   0.01267  Uiso   1.00
C60    C     0.90500   0.76520   0.16580   0.01267  Uiso   1.00
C61    C     0.40490   0.24610   0.30910   0.01267  Uiso   1.00
C62    C     0.58820   0.53420   0.26820   0.01267  Uiso   1.00
C63    C     0.79470   0.23190   0.18420   0.01267  Uiso   1.00
C64    C     0.00990   0.08570   0.16310   0.01267  Uiso   1.00
C65    C     0.44680   0.27510   0.47340   0.01267  Uiso   1.00
C66    C     0.48410   0.46950   0.30770   0.01267  Uiso   1.00
C67    C     0.79730   0.45020   0.34730   0.01267  Uiso   1.00
C68    C     0.34080   0.27160   0.36860   0.01267  Uiso   1.00
C69    C     0.80530   0.70220   0.21010   0.01267  Uiso   1.00
C70    C     0.69380   0.38380   0.38690   0.01267  Uiso   1.00
C71    C     0.44340   0.34650   0.51390   0.01267  Uiso   1.00
C72    C     0.10010   0.09830   0.21160   0.01267  Uiso   1.00
C73    C     0.12680   0.60680   0.18270   0.01267  Uiso   1.00
C74    C     0.48960   0.18900   0.61140   0.01267  Uiso   1.00
C75    C     0.46980   0.16080   0.50300   0.01267  Uiso   1.00
C76    C     0.18400   0.25420   0.39240   0.01267  Uiso   1.00
C77    C     0.49000   0.11830   0.57120   0.01267  Uiso   1.00
C78    C     0.46620   0.30350   0.58110   0.01267  Uiso   1.00
N1     N     0.56630   0.68230   0.59646   0.01267  Uiso   1.00
N2     N     0.43370   0.31770   0.40354   0.01267  Uiso   1.00
O1     O     0.35940   0.77130   0.92675   0.01267  Uiso   1.00
O2     O     0.18910   0.92210   0.94120   0.01267  Uiso   1.00
O3     O     0.70690   0.26220   0.92687   0.01267  Uiso   1.00
O4     O     0.89080   0.10890   0.92081   0.01267  Uiso   1.00
O5     O     0.44180   0.07000   0.07450   0.01267  Uiso   1.00
O6     O     0.48530   0.89160   0.07234   0.01267  Uiso   1.00
O7     O     0.64060   0.22870   0.07325   0.01267  Uiso   1.00
O8     O     0.81090   0.07790   0.05880   0.01267  Uiso   1.00
O9     O     0.29310   0.73780   0.07313   0.01267  Uiso   1.00
O10    O     0.10920   0.89110   0.07919   0.01267  Uiso   1.00
O11    O     0.55820   0.93000   0.92550   0.01267  Uiso   1.00
O12    O     0.51470   0.10840   0.92766   0.01267  Uiso   1.00
