data_CEQBUV_charged
_audit_creation_date              2014-07-02
_audit_creation_method            'Materials Studio'
_symmetry_space_group_name_H-M    'P1'
_symmetry_Int_Tables_number       1
_symmetry_cell_setting            triclinic
loop_
_symmetry_equiv_pos_as_xyz
  x,y,z
_cell_length_a                    9.2411
_cell_length_b                    19.5285
_cell_length_c                    19.5285
_cell_angle_alpha                 62.4399
_cell_angle_beta                  80.9245
_cell_angle_gamma                 99.0755
loop_
_atom_site_label
_atom_site_type_symbol
_atom_site_fract_x
_atom_site_fract_y
_atom_site_fract_z
_atom_site_U_iso_or_equiv
_atom_site_adp_type
_atom_site_occupancy
Zn1    Zn    0.08344   0.66277   0.51078   0.01267  Uiso   1.00
Zn2    Zn    0.66187   0.59213   0.49579   0.01267  Uiso   1.00
Zn3    Zn    0.08309   0.66783   0.78785   0.01267  Uiso   1.00
Zn4    Zn    0.59422   0.51078   0.82645   0.01267  Uiso   1.00
Zn5    Zn    0.15766   0.49579   0.91208   0.01267  Uiso   1.00
Zn6    Zn    0.87094   0.78785   0.54432   0.01267  Uiso   1.00
Zn7    Zn    0.42067   0.82645   0.66277   0.01267  Uiso   1.00
Zn8    Zn    0.06974   0.91208   0.59213   0.01267  Uiso   1.00
Zn9    Zn    0.41526   0.54432   0.66783   0.01267  Uiso   1.00
Zn10   Zn    0.91656   0.33723   0.48922   0.01267  Uiso   1.00
Zn11   Zn    0.33813   0.40787   0.50421   0.01267  Uiso   1.00
Zn12   Zn    0.91691   0.33217   0.21215   0.01267  Uiso   1.00
Zn13   Zn    0.40578   0.48922   0.17355   0.01267  Uiso   1.00
Zn14   Zn    0.84234   0.50421   0.08792   0.01267  Uiso   1.00
Zn15   Zn    0.12906   0.21215   0.45568   0.01267  Uiso   1.00
Zn16   Zn    0.57933   0.17355   0.33723   0.01267  Uiso   1.00
Zn17   Zn    0.93026   0.08792   0.40787   0.01267  Uiso   1.00
Zn18   Zn    0.58474   0.45568   0.33217   0.01267  Uiso   1.00
P1     P     0.17081   0.76767   0.59324   0.01267  Uiso   1.00
P2     P     0.29399   0.55040   0.52603   0.01267  Uiso   1.00
P3     P     0.90306   0.76005   0.40037   0.01267  Uiso   1.00
P4     P     0.76405   0.59324   0.63909   0.01267  Uiso   1.00
P5     P     0.82002   0.52603   0.92357   0.01267  Uiso   1.00
P6     P     0.30343   0.40037   0.83958   0.01267  Uiso   1.00
P7     P     0.40314   0.63909   0.76767   0.01267  Uiso   1.00
P8     P     0.74359   0.92357   0.55040   0.01267  Uiso   1.00
P9     P     0.14301   0.83958   0.76005   0.01267  Uiso   1.00
P10    P     0.82919   0.23233   0.40676   0.01267  Uiso   1.00
P11    P     0.70601   0.44960   0.47397   0.01267  Uiso   1.00
P12    P     0.09694   0.23995   0.59963   0.01267  Uiso   1.00
P13    P     0.23595   0.40676   0.36091   0.01267  Uiso   1.00
P14    P     0.17998   0.47397   0.07643   0.01267  Uiso   1.00
P15    P     0.69657   0.59963   0.16042   0.01267  Uiso   1.00
P16    P     0.59686   0.36091   0.23233   0.01267  Uiso   1.00
P17    P     0.25641   0.07643   0.44960   0.01267  Uiso   1.00
P18    P     0.85699   0.16042   0.23995   0.01267  Uiso   1.00
H1     H     0.91730   0.78840   0.28640   0.01267  Uiso   1.00
H2     H     0.20370   0.28640   0.92520   0.01267  Uiso   1.00
H3     H     0.12890   0.92520   0.78840   0.01267  Uiso   1.00
H4     H     0.08270   0.21160   0.71360   0.01267  Uiso   1.00
H5     H     0.79630   0.71360   0.07480   0.01267  Uiso   1.00
H6     H     0.87110   0.07480   0.21160   0.01267  Uiso   1.00
O1     O     0.46090   0.58350   0.48080   0.01267  Uiso   1.00
O2     O     0.20200   0.60540   0.47780   0.01267  Uiso   1.00
O3     O     0.10350   0.70020   0.67850   0.01267  Uiso   1.00
O4     O     0.92560   0.81740   0.43240   0.01267  Uiso   1.00
O5     O     0.92720   0.81610   0.30750   0.01267  Uiso   1.00
O6     O     0.23330   0.46700   0.53800   0.01267  Uiso   1.00
O7     O     0.19590   0.73630   0.53520   0.01267  Uiso   1.00
O8     O     0.01950   0.71070   0.41360   0.01267  Uiso   1.00
O9     O     0.26920   0.54550   0.60780   0.01267  Uiso   1.00
O10    O     0.32330   0.82090   0.58320   0.01267  Uiso   1.00
O11    O     0.06310   0.82320   0.56720   0.01267  Uiso   1.00
O12    O     0.74110   0.70770   0.43550   0.01267  Uiso   1.00
O13    O     0.94170   0.48080   0.93570   0.01267  Uiso   1.00
O14    O     0.67980   0.47780   0.91680   0.01267  Uiso   1.00
O15    O     0.78200   0.67850   0.62130   0.01267  Uiso   1.00
O16    O     0.35800   0.43240   0.75020   0.01267  Uiso   1.00
O17    O     0.23470   0.30750   0.87640   0.01267  Uiso   1.00
O18    O     0.77130   0.53800   0.99500   0.01267  Uiso   1.00
O19    O     0.73110   0.53520   0.72850   0.01267  Uiso   1.00
O20    O     0.43310   0.41360   0.87570   0.01267  Uiso   1.00
O21    O     0.87700   0.60780   0.84670   0.01267  Uiso   1.00
O22    O     0.90650   0.58320   0.59590   0.01267  Uiso   1.00
O23    O     0.63030   0.56720   0.60960   0.01267  Uiso   1.00
O24    O     0.17660   0.43550   0.85680   0.01267  Uiso   1.00
O25    O     0.87740   0.93570   0.58350   0.01267  Uiso   1.00
O26    O     0.59660   0.91680   0.60540   0.01267  Uiso   1.00
O27    O     0.40330   0.62130   0.70020   0.01267  Uiso   1.00
O28    O     0.10820   0.75020   0.81740   0.01267  Uiso   1.00
O29    O     0.11110   0.87640   0.81610   0.01267  Uiso   1.00
O30    O     0.76630   0.99500   0.46700   0.01267  Uiso   1.00
O31    O     0.45960   0.72850   0.73630   0.01267  Uiso   1.00
O32    O     0.30880   0.87570   0.71070   0.01267  Uiso   1.00
O33    O     0.72370   0.84670   0.54550   0.01267  Uiso   1.00
O34    O     0.50240   0.59590   0.82090   0.01267  Uiso   1.00
O35    O     0.23990   0.60960   0.82320   0.01267  Uiso   1.00
O36    O     0.03340   0.85680   0.70770   0.01267  Uiso   1.00
O37    O     0.53910   0.41650   0.51920   0.01267  Uiso   1.00
O38    O     0.79800   0.39460   0.52220   0.01267  Uiso   1.00
O39    O     0.89650   0.29980   0.32150   0.01267  Uiso   1.00
O40    O     0.07440   0.18260   0.56760   0.01267  Uiso   1.00
O41    O     0.07280   0.18390   0.69250   0.01267  Uiso   1.00
O42    O     0.76670   0.53300   0.46200   0.01267  Uiso   1.00
O43    O     0.80410   0.26370   0.46480   0.01267  Uiso   1.00
O44    O     0.98050   0.28930   0.58640   0.01267  Uiso   1.00
O45    O     0.73080   0.45450   0.39220   0.01267  Uiso   1.00
O46    O     0.67670   0.17910   0.41680   0.01267  Uiso   1.00
O47    O     0.93690   0.17680   0.43280   0.01267  Uiso   1.00
O48    O     0.25890   0.29230   0.56450   0.01267  Uiso   1.00
O49    O     0.05830   0.51920   0.06430   0.01267  Uiso   1.00
O50    O     0.32020   0.52220   0.08320   0.01267  Uiso   1.00
O51    O     0.21800   0.32150   0.37870   0.01267  Uiso   1.00
O52    O     0.64200   0.56760   0.24980   0.01267  Uiso   1.00
O53    O     0.76530   0.69250   0.12360   0.01267  Uiso   1.00
O54    O     0.22870   0.46200   0.00500   0.01267  Uiso   1.00
O55    O     0.26890   0.46480   0.27150   0.01267  Uiso   1.00
O56    O     0.56690   0.58640   0.12430   0.01267  Uiso   1.00
O57    O     0.12300   0.39220   0.15330   0.01267  Uiso   1.00
O58    O     0.09350   0.41680   0.40410   0.01267  Uiso   1.00
O59    O     0.36970   0.43280   0.39040   0.01267  Uiso   1.00
O60    O     0.82340   0.56450   0.14320   0.01267  Uiso   1.00
O61    O     0.12260   0.06430   0.41650   0.01267  Uiso   1.00
O62    O     0.40340   0.08320   0.39460   0.01267  Uiso   1.00
O63    O     0.59670   0.37870   0.29980   0.01267  Uiso   1.00
O64    O     0.89180   0.24980   0.18260   0.01267  Uiso   1.00
O65    O     0.88890   0.12360   0.18390   0.01267  Uiso   1.00
O66    O     0.23370   0.00500   0.53300   0.01267  Uiso   1.00
O67    O     0.54040   0.27150   0.26370   0.01267  Uiso   1.00
O68    O     0.69120   0.12430   0.28930   0.01267  Uiso   1.00
O69    O     0.27630   0.15330   0.45450   0.01267  Uiso   1.00
O70    O     0.49760   0.40410   0.17910   0.01267  Uiso   1.00
O71    O     0.76010   0.39040   0.17680   0.01267  Uiso   1.00
O72    O     0.96660   0.14320   0.29230   0.01267  Uiso   1.00
H7     H     0.08410   0.50640   0.68510   0.01267  Uiso   1.00
H8     H     0.05280   0.47560   0.78720   0.01267  Uiso   1.00
H9     H     0.90850   0.50100   0.73850   0.01267  Uiso   1.00
H10    H     0.86090   0.41490   0.59120   0.01267  Uiso   1.00
H11    H     0.93620   0.48920   0.60460   0.01267  Uiso   1.00
H12    H     0.02790   0.42090   0.61220   0.01267  Uiso   1.00
H13    H     0.03230   0.36720   0.75650   0.01267  Uiso   1.00
H14    H     0.75450   0.39780   0.72200   0.01267  Uiso   1.00
H15    H     0.72570   0.28630   0.70590   0.01267  Uiso   1.00
H16    H     0.87530   0.27170   0.73210   0.01267  Uiso   1.00
H17    H     0.66790   0.18890   0.84310   0.01267  Uiso   1.00
H18    H     0.60680   0.26290   0.83250   0.01267  Uiso   1.00
H19    H     0.73030   0.23070   0.93380   0.01267  Uiso   1.00
H20    H     0.87660   0.23330   0.87850   0.01267  Uiso   1.00
H21    H     0.91460   0.34800   0.88430   0.01267  Uiso   1.00
H22    H     0.76710   0.36480   0.85700   0.01267  Uiso   1.00
C1     C     0.94550   0.38890   0.76260   0.01267  Uiso   1.00
C2     C     0.84360   0.37890   0.71210   0.01267  Uiso   1.00
C3     C     0.78900   0.29280   0.73880   0.01267  Uiso   1.00
C4     C     0.69800   0.24540   0.82640   0.01267  Uiso   1.00
C5     C     0.79240   0.25730   0.87910   0.01267  Uiso   1.00
C6     C     0.85200   0.34220   0.85120   0.01267  Uiso   1.00
N1     N     0.00170   0.47390   0.74200   0.01267  Uiso   1.00
N2     N     0.92310   0.42930   0.62300   0.01267  Uiso   1.00
H23    H     0.76920   0.68510   0.80850   0.01267  Uiso   1.00
H24    H     0.84000   0.78720   0.73720   0.01267  Uiso   1.00
H25    H     0.64700   0.73850   0.76050   0.01267  Uiso   1.00
H26    H     0.45210   0.59120   0.99390   0.01267  Uiso   1.00
H27    H     0.54080   0.60460   0.90620   0.01267  Uiso   1.00
H28    H     0.64010   0.61220   0.96690   0.01267  Uiso   1.00
H29    H     0.78880   0.75650   0.87630   0.01267  Uiso   1.00
H30    H     0.47650   0.72200   0.88020   0.01267  Uiso   1.00
H31    H     0.43160   0.70590   0.00780   0.01267  Uiso   1.00
H32    H     0.60740   0.73210   0.99620   0.01267  Uiso   1.00
H33    H     0.51100   0.84310   0.96800   0.01267  Uiso   1.00
H34    H     0.43930   0.83250   0.90460   0.01267  Uiso   1.00
H35    H     0.66410   0.93380   0.83550   0.01267  Uiso   1.00
H36    H     0.75510   0.87850   0.88820   0.01267  Uiso   1.00
H37    H     0.79890   0.88430   0.76770   0.01267  Uiso   1.00
H38    H     0.62410   0.85700   0.77820   0.01267  Uiso   1.00
C7     C     0.70810   0.76260   0.84850   0.01267  Uiso   1.00
C8     C     0.55570   0.71210   0.90900   0.01267  Uiso   1.00
C9     C     0.52780   0.73880   0.96840   0.01267  Uiso   1.00
C10    C     0.52440   0.82640   0.92820   0.01267  Uiso   1.00
C11    C     0.67150   0.87910   0.86360   0.01267  Uiso   1.00
C12    C     0.70320   0.85120   0.80660   0.01267  Uiso   1.00
N3     N     0.74370   0.74200   0.78410   0.01267  Uiso   1.00
N4     N     0.54610   0.62300   0.94770   0.01267  Uiso   1.00
H39    H     0.57770   0.80850   0.50640   0.01267  Uiso   1.00
H40    H     0.57720   0.73720   0.47560   0.01267  Uiso   1.00
H41    H     0.40750   0.76050   0.50100   0.01267  Uiso   1.00
H42    H     0.44600   0.99390   0.41490   0.01267  Uiso   1.00
H43    H     0.44700   0.90620   0.48920   0.01267  Uiso   1.00
H44    H     0.60700   0.96690   0.42090   0.01267  Uiso   1.00
H45    H     0.66510   0.87630   0.36720   0.01267  Uiso   1.00
H46    H     0.35670   0.88020   0.39780   0.01267  Uiso   1.00
H47    H     0.43940   0.00780   0.28630   0.01267  Uiso   1.00
H48    H     0.60360   0.99620   0.27170   0.01267  Uiso   1.00
H49    H     0.47900   0.96800   0.18890   0.01267  Uiso   1.00
H50    H     0.34390   0.90460   0.26290   0.01267  Uiso   1.00
H51    H     0.49960   0.83550   0.23070   0.01267  Uiso   1.00
H52    H     0.64330   0.88820   0.23330   0.01267  Uiso   1.00
H53    H     0.56660   0.76770   0.34800   0.01267  Uiso   1.00
H54    H     0.40230   0.77820   0.36480   0.01267  Uiso   1.00
C13    C     0.55660   0.84850   0.38890   0.01267  Uiso   1.00
C14    C     0.46470   0.90900   0.37890   0.01267  Uiso   1.00
C15    C     0.49620   0.96840   0.29280   0.01267  Uiso   1.00
C16    C     0.45260   0.92820   0.24540   0.01267  Uiso   1.00
C17    C     0.53510   0.86360   0.25730   0.01267  Uiso   1.00
C18    C     0.50980   0.80660   0.34220   0.01267  Uiso   1.00
N5     N     0.52780   0.78410   0.47390   0.01267  Uiso   1.00
N6     N     0.49380   0.94770   0.42930   0.01267  Uiso   1.00
H55    H     0.91590   0.49360   0.31490   0.01267  Uiso   1.00
H56    H     0.94720   0.52440   0.21280   0.01267  Uiso   1.00
H57    H     0.09150   0.49900   0.26150   0.01267  Uiso   1.00
H58    H     0.13910   0.58510   0.40880   0.01267  Uiso   1.00
H59    H     0.06380   0.51080   0.39540   0.01267  Uiso   1.00
H60    H     0.97210   0.57910   0.38780   0.01267  Uiso   1.00
H61    H     0.96770   0.63280   0.24350   0.01267  Uiso   1.00
H62    H     0.24550   0.60220   0.27800   0.01267  Uiso   1.00
H63    H     0.27430   0.71370   0.29410   0.01267  Uiso   1.00
H64    H     0.12470   0.72830   0.26790   0.01267  Uiso   1.00
H65    H     0.33210   0.81110   0.15690   0.01267  Uiso   1.00
H66    H     0.39320   0.73710   0.16750   0.01267  Uiso   1.00
H67    H     0.26970   0.76930   0.06620   0.01267  Uiso   1.00
H68    H     0.12340   0.76670   0.12150   0.01267  Uiso   1.00
H69    H     0.08540   0.65200   0.11570   0.01267  Uiso   1.00
H70    H     0.23290   0.63520   0.14300   0.01267  Uiso   1.00
C19    C     0.05450   0.61110   0.23740   0.01267  Uiso   1.00
C20    C     0.15640   0.62110   0.28790   0.01267  Uiso   1.00
C21    C     0.21100   0.70720   0.26120   0.01267  Uiso   1.00
C22    C     0.30200   0.75460   0.17360   0.01267  Uiso   1.00
C23    C     0.20760   0.74270   0.12090   0.01267  Uiso   1.00
C24    C     0.14800   0.65780   0.14880   0.01267  Uiso   1.00
N7     N     0.99830   0.52610   0.25800   0.01267  Uiso   1.00
N8     N     0.07690   0.57070   0.37700   0.01267  Uiso   1.00
H71    H     0.23080   0.31490   0.19150   0.01267  Uiso   1.00
H72    H     0.16000   0.21280   0.26280   0.01267  Uiso   1.00
H73    H     0.35300   0.26150   0.23950   0.01267  Uiso   1.00
H74    H     0.54790   0.40880   0.00610   0.01267  Uiso   1.00
H75    H     0.45920   0.39540   0.09380   0.01267  Uiso   1.00
H76    H     0.35990   0.38780   0.03310   0.01267  Uiso   1.00
H77    H     0.21120   0.24350   0.12370   0.01267  Uiso   1.00
H78    H     0.52350   0.27800   0.11980   0.01267  Uiso   1.00
H79    H     0.56840   0.29410   0.99220   0.01267  Uiso   1.00
H80    H     0.39260   0.26790   0.00380   0.01267  Uiso   1.00
H81    H     0.48900   0.15690   0.03200   0.01267  Uiso   1.00
H82    H     0.56070   0.16750   0.09540   0.01267  Uiso   1.00
H83    H     0.33590   0.06620   0.16450   0.01267  Uiso   1.00
H84    H     0.24490   0.12150   0.11180   0.01267  Uiso   1.00
H85    H     0.20110   0.11570   0.23230   0.01267  Uiso   1.00
H86    H     0.37590   0.14300   0.22180   0.01267  Uiso   1.00
C25    C     0.29190   0.23740   0.15150   0.01267  Uiso   1.00
C26    C     0.44430   0.28790   0.09100   0.01267  Uiso   1.00
C27    C     0.47220   0.26120   0.03160   0.01267  Uiso   1.00
C28    C     0.47560   0.17360   0.07180   0.01267  Uiso   1.00
C29    C     0.32850   0.12090   0.13640   0.01267  Uiso   1.00
C30    C     0.29680   0.14880   0.19340   0.01267  Uiso   1.00
N9     N     0.25630   0.25800   0.21590   0.01267  Uiso   1.00
N10    N     0.45390   0.37700   0.05230   0.01267  Uiso   1.00
H87    H     0.42230   0.19150   0.49360   0.01267  Uiso   1.00
H88    H     0.42280   0.26280   0.52440   0.01267  Uiso   1.00
H89    H     0.59250   0.23950   0.49900   0.01267  Uiso   1.00
H90    H     0.55400   0.00610   0.58510   0.01267  Uiso   1.00
H91    H     0.55300   0.09380   0.51080   0.01267  Uiso   1.00
H92    H     0.39300   0.03310   0.57910   0.01267  Uiso   1.00
H93    H     0.33490   0.12370   0.63280   0.01267  Uiso   1.00
H94    H     0.64330   0.11980   0.60220   0.01267  Uiso   1.00
H95    H     0.56060   0.99220   0.71370   0.01267  Uiso   1.00
H96    H     0.39640   0.00380   0.72830   0.01267  Uiso   1.00
H97    H     0.52100   0.03200   0.81110   0.01267  Uiso   1.00
H98    H     0.65610   0.09540   0.73710   0.01267  Uiso   1.00
H99    H     0.50040   0.16450   0.76930   0.01267  Uiso   1.00
H100   H     0.35670   0.11180   0.76670   0.01267  Uiso   1.00
H101   H     0.43340   0.23230   0.65200   0.01267  Uiso   1.00
H102   H     0.59770   0.22180   0.63520   0.01267  Uiso   1.00
C31    C     0.44340   0.15150   0.61110   0.01267  Uiso   1.00
C32    C     0.53530   0.09100   0.62110   0.01267  Uiso   1.00
C33    C     0.50380   0.03160   0.70720   0.01267  Uiso   1.00
C34    C     0.54740   0.07180   0.75460   0.01267  Uiso   1.00
C35    C     0.46490   0.13640   0.74270   0.01267  Uiso   1.00
C36    C     0.49020   0.19340   0.65780   0.01267  Uiso   1.00
N11    N     0.47220   0.21590   0.52610   0.01267  Uiso   1.00
N12    N     0.50620   0.05230   0.57070   0.01267  Uiso   1.00
