data_CESYEF01_clean
_audit_creation_date              2014-07-02
_audit_creation_method            'Materials Studio'
_symmetry_space_group_name_H-M    'P1'
_symmetry_Int_Tables_number       1
_symmetry_cell_setting            triclinic
loop_
_symmetry_equiv_pos_as_xyz
  x,y,z
_cell_length_a                    3.6519
_cell_length_b                    12.1512
_cell_length_c                    15.0700
_cell_angle_alpha                 90.0000
_cell_angle_beta                  90.9820
_cell_angle_gamma                 90.0000
loop_
_atom_site_label
_atom_site_type_symbol
_atom_site_fract_x
_atom_site_fract_y
_atom_site_fract_z
_atom_site_U_iso_or_equiv
_atom_site_adp_type
_atom_site_occupancy
Ag1    Ag    0.39560   0.42607   0.92452   0.01267  Uiso   1.00
Ag2    Ag    0.60440   0.92607   0.57548   0.01267  Uiso   1.00
Ag3    Ag    0.60440   0.57393   0.07548   0.01267  Uiso   1.00
Ag4    Ag    0.39560   0.07393   0.42452   0.01267  Uiso   1.00
H1     H     0.07020   0.59360   0.74450   0.01267  Uiso   1.00
H2     H     0.30500   0.69270   0.62920   0.01267  Uiso   1.00
H3     H     0.41020   0.95440   0.77820   0.01267  Uiso   1.00
H4     H     0.17310   0.86400   0.89840   0.01267  Uiso   1.00
H5     H     0.92980   0.09360   0.75550   0.01267  Uiso   1.00
H6     H     0.69500   0.19270   0.87080   0.01267  Uiso   1.00
H7     H     0.58980   0.45440   0.72180   0.01267  Uiso   1.00
H8     H     0.82690   0.36400   0.60160   0.01267  Uiso   1.00
H9     H     0.92980   0.40640   0.25550   0.01267  Uiso   1.00
H10    H     0.69500   0.30730   0.37080   0.01267  Uiso   1.00
H11    H     0.58980   0.04560   0.22180   0.01267  Uiso   1.00
H12    H     0.82690   0.13600   0.10160   0.01267  Uiso   1.00
H13    H     0.07020   0.90640   0.24450   0.01267  Uiso   1.00
H14    H     0.30500   0.80730   0.12920   0.01267  Uiso   1.00
H15    H     0.41020   0.54560   0.27820   0.01267  Uiso   1.00
H16    H     0.17310   0.63600   0.39840   0.01267  Uiso   1.00
C1     C     0.93100   0.65910   0.91140   0.01267  Uiso   1.00
C2     C     0.09500   0.71760   0.83540   0.01267  Uiso   1.00
C3     C     0.13900   0.66830   0.75320   0.01267  Uiso   1.00
C4     C     0.28000   0.72760   0.68520   0.01267  Uiso   1.00
C5     C     0.34000   0.87950   0.77190   0.01267  Uiso   1.00
C6     C     0.19900   0.82650   0.84360   0.01267  Uiso   1.00
C7     C     0.06900   0.15910   0.58860   0.01267  Uiso   1.00
C8     C     0.90500   0.21760   0.66460   0.01267  Uiso   1.00
C9     C     0.86100   0.16830   0.74680   0.01267  Uiso   1.00
C10    C     0.72000   0.22760   0.81480   0.01267  Uiso   1.00
C11    C     0.66000   0.37950   0.72810   0.01267  Uiso   1.00
C12    C     0.80100   0.32650   0.65640   0.01267  Uiso   1.00
C13    C     0.06900   0.34090   0.08860   0.01267  Uiso   1.00
C14    C     0.90500   0.28240   0.16460   0.01267  Uiso   1.00
C15    C     0.86100   0.33170   0.24680   0.01267  Uiso   1.00
C16    C     0.72000   0.27240   0.31480   0.01267  Uiso   1.00
C17    C     0.66000   0.12050   0.22810   0.01267  Uiso   1.00
C18    C     0.80100   0.17350   0.15640   0.01267  Uiso   1.00
C19    C     0.93100   0.84090   0.41140   0.01267  Uiso   1.00
C20    C     0.09500   0.78240   0.33540   0.01267  Uiso   1.00
C21    C     0.13900   0.83170   0.25320   0.01267  Uiso   1.00
C22    C     0.28000   0.77240   0.18520   0.01267  Uiso   1.00
C23    C     0.34000   0.62050   0.27190   0.01267  Uiso   1.00
C24    C     0.19900   0.67350   0.34360   0.01267  Uiso   1.00
N1     N     0.38300   0.83070   0.69310   0.01267  Uiso   1.00
N2     N     0.61700   0.33070   0.80690   0.01267  Uiso   1.00
N3     N     0.61700   0.16930   0.30690   0.01267  Uiso   1.00
N4     N     0.38300   0.66930   0.19310   0.01267  Uiso   1.00
O1     O     0.88400   0.55380   0.89850   0.01267  Uiso   1.00
O2     O     0.83100   0.71110   0.97740   0.01267  Uiso   1.00
O3     O     0.11600   0.05380   0.60150   0.01267  Uiso   1.00
O4     O     0.16900   0.21110   0.52260   0.01267  Uiso   1.00
O5     O     0.11600   0.44620   0.10150   0.01267  Uiso   1.00
O6     O     0.16900   0.28890   0.02260   0.01267  Uiso   1.00
O7     O     0.88400   0.94620   0.39850   0.01267  Uiso   1.00
O8     O     0.83100   0.78890   0.47740   0.01267  Uiso   1.00
