data_CETFUD_clean
_audit_creation_date              2014-07-02
_audit_creation_method            'Materials Studio'
_symmetry_space_group_name_H-M    'P1'
_symmetry_Int_Tables_number       1
_symmetry_cell_setting            triclinic
loop_
_symmetry_equiv_pos_as_xyz
  x,y,z
_cell_length_a                    7.7447
_cell_length_b                    10.1935
_cell_length_c                    12.1464
_cell_angle_alpha                 80.7510
_cell_angle_beta                  80.2870
_cell_angle_gamma                 82.8180
loop_
_atom_site_label
_atom_site_type_symbol
_atom_site_fract_x
_atom_site_fract_y
_atom_site_fract_z
_atom_site_U_iso_or_equiv
_atom_site_adp_type
_atom_site_occupancy
Pr1    Pr    0.73908   0.00999   0.55898   0.01267  Uiso   1.00
Pr2    Pr    0.26092   0.99001   0.44102   0.01267  Uiso   1.00
H1     H     0.13560   0.58510   0.45530   0.01267  Uiso   1.00
H2     H     0.07910   0.48280   0.38770   0.01267  Uiso   1.00
H3     H     0.80870   0.77660   0.23860   0.01267  Uiso   1.00
H4     H     0.99870   0.70870   0.24990   0.01267  Uiso   1.00
H5     H     0.95630   0.84180   0.88400   0.01267  Uiso   1.00
H6     H     0.15710   0.81600   0.89400   0.01267  Uiso   1.00
H7     H     0.89080   0.68990   0.04650   0.01267  Uiso   1.00
H8     H     0.09140   0.65760   0.05550   0.01267  Uiso   1.00
H9     H     0.90760   0.91230   0.07900   0.01267  Uiso   1.00
H10    H     0.10440   0.87230   0.09620   0.01267  Uiso   1.00
H11    H     0.46040   0.44880   0.42370   0.01267  Uiso   1.00
H12    H     0.37480   0.35800   0.35930   0.01267  Uiso   1.00
H13    H     0.24520   0.41450   0.58160   0.01267  Uiso   1.00
H14    H     0.16860   0.30760   0.52940   0.01267  Uiso   1.00
H15    H     0.15560   0.59300   0.86170   0.01267  Uiso   1.00
H16    H     0.95740   0.62440   0.84570   0.01267  Uiso   1.00
H17    H     0.16130   0.63000   0.67350   0.01267  Uiso   1.00
H18    H     0.22470   0.75870   0.70210   0.01267  Uiso   1.00
H19    H     0.86440   0.41490   0.54470   0.01267  Uiso   1.00
H20    H     0.92090   0.51720   0.61230   0.01267  Uiso   1.00
H21    H     0.19130   0.22340   0.76140   0.01267  Uiso   1.00
H22    H     0.00130   0.29130   0.75010   0.01267  Uiso   1.00
H23    H     0.04370   0.15820   0.11600   0.01267  Uiso   1.00
H24    H     0.84290   0.18400   0.10600   0.01267  Uiso   1.00
H25    H     0.10920   0.31010   0.95350   0.01267  Uiso   1.00
H26    H     0.90860   0.34240   0.94450   0.01267  Uiso   1.00
H27    H     0.09240   0.08770   0.92100   0.01267  Uiso   1.00
H28    H     0.89560   0.12770   0.90380   0.01267  Uiso   1.00
H29    H     0.53960   0.55120   0.57630   0.01267  Uiso   1.00
H30    H     0.62520   0.64200   0.64070   0.01267  Uiso   1.00
H31    H     0.75480   0.58550   0.41840   0.01267  Uiso   1.00
H32    H     0.83140   0.69240   0.47060   0.01267  Uiso   1.00
H33    H     0.84440   0.40700   0.13830   0.01267  Uiso   1.00
H34    H     0.04260   0.37560   0.15430   0.01267  Uiso   1.00
H35    H     0.83870   0.37000   0.32650   0.01267  Uiso   1.00
H36    H     0.77530   0.24130   0.29790   0.01267  Uiso   1.00
C1     C     0.50680   0.24990   0.48190   0.01267  Uiso   1.00
C2     C     0.95070   0.88850   0.30710   0.01267  Uiso   1.00
C3     C     0.09120   0.49880   0.46250   0.01267  Uiso   1.00
C4     C     0.93150   0.79300   0.22840   0.01267  Uiso   1.00
C5     C     0.04810   0.77440   0.90750   0.01267  Uiso   1.00
C6     C     0.00260   0.72780   0.03260   0.01267  Uiso   1.00
C7     C     0.99010   0.83910   0.10530   0.01267  Uiso   1.00
C8     C     0.39710   0.37040   0.43290   0.01267  Uiso   1.00
C9     C     0.22160   0.39130   0.51160   0.01267  Uiso   1.00
C10    C     0.06850   0.66270   0.83550   0.01267  Uiso   1.00
C11    C     0.12380   0.70830   0.71080   0.01267  Uiso   1.00
C12    C     0.98250   0.79360   0.65160   0.01267  Uiso   1.00
C13    C     0.49320   0.75010   0.51810   0.01267  Uiso   1.00
C14    C     0.04930   0.11150   0.69290   0.01267  Uiso   1.00
C15    C     0.90880   0.50120   0.53750   0.01267  Uiso   1.00
C16    C     0.06850   0.20700   0.77160   0.01267  Uiso   1.00
C17    C     0.95190   0.22560   0.09250   0.01267  Uiso   1.00
C18    C     0.99740   0.27220   0.96740   0.01267  Uiso   1.00
C19    C     0.00990   0.16090   0.89470   0.01267  Uiso   1.00
C20    C     0.60290   0.62960   0.56710   0.01267  Uiso   1.00
C21    C     0.77840   0.60870   0.48840   0.01267  Uiso   1.00
C22    C     0.93150   0.33730   0.16450   0.01267  Uiso   1.00
C23    C     0.87620   0.29170   0.28920   0.01267  Uiso   1.00
C24    C     0.01750   0.20640   0.34840   0.01267  Uiso   1.00
O1     O     0.81150   0.93760   0.36340   0.01267  Uiso   1.00
O2     O     0.61280   0.26030   0.54520   0.01267  Uiso   1.00
O3     O     0.48800   0.13510   0.45800   0.01267  Uiso   1.00
O4     O     0.82370   0.79870   0.69560   0.01267  Uiso   1.00
O5     O     0.10310   0.91360   0.31210   0.01267  Uiso   1.00
O6     O     0.02910   0.85930   0.55440   0.01267  Uiso   1.00
O7     O     0.18850   0.06240   0.63660   0.01267  Uiso   1.00
O8     O     0.38720   0.73970   0.45480   0.01267  Uiso   1.00
O9     O     0.51200   0.86490   0.54200   0.01267  Uiso   1.00
O10    O     0.17630   0.20130   0.30440   0.01267  Uiso   1.00
O11    O     0.89690   0.08640   0.68790   0.01267  Uiso   1.00
O12    O     0.97090   0.14070   0.44560   0.01267  Uiso   1.00
