data_CETHEQ_clean
_audit_creation_date              2014-07-02
_audit_creation_method            'Materials Studio'
_symmetry_space_group_name_H-M    'P1'
_symmetry_Int_Tables_number       1
_symmetry_cell_setting            triclinic
loop_
_symmetry_equiv_pos_as_xyz
  x,y,z
_cell_length_a                    10.8608
_cell_length_b                    14.8322
_cell_length_c                    14.8322
_cell_angle_alpha                 65.7552
_cell_angle_beta                  75.8724
_cell_angle_gamma                 104.1280
loop_
_atom_site_label
_atom_site_type_symbol
_atom_site_fract_x
_atom_site_fract_y
_atom_site_fract_z
_atom_site_U_iso_or_equiv
_atom_site_adp_type
_atom_site_occupancy
Cu1    Cu    0.03061   0.59340   0.52113   0.01267  Uiso   1.00
Cu2    Cu    0.55174   0.52113   0.88547   0.01267  Uiso   1.00
Cu3    Cu    0.43721   0.88547   0.59340   0.01267  Uiso   1.00
Cu4    Cu    0.55174   0.11453   0.47887   0.01267  Uiso   1.00
Cu5    Cu    0.43721   0.40660   0.11453   0.01267  Uiso   1.00
Cu6    Cu    0.03061   0.47887   0.40660   0.01267  Uiso   1.00
Cu7    Cu    0.32991   0.59450   0.40550   0.01267  Uiso   1.00
Cu8    Cu    0.73541   0.40550  -0.00000   0.01267  Uiso   1.00
Cu9    Cu    0.73541   1.00000   0.59450   0.01267  Uiso   1.00
H1     H     0.57490   0.71520   0.42810   0.01267  Uiso   1.00
H2     H     0.58720   0.74080   0.52120   0.01267  Uiso   1.00
H3     H     0.61130   0.83520   0.40680   0.01267  Uiso   1.00
H4     H     0.01940   0.73570   0.61900   0.01267  Uiso   1.00
H5     H     0.13170   0.85280   0.57350   0.01267  Uiso   1.00
H6     H     0.10250   0.75700   0.68860   0.01267  Uiso   1.00
H7     H     0.00300   0.42810   0.85670   0.01267  Uiso   1.00
H8     H     0.10840   0.52120   0.73800   0.01267  Uiso   1.00
H9     H     0.01810   0.40680   0.75800   0.01267  Uiso   1.00
H10    H     0.63840   0.61900   0.64530   0.01267  Uiso   1.00
H11    H     0.70520   0.57350   0.57370   0.01267  Uiso   1.00
H12    H     0.79110   0.68860   0.55440   0.01267  Uiso   1.00
H13    H     0.85970   0.85670   0.71520   0.01267  Uiso   1.00
H14    H     0.84640   0.73800   0.74080   0.01267  Uiso   1.00
H15    H     0.77610   0.75800   0.83520   0.01267  Uiso   1.00
H16    H     0.28370   0.64530   0.73570   0.01267  Uiso   1.00
H17    H     0.27890   0.57370   0.85280   0.01267  Uiso   1.00
H18    H     0.34550   0.55440   0.75700   0.01267  Uiso   1.00
H19    H     0.00300   0.14330   0.57190   0.01267  Uiso   1.00
H20    H     0.10840   0.26200   0.47880   0.01267  Uiso   1.00
H21    H     0.01810   0.24200   0.59320   0.01267  Uiso   1.00
H22    H     0.63840   0.35470   0.38100   0.01267  Uiso   1.00
H23    H     0.70520   0.42630   0.42650   0.01267  Uiso   1.00
H24    H     0.79110   0.44560   0.31140   0.01267  Uiso   1.00
H25    H     0.85970   0.28480   0.14330   0.01267  Uiso   1.00
H26    H     0.84640   0.25920   0.26200   0.01267  Uiso   1.00
H27    H     0.77610   0.16480   0.24200   0.01267  Uiso   1.00
H28    H     0.28370   0.26430   0.35470   0.01267  Uiso   1.00
H29    H     0.27890   0.14720   0.42630   0.01267  Uiso   1.00
H30    H     0.34550   0.24300   0.44560   0.01267  Uiso   1.00
H31    H     0.57490   0.57190   0.28480   0.01267  Uiso   1.00
H32    H     0.58720   0.47880   0.25920   0.01267  Uiso   1.00
H33    H     0.61130   0.59320   0.16480   0.01267  Uiso   1.00
H34    H     0.01940   0.38100   0.26430   0.01267  Uiso   1.00
H35    H     0.13170   0.42650   0.14720   0.01267  Uiso   1.00
H36    H     0.10250   0.31140   0.24300   0.01267  Uiso   1.00
H37    H     0.19040   0.66860   0.33140   0.01267  Uiso   1.00
H38    H     0.52180   0.33140  -0.00000   0.01267  Uiso   1.00
H39    H     0.52180   0.00000   0.66860   0.01267  Uiso   1.00
C1     C     0.41250   0.73890   0.49800   0.01267  Uiso   1.00
C2     C     0.55840   0.75920   0.46040   0.01267  Uiso   1.00
C3     C     0.21890   0.74680   0.56350   0.01267  Uiso   1.00
C4     C     0.10830   0.77550   0.61590   0.01267  Uiso   1.00
C5     C     0.91050   0.49800   0.76310   0.01267  Uiso   1.00
C6     C     0.01880   0.46040   0.78040   0.01267  Uiso   1.00
C7     C     0.78240   0.56350   0.68970   0.01267  Uiso   1.00
C8     C     0.72420   0.61590   0.60860   0.01267  Uiso   1.00
C9     C     0.67360   0.76310   0.73890   0.01267  Uiso   1.00
C10    C     0.79920   0.78040   0.75920   0.01267  Uiso   1.00
C11    C     0.47210   0.68970   0.74680   0.01267  Uiso   1.00
C12    C     0.33280   0.60860   0.77550   0.01267  Uiso   1.00
C13    C     0.91050   0.23690   0.50200   0.01267  Uiso   1.00
C14    C     0.01880   0.21960   0.53960   0.01267  Uiso   1.00
C15    C     0.78240   0.31030   0.43650   0.01267  Uiso   1.00
C16    C     0.72420   0.39140   0.38410   0.01267  Uiso   1.00
C17    C     0.67360   0.26110   0.23690   0.01267  Uiso   1.00
C18    C     0.79920   0.24080   0.21960   0.01267  Uiso   1.00
C19    C     0.47210   0.25320   0.31030   0.01267  Uiso   1.00
C20    C     0.33280   0.22450   0.39140   0.01267  Uiso   1.00
C21    C     0.41250   0.50200   0.26110   0.01267  Uiso   1.00
C22    C     0.55840   0.53960   0.24080   0.01267  Uiso   1.00
C23    C     0.21890   0.43650   0.25320   0.01267  Uiso   1.00
C24    C     0.10830   0.38410   0.22450   0.01267  Uiso   1.00
N1     N     0.31900   0.67390   0.48610   0.01267  Uiso   1.00
N2     N     0.19150   0.67770   0.52950   0.01267  Uiso   1.00
N3     N     0.35240   0.78680   0.54740   0.01267  Uiso   1.00
N4     N     0.80510   0.48610   0.84000   0.01267  Uiso   1.00
N5     N     0.72100   0.52950   0.79280   0.01267  Uiso   1.00
N6     N     0.89980   0.54740   0.66580   0.01267  Uiso   1.00
N7     N     0.64510   0.84000   0.67390   0.01267  Uiso   1.00
N8     N     0.51380   0.79280   0.67770   0.01267  Uiso   1.00
N9     N     0.56560   0.66580   0.78680   0.01267  Uiso   1.00
N10    N     0.80510   0.16000   0.51390   0.01267  Uiso   1.00
N11    N     0.72100   0.20720   0.47050   0.01267  Uiso   1.00
N12    N     0.89980   0.33420   0.45260   0.01267  Uiso   1.00
N13    N     0.64510   0.32610   0.16000   0.01267  Uiso   1.00
N14    N     0.51380   0.32230   0.20720   0.01267  Uiso   1.00
N15    N     0.56560   0.21320   0.33420   0.01267  Uiso   1.00
N16    N     0.31900   0.51390   0.32610   0.01267  Uiso   1.00
N17    N     0.19150   0.47050   0.32230   0.01267  Uiso   1.00
N18    N     0.35240   0.45260   0.21320   0.01267  Uiso   1.00
O1     O     0.16200   0.61250   0.38750   0.01267  Uiso   1.00
O2     O     0.89750   0.51440   0.48560   0.01267  Uiso   1.00
O3     O     0.54950   0.38750   0.00000   0.01267  Uiso   1.00
O4     O     0.38310   0.48560  -0.00000   0.01267  Uiso   1.00
O5     O     0.54950   1.00000   0.61250   0.01267  Uiso   1.00
O6     O     0.38310   0.00000   0.51440   0.01267  Uiso   1.00
