data_image0
_cell_length_a       20.1077
_cell_length_b       20.1077
_cell_length_c       20.234
_cell_angle_alpha    90
_cell_angle_beta     90
_cell_angle_gamma    120

_symmetry_space_group_name_H-M    "P 1"
_symmetry_int_tables_number       1

loop_
  _symmetry_equiv_pos_as_xyz
  'x, y, z'

loop_
  _atom_site_label
  _atom_site_occupancy
  _atom_site_fract_x
  _atom_site_fract_y
  _atom_site_fract_z
  _atom_site_thermal_displace_type
  _atom_site_B_iso_or_equiv
  _atom_site_type_symbol
  N1       1.0000 0.28030  0.55563  0.09932  Biso   1.000  N
  N2       1.0000 0.27300  0.55942  0.03213  Biso   1.000  N
  N3       1.0000 0.23250  0.44030  0.05854  Biso   1.000  N
  N4       1.0000 0.17950  0.32090  0.10817  Biso   1.000  N
  N5       1.0000 0.12680  0.20540  0.16440  Biso   1.000  N
  N6       1.0000 0.10700  0.18190  0.26980  Biso   1.000  N
  N7       1.0000 0.06720  0.11350  0.23558  Biso   1.000  N
  C1       1.0000 0.25560  0.48400  0.11440  Biso   1.000  C
  H1       1.0000 0.25400  0.46550  0.15690  Biso   1.000  H
  C2       1.0000 0.24380  0.49010  0.00890  Biso   1.000  C
  H2       1.0000 0.23240  0.47670  0.96470  Biso   1.000  H
  C3       1.0000 0.20480  0.35990  0.05280  Biso   1.000  C
  C4       1.0000 0.20620  0.32890  0.99220  Biso   1.000  C
  H3       1.0000 0.22440  0.35920  0.95450  Biso   1.000  H
  C5       1.0000 0.17950  0.25100  0.99000  Biso   1.000  C
  H4       1.0000 0.17880  0.22750  0.95030  Biso   1.000  H
  C6       1.0000 0.15350  0.20800  0.04770  Biso   1.000  C
  H5       1.0000 0.13630  0.15560  0.04800  Biso   1.000  H
  C7       1.0000 0.15450  0.24620  0.10400  Biso   1.000  C
  C8       1.0000 0.08110  0.12930  0.17350  Biso   1.000  C
  H6       1.0000 0.06210  0.09310  0.13960  Biso   1.000  H
  C9       1.0000 0.14080  0.23510  0.22540  Biso   1.000  C
  H7       1.0000 0.17080  0.28710  0.23480  Biso   1.000  H
  N8       1.0000 0.94697  0.88896  0.43265  Biso   1.000  N
  N9       1.0000 0.93967  0.89275  0.36546  Biso   1.000  N
  N10      1.0000 0.89917  0.77363  0.39187  Biso   1.000  N
  N11      1.0000 0.84617  0.65423  0.44150  Biso   1.000  N
  N12      1.0000 0.79347  0.53873  0.49773  Biso   1.000  N
  N13      1.0000 0.77367  0.51523  0.60313  Biso   1.000  N
  N14      1.0000 0.73387  0.44683  0.56891  Biso   1.000  N
  C10      1.0000 0.92227  0.81733  0.44773  Biso   1.000  C
  H8       1.0000 0.92067  0.79883  0.49023  Biso   1.000  H
  C11      1.0000 0.91047  0.82343  0.34223  Biso   1.000  C
  H9       1.0000 0.89907  0.81003  0.29803  Biso   1.000  H
  C12      1.0000 0.87147  0.69323  0.38613  Biso   1.000  C
  C13      1.0000 0.87287  0.66223  0.32553  Biso   1.000  C
  H10      1.0000 0.89107  0.69253  0.28783  Biso   1.000  H
  C14      1.0000 0.84617  0.58433  0.32333  Biso   1.000  C
  H11      1.0000 0.84547  0.56083  0.28363  Biso   1.000  H
  C15      1.0000 0.82017  0.54133  0.38103  Biso   1.000  C
  H12      1.0000 0.80297  0.48893  0.38133  Biso   1.000  H
  C16      1.0000 0.82117  0.57953  0.43733  Biso   1.000  C
  C17      1.0000 0.74777  0.46263  0.50683  Biso   1.000  C
  H13      1.0000 0.72877  0.42643  0.47293  Biso   1.000  H
  C18      1.0000 0.80747  0.56843  0.55873  Biso   1.000  C
  H14      1.0000 0.83747  0.62043  0.56813  Biso   1.000  H
  N15      1.0000 0.61363  0.22230  0.76599  Biso   1.000  N
  N16      1.0000 0.60633  0.22609  0.69880  Biso   1.000  N
  N17      1.0000 0.56583  0.10697  0.72521  Biso   1.000  N
  N18      1.0000 0.51283  0.98757  0.77484  Biso   1.000  N
  N19      1.0000 0.46013  0.87207  0.83107  Biso   1.000  N
  N20      1.0000 0.44033  0.84857  0.93647  Biso   1.000  N
  N21      1.0000 0.40053  0.78017  0.90225  Biso   1.000  N
  C19      1.0000 0.58893  0.15067  0.78107  Biso   1.000  C
  H15      1.0000 0.58733  0.13217  0.82357  Biso   1.000  H
  C20      1.0000 0.57713  0.15677  0.67557  Biso   1.000  C
  H16      1.0000 0.56573  0.14337  0.63137  Biso   1.000  H
  C21      1.0000 0.53813  0.02657  0.71947  Biso   1.000  C
  C22      1.0000 0.53953  0.99557  0.65887  Biso   1.000  C
  H17      1.0000 0.55773  0.02587  0.62117  Biso   1.000  H
  C23      1.0000 0.51283  0.91767  0.65667  Biso   1.000  C
  H18      1.0000 0.51213  0.89417  0.61697  Biso   1.000  H
  C24      1.0000 0.48683  0.87467  0.71437  Biso   1.000  C
  H19      1.0000 0.46963  0.82227  0.71467  Biso   1.000  H
  C25      1.0000 0.48783  0.91287  0.77067  Biso   1.000  C
  C26      1.0000 0.41443  0.79597  0.84017  Biso   1.000  C
  H20      1.0000 0.39543  0.75977  0.80627  Biso   1.000  H
  C27      1.0000 0.47413  0.90177  0.89207  Biso   1.000  C
  H21      1.0000 0.50413  0.95377  0.90147  Biso   1.000  H
  N22      1.0000 0.44437  0.72467  0.09932  Biso   1.000  N
  N23      1.0000 0.44058  0.71358  0.03213  Biso   1.000  N
  N24      1.0000 0.55970  0.79220  0.05854  Biso   1.000  N
  N25      1.0000 0.67910  0.85860  0.10817  Biso   1.000  N
  N26      1.0000 0.79460  0.92140  0.16440  Biso   1.000  N
  N27      1.0000 0.81810  0.92510  0.26980  Biso   1.000  N
  N28      1.0000 0.88650  0.95370  0.23558  Biso   1.000  N
  C28      1.0000 0.51600  0.77160  0.11440  Biso   1.000  C
  H22      1.0000 0.53450  0.78850  0.15690  Biso   1.000  H
  C29      1.0000 0.50990  0.75370  0.00890  Biso   1.000  C
  H23      1.0000 0.52330  0.75570  0.96470  Biso   1.000  H
  C30      1.0000 0.64010  0.84490  0.05280  Biso   1.000  C
  C31      1.0000 0.67110  0.87730  0.99220  Biso   1.000  C
  H24      1.0000 0.64080  0.86520  0.95450  Biso   1.000  H
  C32      1.0000 0.74900  0.92850  0.99000  Biso   1.000  C
  H25      1.0000 0.77250  0.95130  0.95030  Biso   1.000  H
  C33      1.0000 0.79200  0.94550  0.04770  Biso   1.000  C
  H26      1.0000 0.84440  0.98070  0.04800  Biso   1.000  H
  C34      1.0000 0.75380  0.90830  0.10400  Biso   1.000  C
  C35      1.0000 0.87070  0.95180  0.17350  Biso   1.000  C
  H27      1.0000 0.90690  0.96900  0.13960  Biso   1.000  H
  C36      1.0000 0.76490  0.90570  0.22540  Biso   1.000  C
  H28      1.0000 0.71290  0.88370  0.23480  Biso   1.000  H
  N29      1.0000 0.11104  0.05800  0.43265  Biso   1.000  N
  N30      1.0000 0.10725  0.04691  0.36546  Biso   1.000  N
  N31      1.0000 0.22637  0.12553  0.39187  Biso   1.000  N
  N32      1.0000 0.34577  0.19193  0.44150  Biso   1.000  N
  N33      1.0000 0.46127  0.25473  0.49773  Biso   1.000  N
  N34      1.0000 0.48477  0.25843  0.60313  Biso   1.000  N
  N35      1.0000 0.55317  0.28703  0.56891  Biso   1.000  N
  C37      1.0000 0.18267  0.10493  0.44773  Biso   1.000  C
  H29      1.0000 0.20117  0.12183  0.49023  Biso   1.000  H
  C38      1.0000 0.17657  0.08703  0.34223  Biso   1.000  C
  H30      1.0000 0.18997  0.08903  0.29803  Biso   1.000  H
  C39      1.0000 0.30677  0.17823  0.38613  Biso   1.000  C
  C40      1.0000 0.33777  0.21063  0.32553  Biso   1.000  C
  H31      1.0000 0.30747  0.19853  0.28783  Biso   1.000  H
  C41      1.0000 0.41567  0.26183  0.32333  Biso   1.000  C
  H32      1.0000 0.43917  0.28463  0.28363  Biso   1.000  H
  C42      1.0000 0.45867  0.27883  0.38103  Biso   1.000  C
  H33      1.0000 0.51107  0.31403  0.38133  Biso   1.000  H
  C43      1.0000 0.42047  0.24163  0.43733  Biso   1.000  C
  C44      1.0000 0.53737  0.28513  0.50683  Biso   1.000  C
  H34      1.0000 0.57357  0.30233  0.47293  Biso   1.000  H
  C45      1.0000 0.43157  0.23903  0.55873  Biso   1.000  C
  H35      1.0000 0.37957  0.21703  0.56813  Biso   1.000  H
  N36      1.0000 0.77770  0.39134  0.76599  Biso   1.000  N
  N37      1.0000 0.77391  0.38025  0.69880  Biso   1.000  N
  N38      1.0000 0.89303  0.45887  0.72521  Biso   1.000  N
  N39      1.0000 0.01243  0.52527  0.77484  Biso   1.000  N
  N40      1.0000 0.12793  0.58807  0.83107  Biso   1.000  N
  N41      1.0000 0.15143  0.59177  0.93647  Biso   1.000  N
  N42      1.0000 0.21983  0.62037  0.90225  Biso   1.000  N
  C46      1.0000 0.84933  0.43827  0.78107  Biso   1.000  C
  H36      1.0000 0.86783  0.45517  0.82357  Biso   1.000  H
  C47      1.0000 0.84323  0.42037  0.67557  Biso   1.000  C
  H37      1.0000 0.85663  0.42237  0.63137  Biso   1.000  H
  C48      1.0000 0.97343  0.51157  0.71947  Biso   1.000  C
  C49      1.0000 0.00443  0.54397  0.65887  Biso   1.000  C
  H38      1.0000 0.97413  0.53187  0.62117  Biso   1.000  H
  C50      1.0000 0.08233  0.59517  0.65667  Biso   1.000  C
  H39      1.0000 0.10583  0.61797  0.61697  Biso   1.000  H
  C51      1.0000 0.12533  0.61217  0.71437  Biso   1.000  C
  H40      1.0000 0.17773  0.64737  0.71467  Biso   1.000  H
  C52      1.0000 0.08713  0.57497  0.77067  Biso   1.000  C
  C53      1.0000 0.20403  0.61847  0.84017  Biso   1.000  C
  H41      1.0000 0.24023  0.63567  0.80627  Biso   1.000  H
  C54      1.0000 0.09823  0.57237  0.89207  Biso   1.000  C
  H42      1.0000 0.04623  0.55037  0.90147  Biso   1.000  H
  N43      1.0000 0.27533  0.71970  0.09932  Biso   1.000  N
  N44      1.0000 0.28642  0.72700  0.03213  Biso   1.000  N
  N45      1.0000 0.20780  0.76750  0.05854  Biso   1.000  N
  N46      1.0000 0.14140  0.82050  0.10817  Biso   1.000  N
  N47      1.0000 0.07860  0.87320  0.16440  Biso   1.000  N
  N48      1.0000 0.07490  0.89300  0.26980  Biso   1.000  N
  N49      1.0000 0.04630  0.93280  0.23558  Biso   1.000  N
  C55      1.0000 0.22840  0.74440  0.11440  Biso   1.000  C
  H43      1.0000 0.21150  0.74600  0.15690  Biso   1.000  H
  C56      1.0000 0.24630  0.75620  0.00890  Biso   1.000  C
  H44      1.0000 0.24430  0.76760  0.96470  Biso   1.000  H
  C57      1.0000 0.15510  0.79520  0.05280  Biso   1.000  C
  C58      1.0000 0.12270  0.79380  0.99220  Biso   1.000  C
  H45      1.0000 0.13480  0.77560  0.95450  Biso   1.000  H
  C59      1.0000 0.07150  0.82050  0.99000  Biso   1.000  C
  H46      1.0000 0.04870  0.82120  0.95030  Biso   1.000  H
  C60      1.0000 0.05450  0.84650  0.04770  Biso   1.000  C
  H47      1.0000 0.01930  0.86370  0.04800  Biso   1.000  H
  C61      1.0000 0.09170  0.84550  0.10400  Biso   1.000  C
  C62      1.0000 0.04820  0.91890  0.17350  Biso   1.000  C
  H48      1.0000 0.03100  0.93790  0.13960  Biso   1.000  H
  C63      1.0000 0.09430  0.85920  0.22540  Biso   1.000  C
  H49      1.0000 0.11630  0.82920  0.23480  Biso   1.000  H
  N50      1.0000 0.94200  0.05303  0.43265  Biso   1.000  N
  N51      1.0000 0.95309  0.06033  0.36546  Biso   1.000  N
  N52      1.0000 0.87447  0.10083  0.39187  Biso   1.000  N
  N53      1.0000 0.80807  0.15383  0.44150  Biso   1.000  N
  N54      1.0000 0.74527  0.20653  0.49773  Biso   1.000  N
  N55      1.0000 0.74157  0.22633  0.60313  Biso   1.000  N
  N56      1.0000 0.71297  0.26613  0.56891  Biso   1.000  N
  C64      1.0000 0.89507  0.07773  0.44773  Biso   1.000  C
  H50      1.0000 0.87817  0.07933  0.49023  Biso   1.000  H
  C65      1.0000 0.91297  0.08953  0.34223  Biso   1.000  C
  H51      1.0000 0.91097  0.10093  0.29803  Biso   1.000  H
  C66      1.0000 0.82177  0.12853  0.38613  Biso   1.000  C
  C67      1.0000 0.78937  0.12713  0.32553  Biso   1.000  C
  H52      1.0000 0.80147  0.10893  0.28783  Biso   1.000  H
  C68      1.0000 0.73817  0.15383  0.32333  Biso   1.000  C
  H53      1.0000 0.71537  0.15453  0.28363  Biso   1.000  H
  C69      1.0000 0.72117  0.17983  0.38103  Biso   1.000  C
  H54      1.0000 0.68597  0.19703  0.38133  Biso   1.000  H
  C70      1.0000 0.75837  0.17883  0.43733  Biso   1.000  C
  C71      1.0000 0.71487  0.25223  0.50683  Biso   1.000  C
  H55      1.0000 0.69767  0.27123  0.47293  Biso   1.000  H
  C72      1.0000 0.76097  0.19253  0.55873  Biso   1.000  C
  H56      1.0000 0.78297  0.16253  0.56813  Biso   1.000  H
  N57      1.0000 0.60866  0.38637  0.76599  Biso   1.000  N
  N58      1.0000 0.61975  0.39367  0.69880  Biso   1.000  N
  N59      1.0000 0.54113  0.43417  0.72521  Biso   1.000  N
  N60      1.0000 0.47473  0.48717  0.77484  Biso   1.000  N
  N61      1.0000 0.41193  0.53987  0.83107  Biso   1.000  N
  N62      1.0000 0.40823  0.55967  0.93647  Biso   1.000  N
  N63      1.0000 0.37963  0.59947  0.90225  Biso   1.000  N
  C73      1.0000 0.56173  0.41107  0.78107  Biso   1.000  C
  H57      1.0000 0.54483  0.41267  0.82357  Biso   1.000  H
  C74      1.0000 0.57963  0.42287  0.67557  Biso   1.000  C
  H58      1.0000 0.57763  0.43427  0.63137  Biso   1.000  H
  C75      1.0000 0.48843  0.46187  0.71947  Biso   1.000  C
  C76      1.0000 0.45603  0.46047  0.65887  Biso   1.000  C
  H59      1.0000 0.46813  0.44227  0.62117  Biso   1.000  H
  C77      1.0000 0.40483  0.48717  0.65667  Biso   1.000  C
  H60      1.0000 0.38203  0.48787  0.61697  Biso   1.000  H
  C78      1.0000 0.38783  0.51317  0.71437  Biso   1.000  C
  H61      1.0000 0.35263  0.53037  0.71467  Biso   1.000  H
  C79      1.0000 0.42503  0.51217  0.77067  Biso   1.000  C
  C80      1.0000 0.38153  0.58557  0.84017  Biso   1.000  C
  H62      1.0000 0.36433  0.60457  0.80627  Biso   1.000  H
  C81      1.0000 0.42763  0.52587  0.89207  Biso   1.000  C
  H63      1.0000 0.44963  0.49587  0.90147  Biso   1.000  H
  N64      1.0000 0.71970  0.44437  0.90068  Biso   1.000  N
  N65      1.0000 0.72700  0.44058  0.96787  Biso   1.000  N
  N66      1.0000 0.76750  0.55970  0.94146  Biso   1.000  N
  N67      1.0000 0.82050  0.67910  0.89183  Biso   1.000  N
  N68      1.0000 0.87320  0.79460  0.83560  Biso   1.000  N
  N69      1.0000 0.89300  0.81810  0.73020  Biso   1.000  N
  N70      1.0000 0.93280  0.88650  0.76442  Biso   1.000  N
  C82      1.0000 0.74440  0.51600  0.88560  Biso   1.000  C
  H64      1.0000 0.74600  0.53450  0.84310  Biso   1.000  H
  C83      1.0000 0.75620  0.50990  0.99110  Biso   1.000  C
  H65      1.0000 0.76760  0.52330  0.03530  Biso   1.000  H
  C84      1.0000 0.79520  0.64010  0.94720  Biso   1.000  C
  C85      1.0000 0.79380  0.67110  0.00780  Biso   1.000  C
  H66      1.0000 0.77560  0.64080  0.04550  Biso   1.000  H
  C86      1.0000 0.82050  0.74900  0.01000  Biso   1.000  C
  H67      1.0000 0.82120  0.77250  0.04970  Biso   1.000  H
  C87      1.0000 0.84650  0.79200  0.95230  Biso   1.000  C
  H68      1.0000 0.86370  0.84440  0.95200  Biso   1.000  H
  C88      1.0000 0.84550  0.75380  0.89600  Biso   1.000  C
  C89      1.0000 0.91890  0.87070  0.82650  Biso   1.000  C
  H69      1.0000 0.93790  0.90690  0.86040  Biso   1.000  H
  C90      1.0000 0.85920  0.76490  0.77460  Biso   1.000  C
  H70      1.0000 0.82920  0.71290  0.76520  Biso   1.000  H
  N71      1.0000 0.38637  0.77770  0.23401  Biso   1.000  N
  N72      1.0000 0.39367  0.77391  0.30120  Biso   1.000  N
  N73      1.0000 0.43417  0.89303  0.27479  Biso   1.000  N
  N74      1.0000 0.48717  0.01243  0.22516  Biso   1.000  N
  N75      1.0000 0.53987  0.12793  0.16893  Biso   1.000  N
  N76      1.0000 0.55967  0.15143  0.06353  Biso   1.000  N
  N77      1.0000 0.59947  0.21983  0.09775  Biso   1.000  N
  C91      1.0000 0.41107  0.84933  0.21893  Biso   1.000  C
  H71      1.0000 0.41267  0.86783  0.17643  Biso   1.000  H
  C92      1.0000 0.42287  0.84323  0.32443  Biso   1.000  C
  H72      1.0000 0.43427  0.85663  0.36863  Biso   1.000  H
  C93      1.0000 0.46187  0.97343  0.28053  Biso   1.000  C
  C94      1.0000 0.46047  0.00443  0.34113  Biso   1.000  C
  H73      1.0000 0.44227  0.97413  0.37883  Biso   1.000  H
  C95      1.0000 0.48717  0.08233  0.34333  Biso   1.000  C
  H74      1.0000 0.48787  0.10583  0.38303  Biso   1.000  H
  C96      1.0000 0.51317  0.12533  0.28563  Biso   1.000  C
  H75      1.0000 0.53037  0.17773  0.28533  Biso   1.000  H
  C97      1.0000 0.51217  0.08713  0.22933  Biso   1.000  C
  C98      1.0000 0.58557  0.20403  0.15983  Biso   1.000  C
  H76      1.0000 0.60457  0.24023  0.19373  Biso   1.000  H
  C99      1.0000 0.52587  0.09823  0.10793  Biso   1.000  C
  H77      1.0000 0.49587  0.04623  0.09853  Biso   1.000  H
  N78      1.0000 0.05303  0.11104  0.56735  Biso   1.000  N
  N79      1.0000 0.06033  0.10725  0.63454  Biso   1.000  N
  N80      1.0000 0.10083  0.22637  0.60813  Biso   1.000  N
  N81      1.0000 0.15383  0.34577  0.55850  Biso   1.000  N
  N82      1.0000 0.20653  0.46127  0.50227  Biso   1.000  N
  N83      1.0000 0.22633  0.48477  0.39687  Biso   1.000  N
  N84      1.0000 0.26613  0.55317  0.43109  Biso   1.000  N
  C100     1.0000 0.07773  0.18267  0.55227  Biso   1.000  C
  H78      1.0000 0.07933  0.20117  0.50977  Biso   1.000  H
  C101     1.0000 0.08953  0.17657  0.65777  Biso   1.000  C
  H79      1.0000 0.10093  0.18997  0.70197  Biso   1.000  H
  C102     1.0000 0.12853  0.30677  0.61387  Biso   1.000  C
  C103     1.0000 0.12713  0.33777  0.67447  Biso   1.000  C
  H80      1.0000 0.10893  0.30747  0.71217  Biso   1.000  H
  C104     1.0000 0.15383  0.41567  0.67667  Biso   1.000  C
  H81      1.0000 0.15453  0.43917  0.71637  Biso   1.000  H
  C105     1.0000 0.17983  0.45867  0.61897  Biso   1.000  C
  H82      1.0000 0.19703  0.51107  0.61867  Biso   1.000  H
  C106     1.0000 0.17883  0.42047  0.56267  Biso   1.000  C
  C107     1.0000 0.25223  0.53737  0.49317  Biso   1.000  C
  H83      1.0000 0.27123  0.57357  0.52707  Biso   1.000  H
  C108     1.0000 0.19253  0.43157  0.44127  Biso   1.000  C
  H84      1.0000 0.16253  0.37957  0.43187  Biso   1.000  H
  N85      1.0000 0.55563  0.27533  0.90068  Biso   1.000  N
  N86      1.0000 0.55942  0.28642  0.96787  Biso   1.000  N
  N87      1.0000 0.44030  0.20780  0.94146  Biso   1.000  N
  N88      1.0000 0.32090  0.14140  0.89183  Biso   1.000  N
  N89      1.0000 0.20540  0.07860  0.83560  Biso   1.000  N
  N90      1.0000 0.18190  0.07490  0.73020  Biso   1.000  N
  N91      1.0000 0.11350  0.04630  0.76442  Biso   1.000  N
  C109     1.0000 0.48400  0.22840  0.88560  Biso   1.000  C
  H85      1.0000 0.46550  0.21150  0.84310  Biso   1.000  H
  C110     1.0000 0.49010  0.24630  0.99110  Biso   1.000  C
  H86      1.0000 0.47670  0.24430  0.03530  Biso   1.000  H
  C111     1.0000 0.35990  0.15510  0.94720  Biso   1.000  C
  C112     1.0000 0.32890  0.12270  0.00780  Biso   1.000  C
  H87      1.0000 0.35920  0.13480  0.04550  Biso   1.000  H
  C113     1.0000 0.25100  0.07150  0.01000  Biso   1.000  C
  H88      1.0000 0.22750  0.04870  0.04970  Biso   1.000  H
  C114     1.0000 0.20800  0.05450  0.95230  Biso   1.000  C
  H89      1.0000 0.15560  0.01930  0.95200  Biso   1.000  H
  C115     1.0000 0.24620  0.09170  0.89600  Biso   1.000  C
  C116     1.0000 0.12930  0.04820  0.82650  Biso   1.000  C
  H90      1.0000 0.09310  0.03100  0.86040  Biso   1.000  H
  C117     1.0000 0.23510  0.09430  0.77460  Biso   1.000  C
  H91      1.0000 0.28710  0.11630  0.76520  Biso   1.000  H
  N92      1.0000 0.22230  0.60866  0.23401  Biso   1.000  N
  N93      1.0000 0.22609  0.61975  0.30120  Biso   1.000  N
  N94      1.0000 0.10697  0.54113  0.27479  Biso   1.000  N
  N95      1.0000 0.98757  0.47473  0.22516  Biso   1.000  N
  N96      1.0000 0.87207  0.41193  0.16893  Biso   1.000  N
  N97      1.0000 0.84857  0.40823  0.06353  Biso   1.000  N
  N98      1.0000 0.78017  0.37963  0.09775  Biso   1.000  N
  C118     1.0000 0.15067  0.56173  0.21893  Biso   1.000  C
  H92      1.0000 0.13217  0.54483  0.17643  Biso   1.000  H
  C119     1.0000 0.15677  0.57963  0.32443  Biso   1.000  C
  H93      1.0000 0.14337  0.57763  0.36863  Biso   1.000  H
  C120     1.0000 0.02657  0.48843  0.28053  Biso   1.000  C
  C121     1.0000 0.99557  0.45603  0.34113  Biso   1.000  C
  H94      1.0000 0.02587  0.46813  0.37883  Biso   1.000  H
  C122     1.0000 0.91767  0.40483  0.34333  Biso   1.000  C
  H95      1.0000 0.89417  0.38203  0.38303  Biso   1.000  H
  C123     1.0000 0.87467  0.38783  0.28563  Biso   1.000  C
  H96      1.0000 0.82227  0.35263  0.28533  Biso   1.000  H
  C124     1.0000 0.91287  0.42503  0.22933  Biso   1.000  C
  C125     1.0000 0.79597  0.38153  0.15983  Biso   1.000  C
  H97      1.0000 0.75977  0.36433  0.19373  Biso   1.000  H
  C126     1.0000 0.90177  0.42763  0.10793  Biso   1.000  C
  H98      1.0000 0.95377  0.44963  0.09853  Biso   1.000  H
  N99      1.0000 0.88896  0.94200  0.56735  Biso   1.000  N
  N100     1.0000 0.89275  0.95309  0.63454  Biso   1.000  N
  N101     1.0000 0.77363  0.87447  0.60813  Biso   1.000  N
  N102     1.0000 0.65423  0.80807  0.55850  Biso   1.000  N
  N103     1.0000 0.53873  0.74527  0.50227  Biso   1.000  N
  N104     1.0000 0.51523  0.74157  0.39687  Biso   1.000  N
  N105     1.0000 0.44683  0.71297  0.43109  Biso   1.000  N
  C127     1.0000 0.81733  0.89507  0.55227  Biso   1.000  C
  H99      1.0000 0.79883  0.87817  0.50977  Biso   1.000  H
  C128     1.0000 0.82343  0.91297  0.65777  Biso   1.000  C
  H100     1.0000 0.81003  0.91097  0.70197  Biso   1.000  H
  C129     1.0000 0.69323  0.82177  0.61387  Biso   1.000  C
  C130     1.0000 0.66223  0.78937  0.67447  Biso   1.000  C
  H101     1.0000 0.69253  0.80147  0.71217  Biso   1.000  H
  C131     1.0000 0.58433  0.73817  0.67667  Biso   1.000  C
  H102     1.0000 0.56083  0.71537  0.71637  Biso   1.000  H
  C132     1.0000 0.54133  0.72117  0.61897  Biso   1.000  C
  H103     1.0000 0.48893  0.68597  0.61867  Biso   1.000  H
  C133     1.0000 0.57953  0.75837  0.56267  Biso   1.000  C
  C134     1.0000 0.46263  0.71487  0.49317  Biso   1.000  C
  H104     1.0000 0.42643  0.69767  0.52707  Biso   1.000  H
  C135     1.0000 0.56843  0.76097  0.44127  Biso   1.000  C
  H105     1.0000 0.62043  0.78297  0.43187  Biso   1.000  H
  N106     1.0000 0.72467  0.28030  0.90068  Biso   1.000  N
  N107     1.0000 0.71358  0.27300  0.96787  Biso   1.000  N
  N108     1.0000 0.79220  0.23250  0.94146  Biso   1.000  N
  N109     1.0000 0.85860  0.17950  0.89183  Biso   1.000  N
  N110     1.0000 0.92140  0.12680  0.83560  Biso   1.000  N
  N111     1.0000 0.92510  0.10700  0.73020  Biso   1.000  N
  N112     1.0000 0.95370  0.06720  0.76442  Biso   1.000  N
  C136     1.0000 0.77160  0.25560  0.88560  Biso   1.000  C
  H106     1.0000 0.78850  0.25400  0.84310  Biso   1.000  H
  C137     1.0000 0.75370  0.24380  0.99110  Biso   1.000  C
  H107     1.0000 0.75570  0.23240  0.03530  Biso   1.000  H
  C138     1.0000 0.84490  0.20480  0.94720  Biso   1.000  C
  C139     1.0000 0.87730  0.20620  0.00780  Biso   1.000  C
  H108     1.0000 0.86520  0.22440  0.04550  Biso   1.000  H
  C140     1.0000 0.92850  0.17950  0.01000  Biso   1.000  C
  H109     1.0000 0.95130  0.17880  0.04970  Biso   1.000  H
  C141     1.0000 0.94550  0.15350  0.95230  Biso   1.000  C
  H110     1.0000 0.98070  0.13630  0.95200  Biso   1.000  H
  C142     1.0000 0.90830  0.15450  0.89600  Biso   1.000  C
  C143     1.0000 0.95180  0.08110  0.82650  Biso   1.000  C
  H111     1.0000 0.96900  0.06210  0.86040  Biso   1.000  H
  C144     1.0000 0.90570  0.14080  0.77460  Biso   1.000  C
  H112     1.0000 0.88370  0.17080  0.76520  Biso   1.000  H
  N113     1.0000 0.39134  0.61363  0.23401  Biso   1.000  N
  N114     1.0000 0.38025  0.60633  0.30120  Biso   1.000  N
  N115     1.0000 0.45887  0.56583  0.27479  Biso   1.000  N
  N116     1.0000 0.52527  0.51283  0.22516  Biso   1.000  N
  N117     1.0000 0.58807  0.46013  0.16893  Biso   1.000  N
  N118     1.0000 0.59177  0.44033  0.06353  Biso   1.000  N
  N119     1.0000 0.62037  0.40053  0.09775  Biso   1.000  N
  C145     1.0000 0.43827  0.58893  0.21893  Biso   1.000  C
  H113     1.0000 0.45517  0.58733  0.17643  Biso   1.000  H
  C146     1.0000 0.42037  0.57713  0.32443  Biso   1.000  C
  H114     1.0000 0.42237  0.56573  0.36863  Biso   1.000  H
  C147     1.0000 0.51157  0.53813  0.28053  Biso   1.000  C
  C148     1.0000 0.54397  0.53953  0.34113  Biso   1.000  C
  H115     1.0000 0.53187  0.55773  0.37883  Biso   1.000  H
  C149     1.0000 0.59517  0.51283  0.34333  Biso   1.000  C
  H116     1.0000 0.61797  0.51213  0.38303  Biso   1.000  H
  C150     1.0000 0.61217  0.48683  0.28563  Biso   1.000  C
  H117     1.0000 0.64737  0.46963  0.28533  Biso   1.000  H
  C151     1.0000 0.57497  0.48783  0.22933  Biso   1.000  C
  C152     1.0000 0.61847  0.41443  0.15983  Biso   1.000  C
  H118     1.0000 0.63567  0.39543  0.19373  Biso   1.000  H
  C153     1.0000 0.57237  0.47413  0.10793  Biso   1.000  C
  H119     1.0000 0.55037  0.50413  0.09853  Biso   1.000  H
  N120     1.0000 0.05800  0.94697  0.56735  Biso   1.000  N
  N121     1.0000 0.04691  0.93967  0.63454  Biso   1.000  N
  N122     1.0000 0.12553  0.89917  0.60813  Biso   1.000  N
  N123     1.0000 0.19193  0.84617  0.55850  Biso   1.000  N
  N124     1.0000 0.25473  0.79347  0.50227  Biso   1.000  N
  N125     1.0000 0.25843  0.77367  0.39687  Biso   1.000  N
  N126     1.0000 0.28703  0.73387  0.43109  Biso   1.000  N
  C154     1.0000 0.10493  0.92227  0.55227  Biso   1.000  C
  H120     1.0000 0.12183  0.92067  0.50977  Biso   1.000  H
  C155     1.0000 0.08703  0.91047  0.65777  Biso   1.000  C
  H121     1.0000 0.08903  0.89907  0.70197  Biso   1.000  H
  C156     1.0000 0.17823  0.87147  0.61387  Biso   1.000  C
  C157     1.0000 0.21063  0.87287  0.67447  Biso   1.000  C
  H122     1.0000 0.19853  0.89107  0.71217  Biso   1.000  H
  C158     1.0000 0.26183  0.84617  0.67667  Biso   1.000  C
  H123     1.0000 0.28463  0.84547  0.71637  Biso   1.000  H
  C159     1.0000 0.27883  0.82017  0.61897  Biso   1.000  C
  H124     1.0000 0.31403  0.80297  0.61867  Biso   1.000  H
  C160     1.0000 0.24163  0.82117  0.56267  Biso   1.000  C
  C161     1.0000 0.28513  0.74777  0.49317  Biso   1.000  C
  H125     1.0000 0.30233  0.72877  0.52707  Biso   1.000  H
  C162     1.0000 0.23903  0.80747  0.44127  Biso   1.000  C
  H126     1.0000 0.21703  0.83747  0.43187  Biso   1.000  H
  Cd1      1.0000 0.33333  0.66667  0.16667  Biso   1.000  Cd
  Cd2      1.0000 0.00000  0.00000  0.50000  Biso   1.000  Cd
  Cd3      1.0000 0.66667  0.33333  0.83333  Biso   1.000  Cd
  Cd4      1.0000 0.33333  0.66667  0.96184  Biso   1.000  Cd
  Cd5      1.0000 0.00000  0.00000  0.29517  Biso   1.000  Cd
  Cd6      1.0000 0.66667  0.33333  0.62851  Biso   1.000  Cd
  Cd7      1.0000 0.66667  0.33333  0.03816  Biso   1.000  Cd
  Cd8      1.0000 0.33333  0.66667  0.37149  Biso   1.000  Cd
  Cd9      1.0000 0.00000  0.00000  0.70483  Biso   1.000  Cd
