data_CEYPUT_clean
_audit_creation_date              2014-07-02
_audit_creation_method            'Materials Studio'
_symmetry_space_group_name_H-M    'P1'
_symmetry_Int_Tables_number       1
_symmetry_cell_setting            triclinic
loop_
_symmetry_equiv_pos_as_xyz
  x,y,z
_cell_length_a                    6.3070
_cell_length_b                    10.4919
_cell_length_c                    12.6110
_cell_angle_alpha                 90.0000
_cell_angle_beta                  90.0000
_cell_angle_gamma                 91.2270
loop_
_atom_site_label
_atom_site_type_symbol
_atom_site_fract_x
_atom_site_fract_y
_atom_site_fract_z
_atom_site_U_iso_or_equiv
_atom_site_adp_type
_atom_site_occupancy
Co1    Co    0.37200   0.25995   0.24626   0.01267  Uiso   1.00
Co2    Co    0.87200   0.75995   0.75374   0.01267  Uiso   1.00
H1     H     0.76450   0.98680   0.62980   0.01267  Uiso   1.00
H2     H     0.88660   0.11360   0.49130   0.01267  Uiso   1.00
H3     H     0.42480   0.91660   0.49240   0.01267  Uiso   1.00
H4     H     0.29110   0.80020   0.63350   0.01267  Uiso   1.00
H5     H     0.94680   0.31950   0.15060   0.01267  Uiso   1.00
H6     H     0.80340   0.44090   0.02180   0.01267  Uiso   1.00
H7     H     0.35330   0.64160   0.01330   0.01267  Uiso   1.00
H8     H     0.47780   0.51510   0.14360   0.01267  Uiso   1.00
H9     H     0.26450   0.48680   0.37020   0.01267  Uiso   1.00
H10    H     0.38660   0.61360   0.50870   0.01267  Uiso   1.00
H11    H     0.92480   0.41660   0.50760   0.01267  Uiso   1.00
H12    H     0.79110   0.30020   0.36650   0.01267  Uiso   1.00
H13    H     0.44680   0.81950   0.84940   0.01267  Uiso   1.00
H14    H     0.30340   0.94090   0.97820   0.01267  Uiso   1.00
H15    H     0.85330   0.14160   0.98670   0.01267  Uiso   1.00
H16    H     0.97780   0.01510   0.85640   0.01267  Uiso   1.00
C1     C     0.20730   0.86220   0.60390   0.01267  Uiso   1.00
C2     C     0.97670   0.63470   0.91200   0.01267  Uiso   1.00
C3     C     0.89890   0.97350   0.60210   0.01267  Uiso   1.00
C4     C     0.97110   0.04990   0.51860   0.01267  Uiso   1.00
C5     C     0.17240   0.02920   0.47670   0.01267  Uiso   1.00
C6     C     0.29110   0.93360   0.51930   0.01267  Uiso   1.00
C7     C     0.25760   0.10950   0.38520   0.01267  Uiso   1.00
C8     C     0.03070   0.38420   0.12090   0.01267  Uiso   1.00
C9     C     0.94130   0.45740   0.04480   0.01267  Uiso   1.00
C10    C     0.06370   0.55920   0.00160   0.01267  Uiso   1.00
C11    C     0.26700   0.57620   0.04010   0.01267  Uiso   1.00
C12    C     0.34250   0.49850   0.11690   0.01267  Uiso   1.00
C13    C     0.70730   0.36220   0.39610   0.01267  Uiso   1.00
C14    C     0.47670   0.13470   0.08800   0.01267  Uiso   1.00
C15    C     0.39890   0.47350   0.39790   0.01267  Uiso   1.00
C16    C     0.47110   0.54990   0.48140   0.01267  Uiso   1.00
C17    C     0.67240   0.52920   0.52330   0.01267  Uiso   1.00
C18    C     0.79110   0.43360   0.48070   0.01267  Uiso   1.00
C19    C     0.75760   0.60950   0.61480   0.01267  Uiso   1.00
C20    C     0.53070   0.88420   0.87910   0.01267  Uiso   1.00
C21    C     0.44130   0.95740   0.95520   0.01267  Uiso   1.00
C22    C     0.56370   0.05920   0.99840   0.01267  Uiso   1.00
C23    C     0.76700   0.07620   0.95990   0.01267  Uiso   1.00
C24    C     0.84250   0.99850   0.88310   0.01267  Uiso   1.00
N1     N     0.01770   0.88100   0.64380   0.01267  Uiso   1.00
N2     N     0.22920   0.39760   0.15630   0.01267  Uiso   1.00
N3     N     0.51770   0.38100   0.35620   0.01267  Uiso   1.00
N4     N     0.72920   0.89760   0.84370   0.01267  Uiso   1.00
O1     O     0.44080   0.09870   0.35680   0.01267  Uiso   1.00
O2     O     0.13420   0.19520   0.34760   0.01267  Uiso   1.00
O3     O     0.78860   0.62330   0.88470   0.01267  Uiso   1.00
O4     O     0.10020   0.71550   0.86550   0.01267  Uiso   1.00
O5     O     0.94080   0.59870   0.64320   0.01267  Uiso   1.00
O6     O     0.63420   0.69520   0.65240   0.01267  Uiso   1.00
O7     O     0.28860   0.12330   0.11530   0.01267  Uiso   1.00
O8     O     0.60020   0.21550   0.13450   0.01267  Uiso   1.00
