data_cg060732osi20070605_042406_clean
_audit_creation_date              2015-08-19
_audit_creation_method            'Materials Studio'
_symmetry_space_group_name_H-M    'P1'
_symmetry_Int_Tables_number       1
_symmetry_cell_setting            triclinic
loop_
_symmetry_equiv_pos_as_xyz
  x,y,z
_cell_length_a                    17.6439
_cell_length_b                    17.6437
_cell_length_c                    17.6437
_cell_angle_alpha                 109.4710
_cell_angle_beta                  109.4710
_cell_angle_gamma                 109.4710
loop_
_atom_site_label
_atom_site_type_symbol
_atom_site_fract_x
_atom_site_fract_y
_atom_site_fract_z
_atom_site_U_iso_or_equiv
_atom_site_adp_type
_atom_site_occupancy
In1    In    0.37500   0.75000   0.12500   0.01267  Uiso   1.00
In2    In    0.12500   0.25000   0.37500   0.01267  Uiso   1.00
In3    In    0.62500   0.37500   0.25000   0.01267  Uiso   1.00
In4    In    0.75000   0.62500   0.87500   0.01267  Uiso   1.00
In5    In    0.25000   0.87500   0.62500   0.01267  Uiso   1.00
In6    In    0.87500   0.12500   0.75000   0.01267  Uiso   1.00
H1     H     0.95640   0.61260   0.43660   0.01267  Uiso   1.00
H2     H     0.93660   0.95640   0.11260   0.01267  Uiso   1.00
H3     H     0.45640   0.43660   0.61260   0.01267  Uiso   1.00
H4     H     0.65620   0.48020   0.54360   0.01267  Uiso   1.00
H5     H     0.11260   0.45640   0.93660   0.01267  Uiso   1.00
H6     H     0.15620   0.54360   0.48020   0.01267  Uiso   1.00
H7     H     0.38740   0.32400   0.34380   0.01267  Uiso   1.00
H8     H     0.34380   0.82400   0.38740   0.01267  Uiso   1.00
H9     H     0.67600   0.51980   0.06340   0.01267  Uiso   1.00
H10    H     0.06340   0.01980   0.67600   0.01267  Uiso   1.00
H11    H     0.61260   0.93660   0.45640   0.01267  Uiso   1.00
H12    H     0.17600   0.06340   0.51980   0.01267  Uiso   1.00
H13    H     0.43660   0.11260   0.95640   0.01267  Uiso   1.00
H14    H     0.54360   0.98020   0.65620   0.01267  Uiso   1.00
H15    H     0.98020   0.15620   0.04360   0.01267  Uiso   1.00
H16    H     0.01980   0.17600   0.56340   0.01267  Uiso   1.00
H17    H     0.88740   0.34380   0.32400   0.01267  Uiso   1.00
H18    H     0.04360   0.65620   0.98020   0.01267  Uiso   1.00
H19    H     0.82400   0.88740   0.84380   0.01267  Uiso   1.00
H20    H     0.51980   0.56340   0.17600   0.01267  Uiso   1.00
H21    H     0.32400   0.84380   0.88740   0.01267  Uiso   1.00
H22    H     0.48020   0.04360   0.15620   0.01267  Uiso   1.00
H23    H     0.56340   0.67600   0.01980   0.01267  Uiso   1.00
H24    H     0.84380   0.38740   0.82400   0.01267  Uiso   1.00
C1     C     0.54600   0.57210   0.13970   0.01267  Uiso   1.00
C2     C     0.80610   0.44570   0.33080   0.01267  Uiso   1.00
C3     C     0.12520   0.03230   0.59910   0.01267  Uiso   1.00
C4     C     0.33080   0.94570   0.80610   0.01267  Uiso   1.00
C5     C     0.38510   0.86040   0.05430   0.01267  Uiso   1.00
C6     C     0.53230   0.62520   0.09910   0.01267  Uiso   1.00
C7     C     0.57210   0.63970   0.04600   0.01267  Uiso   1.00
C8     C     0.56760   0.92790   0.47390   0.01267  Uiso   1.00
C9     C     0.52610   0.95400   0.59370   0.01267  Uiso   1.00
C10    C     0.93320   0.52610   0.90090   0.01267  Uiso   1.00
C11    C     0.36040   0.88510   0.55430   0.01267  Uiso   1.00
C12    C     0.36030   0.90630   0.93240   0.01267  Uiso   1.00
C13    C     0.62520   0.59910   0.03230   0.01267  Uiso   1.00
C14    C     0.59370   0.45400   0.52610   0.01267  Uiso   1.00
C15    C     0.43240   0.36030   0.40630   0.01267  Uiso   1.00
C16    C     0.09370   0.52610   0.45400   0.01267  Uiso   1.00
C17    C     0.97390   0.56760   0.42790   0.01267  Uiso   1.00
C18    C     0.86040   0.55430   0.88510   0.01267  Uiso   1.00
C19    C     0.13970   0.07210   0.54600   0.01267  Uiso   1.00
C20    C     0.90710   0.47390   0.37480   0.01267  Uiso   1.00
C21    C     0.09290   0.56680   0.96770   0.01267  Uiso   1.00
C22    C     0.47390   0.87480   0.40710   0.01267  Uiso   1.00
C23    C     0.52470   0.19390   0.13960   0.01267  Uiso   1.00
C24    C     0.43320   0.90090   0.52610   0.01267  Uiso   1.00
C25    C     0.56680   0.46770   0.59290   0.01267  Uiso   1.00
C26    C     0.02610   0.43320   0.40090   0.01267  Uiso   1.00
C27    C     0.97530   0.11490   0.66920   0.01267  Uiso   1.00
C28    C     0.42790   0.06760   0.97390   0.01267  Uiso   1.00
C29    C     0.94570   0.30610   0.83080   0.01267  Uiso   1.00
C30    C     0.61490   0.47530   0.16920   0.01267  Uiso   1.00
C31    C     0.04600   0.13970   0.57210   0.01267  Uiso   1.00
C32    C     0.93240   0.40630   0.36030   0.01267  Uiso   1.00
C33    C     0.06760   0.47390   0.92790   0.01267  Uiso   1.00
C34    C     0.97390   0.40710   0.87480   0.01267  Uiso   1.00
C35    C     0.59910   0.53230   0.12520   0.01267  Uiso   1.00
C36    C     0.69390   0.02470   0.63960   0.01267  Uiso   1.00
C37    C     0.59290   0.96770   0.56680   0.01267  Uiso   1.00
C38    C     0.88510   0.05430   0.86040   0.01267  Uiso   1.00
C39    C     0.11490   0.16920   0.47530   0.01267  Uiso   1.00
C40    C     0.30610   0.33080   0.44570   0.01267  Uiso   1.00
C41    C     0.90090   0.02610   0.93320   0.01267  Uiso   1.00
C42    C     0.45400   0.02610   0.09370   0.01267  Uiso   1.00
C43    C     0.02470   0.13960   0.19390   0.01267  Uiso   1.00
C44    C     0.52610   0.40090   0.43320   0.01267  Uiso   1.00
C45    C     0.02610   0.59370   0.95400   0.01267  Uiso   1.00
C46    C     0.90630   0.43240   0.86030   0.01267  Uiso   1.00
C47    C     0.87480   0.90710   0.97390   0.01267  Uiso   1.00
C48    C     0.16920   0.97530   0.61490   0.01267  Uiso   1.00
C49    C     0.63970   0.54600   0.07210   0.01267  Uiso   1.00
C50    C     0.47390   0.42790   0.56760   0.01267  Uiso   1.00
C51    C     0.55430   0.38510   0.36040   0.01267  Uiso   1.00
C52    C     0.83080   0.80610   0.94570   0.01267  Uiso   1.00
C53    C     0.96770   0.06680   0.09290   0.01267  Uiso   1.00
C54    C     0.37480   0.97390   0.90710   0.01267  Uiso   1.00
C55    C     0.44570   0.83080   0.30610   0.01267  Uiso   1.00
C56    C     0.92790   0.97390   0.06760   0.01267  Uiso   1.00
C57    C     0.19390   0.63960   0.02470   0.01267  Uiso   1.00
C58    C     0.06680   0.59290   0.46770   0.01267  Uiso   1.00
C59    C     0.05430   0.36040   0.38510   0.01267  Uiso   1.00
C60    C     0.40090   0.93320   0.02610   0.01267  Uiso   1.00
C61    C     0.86030   0.93240   0.90630   0.01267  Uiso   1.00
C62    C     0.47530   0.66920   0.11490   0.01267  Uiso   1.00
C63    C     0.46770   0.09290   0.06680   0.01267  Uiso   1.00
C64    C     0.07210   0.04600   0.63970   0.01267  Uiso   1.00
C65    C     0.13960   0.69390   0.52470   0.01267  Uiso   1.00
C66    C     0.03230   0.09910   0.62520   0.01267  Uiso   1.00
C67    C     0.09910   0.12520   0.53230   0.01267  Uiso   1.00
C68    C     0.63960   0.52470   0.69390   0.01267  Uiso   1.00
C69    C     0.95400   0.09370   0.02610   0.01267  Uiso   1.00
C70    C     0.40630   0.86030   0.43240   0.01267  Uiso   1.00
C71    C     0.40710   0.37480   0.47390   0.01267  Uiso   1.00
C72    C     0.66920   0.61490   0.97530   0.01267  Uiso   1.00
O1     O     0.36120   0.77800   0.24680   0.01267  Uiso   1.00
O2     O     0.56780   0.21870   0.22330   0.01267  Uiso   1.00
O3     O     0.13880   0.38560   0.41680   0.01267  Uiso   1.00
O4     O     0.65090   0.65550   0.93220   0.01267  Uiso   1.00
O5     O     0.93220   0.15550   0.65090   0.01267  Uiso   1.00
O6     O     0.03120   0.11440   0.25320   0.01267  Uiso   1.00
O7     O     0.27670   0.84450   0.49540   0.01267  Uiso   1.00
O8     O     0.91680   0.13880   0.88560   0.01267  Uiso   1.00
O9     O     0.86120   0.24680   0.77800   0.01267  Uiso   1.00
O10    O     0.65550   0.43220   0.15090   0.01267  Uiso   1.00
O11    O     0.46880   0.72200   0.08320   0.01267  Uiso   1.00
O12    O     0.96880   0.08320   0.72200   0.01267  Uiso   1.00
O13    O     0.06780   0.22330   0.21870   0.01267  Uiso   1.00
O14    O     0.72330   0.56780   0.71870   0.01267  Uiso   1.00
O15    O     0.72200   0.58320   0.96880   0.01267  Uiso   1.00
O16    O     0.15550   0.15090   0.43220   0.01267  Uiso   1.00
O17    O     0.00460   0.28130   0.84910   0.01267  Uiso   1.00
O18    O     0.34910   0.00460   0.78130   0.01267  Uiso   1.00
O19    O     0.77670   0.49540   0.84450   0.01267  Uiso   1.00
O20    O     0.88560   0.63880   0.91680   0.01267  Uiso   1.00
O21    O     0.78130   0.50460   0.34910   0.01267  Uiso   1.00
O22    O     0.22330   0.71870   0.56780   0.01267  Uiso   1.00
O23    O     0.74680   0.36120   0.27800   0.01267  Uiso   1.00
O24    O     0.49540   0.34450   0.27670   0.01267  Uiso   1.00
O25    O     0.28130   0.34910   0.50460   0.01267  Uiso   1.00
O26    O     0.84910   0.78130   0.00460   0.01267  Uiso   1.00
O27    O     0.34450   0.77670   0.99540   0.01267  Uiso   1.00
O28    O     0.43220   0.65090   0.15550   0.01267  Uiso   1.00
O29    O     0.08320   0.22200   0.46880   0.01267  Uiso   1.00
O30    O     0.61440   0.53120   0.75320   0.01267  Uiso   1.00
O31    O     0.77800   0.74680   0.86120   0.01267  Uiso   1.00
O32    O     0.11440   0.75320   0.53120   0.01267  Uiso   1.00
O33    O     0.38560   0.91680   0.63880   0.01267  Uiso   1.00
O34    O     0.71870   0.06780   0.72330   0.01267  Uiso   1.00
O35    O     0.15090   0.93220   0.65550   0.01267  Uiso   1.00
O36    O     0.84450   0.99540   0.77670   0.01267  Uiso   1.00
O37    O     0.99540   0.27670   0.34450   0.01267  Uiso   1.00
O38    O     0.22200   0.96880   0.58320   0.01267  Uiso   1.00
O39    O     0.24680   0.27800   0.36120   0.01267  Uiso   1.00
O40    O     0.58320   0.46880   0.22200   0.01267  Uiso   1.00
O41    O     0.21870   0.72330   0.06780   0.01267  Uiso   1.00
O42    O     0.53120   0.25320   0.11440   0.01267  Uiso   1.00
O43    O     0.25320   0.61440   0.03120   0.01267  Uiso   1.00
O44    O     0.75320   0.03120   0.61440   0.01267  Uiso   1.00
O45    O     0.41680   0.88560   0.13880   0.01267  Uiso   1.00
O46    O     0.63880   0.41680   0.38560   0.01267  Uiso   1.00
O47    O     0.27800   0.86120   0.74680   0.01267  Uiso   1.00
O48    O     0.50460   0.84910   0.28130   0.01267  Uiso   1.00
