data_cg200615s_si_002_clean
_audit_creation_date              2015-08-19
_audit_creation_method            'Materials Studio'
_symmetry_space_group_name_H-M    'P1'
_symmetry_Int_Tables_number       1
_symmetry_cell_setting            triclinic
loop_
_symmetry_equiv_pos_as_xyz
  x,y,z
_cell_length_a                    7.1364
_cell_length_b                    11.4297
_cell_length_c                    11.7485
_cell_angle_alpha                 62.6580
_cell_angle_beta                  75.5680
_cell_angle_gamma                 88.5600
loop_
_atom_site_label
_atom_site_type_symbol
_atom_site_fract_x
_atom_site_fract_y
_atom_site_fract_z
_atom_site_U_iso_or_equiv
_atom_site_adp_type
_atom_site_occupancy
K1     K     0.76710   0.92300   0.00320   0.01267  Uiso   1.00
K2     K     0.23290   0.07700   0.99680   0.01267  Uiso   1.00
Cu1    Cu    0.87997   0.71930   0.35633   0.01267  Uiso   1.00
Cu2    Cu    0.12003   0.28070   0.64367   0.01267  Uiso   1.00
H1     H     0.30740   0.58620   0.93110   0.01267  Uiso   1.00
H2     H     0.52850   0.43110   0.81280   0.01267  Uiso   1.00
H3     H     0.43460   0.90150   0.30380   0.01267  Uiso   1.00
H4     H     0.01700   0.64860   0.69260   0.01267  Uiso   1.00
H5     H     0.98300   0.35140   0.30740   0.01267  Uiso   1.00
H6     H     0.60380   0.20250   0.54200   0.01267  Uiso   1.00
H7     H     0.39620   0.79750   0.45800   0.01267  Uiso   1.00
H8     H     0.77400   0.18150   0.61410   0.01267  Uiso   1.00
H9     H     0.63170   0.49580   0.26230   0.01267  Uiso   1.00
H10    H     0.47150   0.56890   0.18720   0.01267  Uiso   1.00
H11    H     0.22600   0.81850   0.38590   0.01267  Uiso   1.00
H12    H     0.47190   0.41170   0.24760   0.01267  Uiso   1.00
H13    H     0.69260   0.41380   0.06890   0.01267  Uiso   1.00
H14    H     0.52810   0.58830   0.75240   0.01267  Uiso   1.00
H15    H     0.56540   0.09850   0.69620   0.01267  Uiso   1.00
H16    H     0.36830   0.50420   0.73770   0.01267  Uiso   1.00
C1     C     0.80430   0.31270   0.96630   0.01267  Uiso   1.00
C2     C     0.63670   0.52980   0.61040   0.01267  Uiso   1.00
C3     C     0.84620   0.54800   0.88220   0.01267  Uiso   1.00
C4     C     0.03880   0.43670   0.23780   0.01267  Uiso   1.00
C5     C     0.36660   0.81590   0.37460   0.01267  Uiso   1.00
C6     C     0.91770   0.32160   0.84570   0.01267  Uiso   1.00
C7     C     0.00660   0.54770   0.25500   0.01267  Uiso   1.00
C8     C     0.96120   0.56330   0.76220   0.01267  Uiso   1.00
C9     C     0.15380   0.45200   0.11780   0.01267  Uiso   1.00
C10    C     0.76890   0.42350   0.98570   0.01267  Uiso   1.00
C11    C     0.63340   0.18410   0.62540   0.01267  Uiso   1.00
C12    C     0.67260   0.42480   0.57870   0.01267  Uiso   1.00
C13    C     0.08230   0.67840   0.15430   0.01267  Uiso   1.00
C14    C     0.50390   0.51180   0.73950   0.01267  Uiso   1.00
C15    C     0.32740   0.57520   0.42130   0.01267  Uiso   1.00
C16    C     0.99340   0.45230   0.74500   0.01267  Uiso   1.00
C17    C     0.19570   0.68730   0.03370   0.01267  Uiso   1.00
C18    C     0.43160   0.70980   0.33850   0.01267  Uiso   1.00
C19    C     0.23110   0.57650   0.01430   0.01267  Uiso   1.00
C20    C     0.56840   0.29020   0.66150   0.01267  Uiso   1.00
C21    C     0.49610   0.48820   0.26050   0.01267  Uiso   1.00
C22    C     0.36330   0.47020   0.38960   0.01267  Uiso   1.00
S1     S     0.69810   0.15613   0.10010   0.01267  Uiso   1.00
S2     S     0.30190   0.84387   0.89990   0.01267  Uiso   1.00
N1     N     0.20070   0.56540   0.53490   0.01267  Uiso   1.00
N2     N     0.88870   0.54640   0.37180   0.01267  Uiso   1.00
N3     N     0.11130   0.45360   0.62820   0.01267  Uiso   1.00
N4     N     0.79930   0.43460   0.46510   0.01267  Uiso   1.00
Cl1    Cl    0.21300   0.31359   0.09614   0.01267  Uiso   1.00
Cl2    Cl    0.78700   0.68641   0.90386   0.01267  Uiso   1.00
O1     O     0.44340   0.89160   0.94140   0.01267  Uiso   1.00
O2     O     0.38360   0.82270   0.78630   0.01267  Uiso   1.00
O3     O     0.95480   0.22130   0.82090   0.01267  Uiso   1.00
O4     O     0.28530   0.35160   0.46680   0.01267  Uiso   1.00
O5     O     0.71470   0.64840   0.53320   0.01267  Uiso   1.00
O6     O     0.42390   0.26720   0.75430   0.01267  Uiso   1.00
O7     O     0.14200   0.92770   0.88150   0.01267  Uiso   1.00
O8     O     0.57610   0.73280   0.24570   0.01267  Uiso   1.00
O9     O     0.85800   0.07230   0.11850   0.01267  Uiso   1.00
O10    O     0.55660   0.10840   0.05860   0.01267  Uiso   1.00
O11    O     0.61640   0.17730   0.21370   0.01267  Uiso   1.00
O12    O     0.04520   0.77870   0.17910   0.01267  Uiso   1.00
