data_image0
_cell_length_a       21.2737
_cell_length_b       21.2737
_cell_length_c       30.086
_cell_angle_alpha    90
_cell_angle_beta     90
_cell_angle_gamma    90

_symmetry_space_group_name_H-M    "P 1"
_symmetry_int_tables_number       1

loop_
  _symmetry_equiv_pos_as_xyz
  'x, y, z'

loop_
  _atom_site_label
  _atom_site_occupancy
  _atom_site_fract_x
  _atom_site_fract_y
  _atom_site_fract_z
  _atom_site_thermal_displace_type
  _atom_site_B_iso_or_equiv
  _atom_site_type_symbol
  C1       1.0000 0.17520  0.81330  0.32140  Biso   1.000  C
  H1       1.0000 0.18870  0.85120  0.30930  Biso   1.000  H
  C2       1.0000 0.13930  0.81280  0.35660  Biso   1.000  C
  H2       1.0000 0.12900  0.85070  0.37010  Biso   1.000  H
  C3       1.0000 0.11450  0.75350  0.37580  Biso   1.000  C
  C4       1.0000 0.13530  0.69780  0.35690  Biso   1.000  C
  H3       1.0000 0.12390  0.65950  0.36950  Biso   1.000  H
  C5       1.0000 0.17310  0.69870  0.31930  Biso   1.000  C
  H4       1.0000 0.18490  0.66120  0.30580  Biso   1.000  H
  C6       1.0000 0.74960  0.07210  0.08620  Biso   1.000  C
  C7       1.0000 0.69200  0.04510  0.06970  Biso   1.000  C
  H5       1.0000 0.65530  0.05230  0.08570  Biso   1.000  H
  C8       1.0000 0.68810  0.01120  0.03390  Biso   1.000  C
  C9       1.0000 0.74350  0.99150  0.01290  Biso   1.000  C
  H6       1.0000 0.74180  0.96420  0.98880  Biso   1.000  H
  C10      1.0000 0.80060  0.01280  0.02830  Biso   1.000  C
  C11      1.0000 0.80430  0.05240  0.06570  Biso   1.000  C
  H7       1.0000 0.84320  0.06530  0.07650  Biso   1.000  H
  C12      1.0000 0.62590  0.98630  0.01870  Biso   1.000  C
  C13      1.0000 0.86070  0.99340  0.00760  Biso   1.000  C
  C14      1.0000 0.00910  0.86240  0.00750  Biso   1.000  C
  H8       1.0000 0.98680  0.86210  0.98090  Biso   1.000  H
  C15      1.0000 0.02540  0.80980  0.02540  Biso   1.000  C
  H9       1.0000 0.01340  0.77260  0.01160  Biso   1.000  H
  C16      1.0000 0.06150  0.80640  0.06580  Biso   1.000  C
  C17      1.0000 0.07980  0.86840  0.08370  Biso   1.000  C
  H10      1.0000 0.10430  0.87050  0.10930  Biso   1.000  H
  C18      1.0000 0.06250  0.91940  0.06440  Biso   1.000  C
  H11      1.0000 0.07610  0.95770  0.07580  Biso   1.000  H
  C19      1.0000 0.08150  0.74830  0.08630  Biso   1.000  C
  C20      1.0000 0.05830  0.68970  0.07240  Biso   1.000  C
  H12      1.0000 0.02650  0.68920  0.05120  Biso   1.000  H
  C21      1.0000 0.07920  0.63470  0.08780  Biso   1.000  C
  C22      1.0000 0.12080  0.63470  0.12430  Biso   1.000  C
  H13      1.0000 0.13340  0.59670  0.13670  Biso   1.000  H
  C23      1.0000 0.14300  0.69050  0.14200  Biso   1.000  C
  C24      1.0000 0.12270  0.74670  0.12470  Biso   1.000  C
  H14      1.0000 0.13560  0.78420  0.13770  Biso   1.000  H
  C25      1.0000 0.06170  0.57590  0.06970  Biso   1.000  C
  C26      1.0000 0.17820  0.69200  0.18070  Biso   1.000  C
  N1       1.0000 0.19320  0.75550  0.30180  Biso   1.000  N
  N2       1.0000 0.02410  0.91930  0.02710  Biso   1.000  N
  O1       1.0000 0.57830  0.01440  0.03420  Biso   1.000  O
  O2       1.0000 0.62510  0.93310  0.99920  Biso   1.000  O
  O3       1.0000 0.85920  0.95410  0.97660  Biso   1.000  O
  O4       1.0000 0.91310  0.01670  0.02030  Biso   1.000  O
  O5       1.0000 0.02270  0.57280  0.03690  Biso   1.000  O
  O6       1.0000 0.07600  0.52280  0.08560  Biso   1.000  O
  O7       1.0000 0.19270  0.64390  0.20290  Biso   1.000  O
  O8       1.0000 0.19540  0.74380  0.19740  Biso   1.000  O
  C27      1.0000 0.32480  0.68670  0.32140  Biso   1.000  C
  H15      1.0000 0.31130  0.64880  0.30930  Biso   1.000  H
  C28      1.0000 0.36070  0.68720  0.35660  Biso   1.000  C
  H16      1.0000 0.37100  0.64930  0.37010  Biso   1.000  H
  C29      1.0000 0.38550  0.74650  0.37580  Biso   1.000  C
  C30      1.0000 0.36470  0.80220  0.35690  Biso   1.000  C
  H17      1.0000 0.37610  0.84050  0.36950  Biso   1.000  H
  C31      1.0000 0.32690  0.80130  0.31930  Biso   1.000  C
  H18      1.0000 0.31510  0.83880  0.30580  Biso   1.000  H
  C32      1.0000 0.75040  0.42790  0.08620  Biso   1.000  C
  C33      1.0000 0.80800  0.45490  0.06970  Biso   1.000  C
  H19      1.0000 0.84470  0.44770  0.08570  Biso   1.000  H
  C34      1.0000 0.81190  0.48880  0.03390  Biso   1.000  C
  C35      1.0000 0.75650  0.50850  0.01290  Biso   1.000  C
  H20      1.0000 0.75820  0.53580  0.98880  Biso   1.000  H
  C36      1.0000 0.69940  0.48720  0.02830  Biso   1.000  C
  C37      1.0000 0.69570  0.44760  0.06570  Biso   1.000  C
  H21      1.0000 0.65680  0.43470  0.07650  Biso   1.000  H
  C38      1.0000 0.87410  0.51370  0.01870  Biso   1.000  C
  C39      1.0000 0.63930  0.50660  0.00760  Biso   1.000  C
  C40      1.0000 0.49090  0.63760  0.00750  Biso   1.000  C
  H22      1.0000 0.51320  0.63790  0.98090  Biso   1.000  H
  C41      1.0000 0.47460  0.69020  0.02540  Biso   1.000  C
  H23      1.0000 0.48660  0.72740  0.01160  Biso   1.000  H
  C42      1.0000 0.43850  0.69360  0.06580  Biso   1.000  C
  C43      1.0000 0.42020  0.63160  0.08370  Biso   1.000  C
  H24      1.0000 0.39570  0.62950  0.10930  Biso   1.000  H
  C44      1.0000 0.43750  0.58060  0.06440  Biso   1.000  C
  H25      1.0000 0.42390  0.54230  0.07580  Biso   1.000  H
  C45      1.0000 0.41850  0.75170  0.08630  Biso   1.000  C
  C46      1.0000 0.44170  0.81030  0.07240  Biso   1.000  C
  H26      1.0000 0.47350  0.81080  0.05120  Biso   1.000  H
  C47      1.0000 0.42080  0.86530  0.08780  Biso   1.000  C
  C48      1.0000 0.37920  0.86530  0.12430  Biso   1.000  C
  H27      1.0000 0.36660  0.90330  0.13670  Biso   1.000  H
  C49      1.0000 0.35700  0.80950  0.14200  Biso   1.000  C
  C50      1.0000 0.37730  0.75330  0.12470  Biso   1.000  C
  H28      1.0000 0.36440  0.71580  0.13770  Biso   1.000  H
  C51      1.0000 0.43830  0.92410  0.06970  Biso   1.000  C
  C52      1.0000 0.32180  0.80800  0.18070  Biso   1.000  C
  N3       1.0000 0.30680  0.74450  0.30180  Biso   1.000  N
  N4       1.0000 0.47590  0.58070  0.02710  Biso   1.000  N
  O9       1.0000 0.92170  0.48560  0.03420  Biso   1.000  O
  O10      1.0000 0.87490  0.56690  0.99920  Biso   1.000  O
  O11      1.0000 0.64080  0.54590  0.97660  Biso   1.000  O
  O12      1.0000 0.58690  0.48330  0.02030  Biso   1.000  O
  O13      1.0000 0.47730  0.92720  0.03690  Biso   1.000  O
  O14      1.0000 0.42400  0.97720  0.08560  Biso   1.000  O
  O15      1.0000 0.30730  0.85610  0.20290  Biso   1.000  O
  O16      1.0000 0.30460  0.75620  0.19740  Biso   1.000  O
  C53      1.0000 0.18670  0.67520  0.82140  Biso   1.000  C
  H29      1.0000 0.14880  0.68870  0.80930  Biso   1.000  H
  C54      1.0000 0.18720  0.63930  0.85660  Biso   1.000  C
  H30      1.0000 0.14930  0.62900  0.87010  Biso   1.000  H
  C55      1.0000 0.24650  0.61450  0.87580  Biso   1.000  C
  C56      1.0000 0.30220  0.63530  0.85690  Biso   1.000  C
  H31      1.0000 0.34050  0.62390  0.86950  Biso   1.000  H
  C57      1.0000 0.30130  0.67310  0.81930  Biso   1.000  C
  H32      1.0000 0.33880  0.68490  0.80580  Biso   1.000  H
  C58      1.0000 0.92790  0.24960  0.58620  Biso   1.000  C
  C59      1.0000 0.95490  0.19200  0.56970  Biso   1.000  C
  H33      1.0000 0.94770  0.15530  0.58570  Biso   1.000  H
  C60      1.0000 0.98880  0.18810  0.53390  Biso   1.000  C
  C61      1.0000 0.00850  0.24350  0.51290  Biso   1.000  C
  H34      1.0000 0.03580  0.24180  0.48880  Biso   1.000  H
  C62      1.0000 0.98720  0.30060  0.52830  Biso   1.000  C
  C63      1.0000 0.94760  0.30430  0.56570  Biso   1.000  C
  H35      1.0000 0.93470  0.34320  0.57650  Biso   1.000  H
  C64      1.0000 0.01370  0.12590  0.51870  Biso   1.000  C
  C65      1.0000 0.00660  0.36070  0.50760  Biso   1.000  C
  C66      1.0000 0.13760  0.50910  0.50750  Biso   1.000  C
  H36      1.0000 0.13790  0.48680  0.48090  Biso   1.000  H
  C67      1.0000 0.19020  0.52540  0.52540  Biso   1.000  C
  H37      1.0000 0.22740  0.51340  0.51160  Biso   1.000  H
  C68      1.0000 0.19360  0.56150  0.56580  Biso   1.000  C
  C69      1.0000 0.13160  0.57980  0.58370  Biso   1.000  C
  H38      1.0000 0.12950  0.60430  0.60930  Biso   1.000  H
  C70      1.0000 0.08060  0.56250  0.56440  Biso   1.000  C
  H39      1.0000 0.04230  0.57610  0.57580  Biso   1.000  H
  C71      1.0000 0.25170  0.58150  0.58630  Biso   1.000  C
  C72      1.0000 0.31030  0.55830  0.57240  Biso   1.000  C
  H40      1.0000 0.31080  0.52650  0.55120  Biso   1.000  H
  C73      1.0000 0.36530  0.57920  0.58780  Biso   1.000  C
  C74      1.0000 0.36530  0.62080  0.62430  Biso   1.000  C
  H41      1.0000 0.40330  0.63340  0.63670  Biso   1.000  H
  C75      1.0000 0.30950  0.64300  0.64200  Biso   1.000  C
  C76      1.0000 0.25330  0.62270  0.62470  Biso   1.000  C
  H42      1.0000 0.21580  0.63560  0.63770  Biso   1.000  H
  C77      1.0000 0.42410  0.56170  0.56970  Biso   1.000  C
  C78      1.0000 0.30800  0.67820  0.68070  Biso   1.000  C
  N5       1.0000 0.24450  0.69320  0.80180  Biso   1.000  N
  N6       1.0000 0.08070  0.52410  0.52710  Biso   1.000  N
  O17      1.0000 0.98560  0.07830  0.53420  Biso   1.000  O
  O18      1.0000 0.06690  0.12510  0.49920  Biso   1.000  O
  O19      1.0000 0.04590  0.35920  0.47660  Biso   1.000  O
  O20      1.0000 0.98330  0.41310  0.52030  Biso   1.000  O
  O21      1.0000 0.42720  0.52270  0.53690  Biso   1.000  O
  O22      1.0000 0.47720  0.57600  0.58560  Biso   1.000  O
  O23      1.0000 0.35610  0.69270  0.70290  Biso   1.000  O
  O24      1.0000 0.25620  0.69540  0.69740  Biso   1.000  O
  C79      1.0000 0.31330  0.82480  0.82140  Biso   1.000  C
  H43      1.0000 0.35120  0.81130  0.80930  Biso   1.000  H
  C80      1.0000 0.31280  0.86070  0.85660  Biso   1.000  C
  H44      1.0000 0.35070  0.87100  0.87010  Biso   1.000  H
  C81      1.0000 0.25350  0.88550  0.87580  Biso   1.000  C
  C82      1.0000 0.19780  0.86470  0.85690  Biso   1.000  C
  H45      1.0000 0.15950  0.87610  0.86950  Biso   1.000  H
  C83      1.0000 0.19870  0.82690  0.81930  Biso   1.000  C
  H46      1.0000 0.16120  0.81510  0.80580  Biso   1.000  H
  C84      1.0000 0.57210  0.25040  0.58620  Biso   1.000  C
  C85      1.0000 0.54510  0.30800  0.56970  Biso   1.000  C
  H47      1.0000 0.55230  0.34470  0.58570  Biso   1.000  H
  C86      1.0000 0.51120  0.31190  0.53390  Biso   1.000  C
  C87      1.0000 0.49150  0.25650  0.51290  Biso   1.000  C
  H48      1.0000 0.46420  0.25820  0.48880  Biso   1.000  H
  C88      1.0000 0.51280  0.19940  0.52830  Biso   1.000  C
  C89      1.0000 0.55240  0.19570  0.56570  Biso   1.000  C
  H49      1.0000 0.56530  0.15680  0.57650  Biso   1.000  H
  C90      1.0000 0.48630  0.37410  0.51870  Biso   1.000  C
  C91      1.0000 0.49340  0.13930  0.50760  Biso   1.000  C
  C92      1.0000 0.36240  0.99090  0.50750  Biso   1.000  C
  H50      1.0000 0.36210  0.01320  0.48090  Biso   1.000  H
  C93      1.0000 0.30980  0.97460  0.52540  Biso   1.000  C
  H51      1.0000 0.27260  0.98660  0.51160  Biso   1.000  H
  C94      1.0000 0.30640  0.93850  0.56580  Biso   1.000  C
  C95      1.0000 0.36840  0.92020  0.58370  Biso   1.000  C
  H52      1.0000 0.37050  0.89570  0.60930  Biso   1.000  H
  C96      1.0000 0.41940  0.93750  0.56440  Biso   1.000  C
  H53      1.0000 0.45770  0.92390  0.57580  Biso   1.000  H
  C97      1.0000 0.24830  0.91850  0.58630  Biso   1.000  C
  C98      1.0000 0.18970  0.94170  0.57240  Biso   1.000  C
  H54      1.0000 0.18920  0.97350  0.55120  Biso   1.000  H
  C99      1.0000 0.13470  0.92080  0.58780  Biso   1.000  C
  C100     1.0000 0.13470  0.87920  0.62430  Biso   1.000  C
  H55      1.0000 0.09670  0.86660  0.63670  Biso   1.000  H
  C101     1.0000 0.19050  0.85700  0.64200  Biso   1.000  C
  C102     1.0000 0.24670  0.87730  0.62470  Biso   1.000  C
  H56      1.0000 0.28420  0.86440  0.63770  Biso   1.000  H
  C103     1.0000 0.07590  0.93830  0.56970  Biso   1.000  C
  C104     1.0000 0.19200  0.82180  0.68070  Biso   1.000  C
  N7       1.0000 0.25550  0.80680  0.80180  Biso   1.000  N
  N8       1.0000 0.41930  0.97590  0.52710  Biso   1.000  N
  O25      1.0000 0.51440  0.42170  0.53420  Biso   1.000  O
  O26      1.0000 0.43310  0.37490  0.49920  Biso   1.000  O
  O27      1.0000 0.45410  0.14080  0.47660  Biso   1.000  O
  O28      1.0000 0.51670  0.08690  0.52030  Biso   1.000  O
  O29      1.0000 0.07280  0.97730  0.53690  Biso   1.000  O
  O30      1.0000 0.02280  0.92400  0.58560  Biso   1.000  O
  O31      1.0000 0.14390  0.80730  0.70290  Biso   1.000  O
  O32      1.0000 0.24380  0.80460  0.69740  Biso   1.000  O
  C105     1.0000 0.82480  0.18670  0.67860  Biso   1.000  C
  H57      1.0000 0.81130  0.14880  0.69070  Biso   1.000  H
  C106     1.0000 0.86070  0.18720  0.64340  Biso   1.000  C
  H58      1.0000 0.87100  0.14930  0.62990  Biso   1.000  H
  C107     1.0000 0.88550  0.24650  0.62420  Biso   1.000  C
  C108     1.0000 0.86470  0.30220  0.64310  Biso   1.000  C
  H59      1.0000 0.87610  0.34050  0.63050  Biso   1.000  H
  C109     1.0000 0.82690  0.30130  0.68070  Biso   1.000  C
  H60      1.0000 0.81510  0.33880  0.69420  Biso   1.000  H
  C110     1.0000 0.25040  0.92790  0.91380  Biso   1.000  C
  C111     1.0000 0.30800  0.95490  0.93030  Biso   1.000  C
  H61      1.0000 0.34470  0.94770  0.91430  Biso   1.000  H
  C112     1.0000 0.31190  0.98880  0.96610  Biso   1.000  C
  C113     1.0000 0.25650  0.00850  0.98710  Biso   1.000  C
  H62      1.0000 0.25820  0.03580  0.01120  Biso   1.000  H
  C114     1.0000 0.19940  0.98720  0.97170  Biso   1.000  C
  C115     1.0000 0.19570  0.94760  0.93430  Biso   1.000  C
  H63      1.0000 0.15680  0.93470  0.92350  Biso   1.000  H
  C116     1.0000 0.37410  0.01370  0.98130  Biso   1.000  C
  C117     1.0000 0.13930  0.00660  0.99240  Biso   1.000  C
  C118     1.0000 0.99090  0.13760  0.99250  Biso   1.000  C
  H64      1.0000 0.01320  0.13790  0.01910  Biso   1.000  H
  C119     1.0000 0.97460  0.19020  0.97460  Biso   1.000  C
  H65      1.0000 0.98660  0.22740  0.98840  Biso   1.000  H
  C120     1.0000 0.93850  0.19360  0.93420  Biso   1.000  C
  C121     1.0000 0.92020  0.13160  0.91630  Biso   1.000  C
  H66      1.0000 0.89570  0.12950  0.89070  Biso   1.000  H
  C122     1.0000 0.93750  0.08060  0.93560  Biso   1.000  C
  H67      1.0000 0.92390  0.04230  0.92420  Biso   1.000  H
  C123     1.0000 0.91850  0.25170  0.91370  Biso   1.000  C
  C124     1.0000 0.94170  0.31030  0.92760  Biso   1.000  C
  H68      1.0000 0.97350  0.31080  0.94880  Biso   1.000  H
  C125     1.0000 0.92080  0.36530  0.91220  Biso   1.000  C
  C126     1.0000 0.87920  0.36530  0.87570  Biso   1.000  C
  H69      1.0000 0.86660  0.40330  0.86330  Biso   1.000  H
  C127     1.0000 0.85700  0.30950  0.85800  Biso   1.000  C
  C128     1.0000 0.87730  0.25330  0.87530  Biso   1.000  C
  H70      1.0000 0.86440  0.21580  0.86230  Biso   1.000  H
  C129     1.0000 0.93830  0.42410  0.93030  Biso   1.000  C
  C130     1.0000 0.82180  0.30800  0.81930  Biso   1.000  C
  N9       1.0000 0.80680  0.24450  0.69820  Biso   1.000  N
  N10      1.0000 0.97590  0.08070  0.97290  Biso   1.000  N
  O33      1.0000 0.42170  0.98560  0.96580  Biso   1.000  O
  O34      1.0000 0.37490  0.06690  0.00080  Biso   1.000  O
  O35      1.0000 0.14080  0.04590  0.02340  Biso   1.000  O
  O36      1.0000 0.08690  0.98330  0.97970  Biso   1.000  O
  O37      1.0000 0.97730  0.42720  0.96310  Biso   1.000  O
  O38      1.0000 0.92400  0.47720  0.91440  Biso   1.000  O
  O39      1.0000 0.80730  0.35610  0.79710  Biso   1.000  O
  O40      1.0000 0.80460  0.25620  0.80260  Biso   1.000  O
  C131     1.0000 0.67520  0.31330  0.67860  Biso   1.000  C
  H71      1.0000 0.68870  0.35120  0.69070  Biso   1.000  H
  C132     1.0000 0.63930  0.31280  0.64340  Biso   1.000  C
  H72      1.0000 0.62900  0.35070  0.62990  Biso   1.000  H
  C133     1.0000 0.61450  0.25350  0.62420  Biso   1.000  C
  C134     1.0000 0.63530  0.19780  0.64310  Biso   1.000  C
  H73      1.0000 0.62390  0.15950  0.63050  Biso   1.000  H
  C135     1.0000 0.67310  0.19870  0.68070  Biso   1.000  C
  H74      1.0000 0.68490  0.16120  0.69420  Biso   1.000  H
  C136     1.0000 0.24960  0.57210  0.91380  Biso   1.000  C
  C137     1.0000 0.19200  0.54510  0.93030  Biso   1.000  C
  H75      1.0000 0.15530  0.55230  0.91430  Biso   1.000  H
  C138     1.0000 0.18810  0.51120  0.96610  Biso   1.000  C
  C139     1.0000 0.24350  0.49150  0.98710  Biso   1.000  C
  H76      1.0000 0.24180  0.46420  0.01120  Biso   1.000  H
  C140     1.0000 0.30060  0.51280  0.97170  Biso   1.000  C
  C141     1.0000 0.30430  0.55240  0.93430  Biso   1.000  C
  H77      1.0000 0.34320  0.56530  0.92350  Biso   1.000  H
  C142     1.0000 0.12590  0.48630  0.98130  Biso   1.000  C
  C143     1.0000 0.36070  0.49340  0.99240  Biso   1.000  C
  C144     1.0000 0.50910  0.36240  0.99250  Biso   1.000  C
  H78      1.0000 0.48680  0.36210  0.01910  Biso   1.000  H
  C145     1.0000 0.52540  0.30980  0.97460  Biso   1.000  C
  H79      1.0000 0.51340  0.27260  0.98840  Biso   1.000  H
  C146     1.0000 0.56150  0.30640  0.93420  Biso   1.000  C
  C147     1.0000 0.57980  0.36840  0.91630  Biso   1.000  C
  H80      1.0000 0.60430  0.37050  0.89070  Biso   1.000  H
  C148     1.0000 0.56250  0.41940  0.93560  Biso   1.000  C
  H81      1.0000 0.57610  0.45770  0.92420  Biso   1.000  H
  C149     1.0000 0.58150  0.24830  0.91370  Biso   1.000  C
  C150     1.0000 0.55830  0.18970  0.92760  Biso   1.000  C
  H82      1.0000 0.52650  0.18920  0.94880  Biso   1.000  H
  C151     1.0000 0.57920  0.13470  0.91220  Biso   1.000  C
  C152     1.0000 0.62080  0.13470  0.87570  Biso   1.000  C
  H83      1.0000 0.63340  0.09670  0.86330  Biso   1.000  H
  C153     1.0000 0.64300  0.19050  0.85800  Biso   1.000  C
  C154     1.0000 0.62270  0.24670  0.87530  Biso   1.000  C
  H84      1.0000 0.63560  0.28420  0.86230  Biso   1.000  H
  C155     1.0000 0.56170  0.07590  0.93030  Biso   1.000  C
  C156     1.0000 0.67820  0.19200  0.81930  Biso   1.000  C
  N11      1.0000 0.69320  0.25550  0.69820  Biso   1.000  N
  N12      1.0000 0.52410  0.41930  0.97290  Biso   1.000  N
  O41      1.0000 0.07830  0.51440  0.96580  Biso   1.000  O
  O42      1.0000 0.12510  0.43310  0.00080  Biso   1.000  O
  O43      1.0000 0.35920  0.45410  0.02340  Biso   1.000  O
  O44      1.0000 0.41310  0.51670  0.97970  Biso   1.000  O
  O45      1.0000 0.52270  0.07280  0.96310  Biso   1.000  O
  O46      1.0000 0.57600  0.02280  0.91440  Biso   1.000  O
  O47      1.0000 0.69270  0.14390  0.79710  Biso   1.000  O
  O48      1.0000 0.69540  0.24380  0.80260  Biso   1.000  O
  C157     1.0000 0.81330  0.32480  0.17860  Biso   1.000  C
  H85      1.0000 0.85120  0.31130  0.19070  Biso   1.000  H
  C158     1.0000 0.81280  0.36070  0.14340  Biso   1.000  C
  H86      1.0000 0.85070  0.37100  0.12990  Biso   1.000  H
  C159     1.0000 0.75350  0.38550  0.12420  Biso   1.000  C
  C160     1.0000 0.69780  0.36470  0.14310  Biso   1.000  C
  H87      1.0000 0.65950  0.37610  0.13050  Biso   1.000  H
  C161     1.0000 0.69870  0.32690  0.18070  Biso   1.000  C
  H88      1.0000 0.66120  0.31510  0.19420  Biso   1.000  H
  C162     1.0000 0.07210  0.75040  0.41380  Biso   1.000  C
  C163     1.0000 0.04510  0.80800  0.43030  Biso   1.000  C
  H89      1.0000 0.05230  0.84470  0.41430  Biso   1.000  H
  C164     1.0000 0.01120  0.81190  0.46610  Biso   1.000  C
  C165     1.0000 0.99150  0.75650  0.48710  Biso   1.000  C
  H90      1.0000 0.96420  0.75820  0.51120  Biso   1.000  H
  C166     1.0000 0.01280  0.69940  0.47170  Biso   1.000  C
  C167     1.0000 0.05240  0.69570  0.43430  Biso   1.000  C
  H91      1.0000 0.06530  0.65680  0.42350  Biso   1.000  H
  C168     1.0000 0.98630  0.87410  0.48130  Biso   1.000  C
  C169     1.0000 0.99340  0.63930  0.49240  Biso   1.000  C
  C170     1.0000 0.86240  0.49090  0.49250  Biso   1.000  C
  H92      1.0000 0.86210  0.51320  0.51910  Biso   1.000  H
  C171     1.0000 0.80980  0.47460  0.47460  Biso   1.000  C
  H93      1.0000 0.77260  0.48660  0.48840  Biso   1.000  H
  C172     1.0000 0.80640  0.43850  0.43420  Biso   1.000  C
  C173     1.0000 0.86840  0.42020  0.41630  Biso   1.000  C
  H94      1.0000 0.87050  0.39570  0.39070  Biso   1.000  H
  C174     1.0000 0.91940  0.43750  0.43560  Biso   1.000  C
  H95      1.0000 0.95770  0.42390  0.42420  Biso   1.000  H
  C175     1.0000 0.74830  0.41850  0.41370  Biso   1.000  C
  C176     1.0000 0.68970  0.44170  0.42760  Biso   1.000  C
  H96      1.0000 0.68920  0.47350  0.44880  Biso   1.000  H
  C177     1.0000 0.63470  0.42080  0.41220  Biso   1.000  C
  C178     1.0000 0.63470  0.37920  0.37570  Biso   1.000  C
  H97      1.0000 0.59670  0.36660  0.36330  Biso   1.000  H
  C179     1.0000 0.69050  0.35700  0.35800  Biso   1.000  C
  C180     1.0000 0.74670  0.37730  0.37530  Biso   1.000  C
  H98      1.0000 0.78420  0.36440  0.36230  Biso   1.000  H
  C181     1.0000 0.57590  0.43830  0.43030  Biso   1.000  C
  C182     1.0000 0.69200  0.32180  0.31930  Biso   1.000  C
  N13      1.0000 0.75550  0.30680  0.19820  Biso   1.000  N
  N14      1.0000 0.91930  0.47590  0.47290  Biso   1.000  N
  O49      1.0000 0.01440  0.92170  0.46580  Biso   1.000  O
  O50      1.0000 0.93310  0.87490  0.50080  Biso   1.000  O
  O51      1.0000 0.95410  0.64080  0.52340  Biso   1.000  O
  O52      1.0000 0.01670  0.58690  0.47970  Biso   1.000  O
  O53      1.0000 0.57280  0.47730  0.46310  Biso   1.000  O
  O54      1.0000 0.52280  0.42400  0.41440  Biso   1.000  O
  O55      1.0000 0.64390  0.30730  0.29710  Biso   1.000  O
  O56      1.0000 0.74380  0.30460  0.30260  Biso   1.000  O
  C183     1.0000 0.68670  0.17520  0.17860  Biso   1.000  C
  H99      1.0000 0.64880  0.18870  0.19070  Biso   1.000  H
  C184     1.0000 0.68720  0.13930  0.14340  Biso   1.000  C
  H100     1.0000 0.64930  0.12900  0.12990  Biso   1.000  H
  C185     1.0000 0.74650  0.11450  0.12420  Biso   1.000  C
  C186     1.0000 0.80220  0.13530  0.14310  Biso   1.000  C
  H101     1.0000 0.84050  0.12390  0.13050  Biso   1.000  H
  C187     1.0000 0.80130  0.17310  0.18070  Biso   1.000  C
  H102     1.0000 0.83880  0.18490  0.19420  Biso   1.000  H
  C188     1.0000 0.42790  0.74960  0.41380  Biso   1.000  C
  C189     1.0000 0.45490  0.69200  0.43030  Biso   1.000  C
  H103     1.0000 0.44770  0.65530  0.41430  Biso   1.000  H
  C190     1.0000 0.48880  0.68810  0.46610  Biso   1.000  C
  C191     1.0000 0.50850  0.74350  0.48710  Biso   1.000  C
  H104     1.0000 0.53580  0.74180  0.51120  Biso   1.000  H
  C192     1.0000 0.48720  0.80060  0.47170  Biso   1.000  C
  C193     1.0000 0.44760  0.80430  0.43430  Biso   1.000  C
  H105     1.0000 0.43470  0.84320  0.42350  Biso   1.000  H
  C194     1.0000 0.51370  0.62590  0.48130  Biso   1.000  C
  C195     1.0000 0.50660  0.86070  0.49240  Biso   1.000  C
  C196     1.0000 0.63760  0.00910  0.49250  Biso   1.000  C
  H106     1.0000 0.63790  0.98680  0.51910  Biso   1.000  H
  C197     1.0000 0.69020  0.02540  0.47460  Biso   1.000  C
  H107     1.0000 0.72740  0.01340  0.48840  Biso   1.000  H
  C198     1.0000 0.69360  0.06150  0.43420  Biso   1.000  C
  C199     1.0000 0.63160  0.07980  0.41630  Biso   1.000  C
  H108     1.0000 0.62950  0.10430  0.39070  Biso   1.000  H
  C200     1.0000 0.58060  0.06250  0.43560  Biso   1.000  C
  H109     1.0000 0.54230  0.07610  0.42420  Biso   1.000  H
  C201     1.0000 0.75170  0.08150  0.41370  Biso   1.000  C
  C202     1.0000 0.81030  0.05830  0.42760  Biso   1.000  C
  H110     1.0000 0.81080  0.02650  0.44880  Biso   1.000  H
  C203     1.0000 0.86530  0.07920  0.41220  Biso   1.000  C
  C204     1.0000 0.86530  0.12080  0.37570  Biso   1.000  C
  H111     1.0000 0.90330  0.13340  0.36330  Biso   1.000  H
  C205     1.0000 0.80950  0.14300  0.35800  Biso   1.000  C
  C206     1.0000 0.75330  0.12270  0.37530  Biso   1.000  C
  H112     1.0000 0.71580  0.13560  0.36230  Biso   1.000  H
  C207     1.0000 0.92410  0.06170  0.43030  Biso   1.000  C
  C208     1.0000 0.80800  0.17820  0.31930  Biso   1.000  C
  N15      1.0000 0.74450  0.19320  0.19820  Biso   1.000  N
  N16      1.0000 0.58070  0.02410  0.47290  Biso   1.000  N
  O57      1.0000 0.48560  0.57830  0.46580  Biso   1.000  O
  O58      1.0000 0.56690  0.62510  0.50080  Biso   1.000  O
  O59      1.0000 0.54590  0.85920  0.52340  Biso   1.000  O
  O60      1.0000 0.48330  0.91310  0.47970  Biso   1.000  O
  O61      1.0000 0.92720  0.02270  0.46310  Biso   1.000  O
  O62      1.0000 0.97720  0.07600  0.41440  Biso   1.000  O
  O63      1.0000 0.85610  0.19270  0.29710  Biso   1.000  O
  O64      1.0000 0.75620  0.19540  0.30260  Biso   1.000  O
  Cu1      1.0000 0.25000  0.75000  0.24840  Biso   1.000  Cu
  Cu2      1.0000 0.25000  0.75000  0.74840  Biso   1.000  Cu
  Cu3      1.0000 0.75000  0.25000  0.75160  Biso   1.000  Cu
  Cu4      1.0000 0.75000  0.25000  0.25160  Biso   1.000  Cu
  Cu5      1.0000 0.00000  0.00000  0.00000  Biso   1.000  Cu
  Cu6      1.0000 0.50000  0.50000  0.00000  Biso   1.000  Cu
  Cu7      1.0000 0.00000  0.50000  0.50000  Biso   1.000  Cu
  Cu8      1.0000 0.50000  0.00000  0.50000  Biso   1.000  Cu
  Cu9      1.0000 0.00000  0.50000  0.00000  Biso   1.000  Cu
  Cu10     1.0000 0.50000  0.00000  0.00000  Biso   1.000  Cu
  Cu11     1.0000 0.50000  0.50000  0.50000  Biso   1.000  Cu
  Cu12     1.0000 0.00000  0.00000  0.50000  Biso   1.000  Cu
