data_cg301725z_si_002_clean
_audit_creation_date              2015-08-19
_audit_creation_method            'Materials Studio'
_symmetry_space_group_name_H-M    'P1'
_symmetry_Int_Tables_number       1
_symmetry_cell_setting            triclinic
loop_
_symmetry_equiv_pos_as_xyz
  x,y,z
_cell_length_a                    12.4378
_cell_length_b                    14.7717
_cell_length_c                    16.6097
_cell_angle_alpha                 90.0000
_cell_angle_beta                  90.0000
_cell_angle_gamma                 90.0000
loop_
_atom_site_label
_atom_site_type_symbol
_atom_site_fract_x
_atom_site_fract_y
_atom_site_fract_z
_atom_site_U_iso_or_equiv
_atom_site_adp_type
_atom_site_occupancy
Mn1    Mn    0.60456   0.01660   0.57985   0.01267  Uiso   1.00
Mn2    Mn    0.39544   0.51660   0.92015   0.01267  Uiso   1.00
Mn3    Mn    0.39544   0.98340   0.42015   0.01267  Uiso   1.00
Mn4    Mn    0.10456   0.01660   0.92015   0.01267  Uiso   1.00
Mn5    Mn    0.89544   0.51660   0.57985   0.01267  Uiso   1.00
Mn6    Mn    0.60456   0.48340   0.07985   0.01267  Uiso   1.00
Mn7    Mn    0.89544   0.98340   0.07985   0.01267  Uiso   1.00
Mn8    Mn    0.10456   0.48340   0.42015   0.01267  Uiso   1.00
H1     H     0.77540   0.96890   0.34960   0.01267  Uiso   1.00
H2     H     0.66080   0.24070   0.01430   0.01267  Uiso   1.00
H3     H     0.83920   0.74070   0.01430   0.01267  Uiso   1.00
H4     H     0.72460   0.46890   0.34960   0.01267  Uiso   1.00
H5     H     0.33920   0.74070   0.48570   0.01267  Uiso   1.00
H6     H     0.16080   0.25930   0.98570   0.01267  Uiso   1.00
H7     H     0.55910   0.23470   0.28560   0.01267  Uiso   1.00
H8     H     0.44090   0.76530   0.71440   0.01267  Uiso   1.00
H9     H     0.94090   0.76530   0.78560   0.01267  Uiso   1.00
H10    H     0.16080   0.24070   0.48570   0.01267  Uiso   1.00
H11    H     0.94090   0.73470   0.28560   0.01267  Uiso   1.00
H12    H     0.66080   0.25930   0.51430   0.01267  Uiso   1.00
H13    H     0.77540   0.53110   0.84960   0.01267  Uiso   1.00
H14    H     0.22460   0.03110   0.65040   0.01267  Uiso   1.00
H15    H     0.33920   0.75930   0.98570   0.01267  Uiso   1.00
H16    H     0.05910   0.23470   0.21440   0.01267  Uiso   1.00
H17    H     0.55910   0.26530   0.78560   0.01267  Uiso   1.00
H18    H     0.22460   0.46890   0.15040   0.01267  Uiso   1.00
H19    H     0.44090   0.73470   0.21440   0.01267  Uiso   1.00
H20    H     0.27540   0.96890   0.15040   0.01267  Uiso   1.00
H21    H     0.05910   0.26530   0.71440   0.01267  Uiso   1.00
H22    H     0.27540   0.53110   0.65040   0.01267  Uiso   1.00
H23    H     0.83920   0.75930   0.51430   0.01267  Uiso   1.00
H24    H     0.72460   0.03110   0.84960   0.01267  Uiso   1.00
C1     C     0.86270   0.90220   0.21980   0.01267  Uiso   1.00
C2     C     0.70340   0.36990   0.43930   0.01267  Uiso   1.00
C3     C     0.90620   0.76790   0.32720   0.01267  Uiso   1.00
C4     C     0.70340   0.13010   0.93930   0.01267  Uiso   1.00
C5     C     0.65320   0.28090   0.46070   0.01267  Uiso   1.00
C6     C     0.59380   0.26790   0.32720   0.01267  Uiso   1.00
C7     C     0.90620   0.73210   0.82720   0.01267  Uiso   1.00
C8     C     0.59550   0.22800   0.40550   0.01267  Uiso   1.00
C9     C     0.85760   0.64150   0.80440   0.01267  Uiso   1.00
C10    C     0.29660   0.63010   0.56070   0.01267  Uiso   1.00
C11    C     0.80430   0.58910   0.86140   0.01267  Uiso   1.00
C12    C     0.79660   0.63010   0.93930   0.01267  Uiso   1.00
C13    C     0.86270   0.59780   0.71980   0.01267  Uiso   1.00
C14    C     0.13730   0.09780   0.78020   0.01267  Uiso   1.00
C15    C     0.14240   0.14150   0.69560   0.01267  Uiso   1.00
C16    C     0.15320   0.28090   0.03930   0.01267  Uiso   1.00
C17    C     0.40620   0.76790   0.17280   0.01267  Uiso   1.00
C18    C     0.34680   0.78090   0.03930   0.01267  Uiso   1.00
C19    C     0.59550   0.27200   0.90550   0.01267  Uiso   1.00
C20    C     0.35760   0.64150   0.69560   0.01267  Uiso   1.00
C21    C     0.69570   0.41090   0.36140   0.01267  Uiso   1.00
C22    C     0.26890   0.42210   0.00310   0.01267  Uiso   1.00
C23    C     0.20340   0.36990   0.06070   0.01267  Uiso   1.00
C24    C     0.40620   0.73210   0.67280   0.01267  Uiso   1.00
C25    C     0.69570   0.08910   0.86140   0.01267  Uiso   1.00
C26    C     0.09380   0.23210   0.67280   0.01267  Uiso   1.00
C27    C     0.84680   0.78090   0.46070   0.01267  Uiso   1.00
C28    C     0.73110   0.92210   0.49690   0.01267  Uiso   1.00
C29    C     0.13730   0.40220   0.28020   0.01267  Uiso   1.00
C30    C     0.35760   0.85850   0.19560   0.01267  Uiso   1.00
C31    C     0.23110   0.92210   0.00310   0.01267  Uiso   1.00
C32    C     0.76890   0.07790   0.99690   0.01267  Uiso   1.00
C33    C     0.09380   0.26790   0.17280   0.01267  Uiso   1.00
C34    C     0.46120   0.63960   0.07100   0.01267  Uiso   1.00
C35    C     0.96120   0.86040   0.92900   0.01267  Uiso   1.00
C36    C     0.19570   0.41090   0.13860   0.01267  Uiso   1.00
C37    C     0.40450   0.77200   0.59450   0.01267  Uiso   1.00
C38    C     0.15320   0.21910   0.53930   0.01267  Uiso   1.00
C39    C     0.53880   0.13960   0.42900   0.01267  Uiso   1.00
C40    C     0.19570   0.08910   0.63860   0.01267  Uiso   1.00
C41    C     0.09550   0.22800   0.09450   0.01267  Uiso   1.00
C42    C     0.76890   0.42210   0.49690   0.01267  Uiso   1.00
C43    C     0.29660   0.86990   0.06070   0.01267  Uiso   1.00
C44    C     0.80430   0.91090   0.36140   0.01267  Uiso   1.00
C45    C     0.14240   0.35850   0.19560   0.01267  Uiso   1.00
C46    C     0.59380   0.23210   0.82720   0.01267  Uiso   1.00
C47    C     0.65320   0.21910   0.96070   0.01267  Uiso   1.00
C48    C     0.73110   0.57790   0.99690   0.01267  Uiso   1.00
C49    C     0.90450   0.77200   0.90550   0.01267  Uiso   1.00
C50    C     0.85760   0.85850   0.30440   0.01267  Uiso   1.00
C51    C     0.40450   0.72800   0.09450   0.01267  Uiso   1.00
C52    C     0.36270   0.59780   0.78020   0.01267  Uiso   1.00
C53    C     0.96120   0.63960   0.42900   0.01267  Uiso   1.00
C54    C     0.23110   0.57790   0.50310   0.01267  Uiso   1.00
C55    C     0.20340   0.13010   0.56070   0.01267  Uiso   1.00
C56    C     0.90450   0.72800   0.40550   0.01267  Uiso   1.00
C57    C     0.30430   0.91090   0.13860   0.01267  Uiso   1.00
C58    C     0.09550   0.27200   0.59450   0.01267  Uiso   1.00
C59    C     0.03880   0.13960   0.07100   0.01267  Uiso   1.00
C60    C     0.03880   0.36040   0.57100   0.01267  Uiso   1.00
C61    C     0.30430   0.58910   0.63860   0.01267  Uiso   1.00
C62    C     0.63730   0.40220   0.21980   0.01267  Uiso   1.00
C63    C     0.53880   0.36040   0.92900   0.01267  Uiso   1.00
C64    C     0.64240   0.35850   0.30440   0.01267  Uiso   1.00
C65    C     0.63730   0.09780   0.71980   0.01267  Uiso   1.00
C66    C     0.64240   0.14150   0.80440   0.01267  Uiso   1.00
C67    C     0.84680   0.71910   0.96070   0.01267  Uiso   1.00
C68    C     0.36270   0.90220   0.28020   0.01267  Uiso   1.00
C69    C     0.26890   0.07790   0.50310   0.01267  Uiso   1.00
C70    C     0.79660   0.86990   0.43930   0.01267  Uiso   1.00
C71    C     0.46120   0.86040   0.57100   0.01267  Uiso   1.00
C72    C     0.34680   0.71910   0.53930   0.01267  Uiso   1.00
O1     O     0.32800   0.99030   0.29570   0.01267  Uiso   1.00
O2     O     0.69910   0.86720   0.55320   0.01267  Uiso   1.00
O3     O     0.67200   0.49030   0.20430   0.01267  Uiso   1.00
O4     O     0.49910   0.58290   0.12496   0.01267  Uiso   1.00
O5     O     0.19910   0.63280   0.44680   0.01267  Uiso   1.00
O6     O     0.40410   0.65210   0.83250   0.01267  Uiso   1.00
O7     O     0.70770   0.48300   0.98570   0.01267  Uiso   1.00
O8     O     0.32800   0.50970   0.79570   0.01267  Uiso   1.00
O9     O     0.97470   0.61960   0.50383   0.01267  Uiso   1.00
O10    O     0.59590   0.34790   0.16750   0.01267  Uiso   1.00
O11    O     0.70770   0.01700   0.48570   0.01267  Uiso   1.00
O12    O     0.49910   0.91710   0.62496   0.01267  Uiso   1.00
O13    O     0.80090   0.13280   0.05320   0.01267  Uiso   1.00
O14    O     0.40410   0.84790   0.33250   0.01267  Uiso   1.00
O15    O     0.47470   0.88040   0.49617   0.01267  Uiso   1.00
O16    O     0.17200   0.00970   0.79570   0.01267  Uiso   1.00
O17    O     0.02530   0.38040   0.49617   0.01267  Uiso   1.00
O18    O     0.69910   0.63280   0.05320   0.01267  Uiso   1.00
O19    O     0.79230   0.98300   0.98570   0.01267  Uiso   1.00
O20    O     0.80090   0.36720   0.55320   0.01267  Uiso   1.00
O21    O     0.79230   0.51700   0.48570   0.01267  Uiso   1.00
O22    O     0.52530   0.11960   0.50383   0.01267  Uiso   1.00
O23    O     0.50090   0.41710   0.87504   0.01267  Uiso   1.00
O24    O     0.17200   0.49030   0.29570   0.01267  Uiso   1.00
O25    O     0.19910   0.86720   0.94680   0.01267  Uiso   1.00
O26    O     0.30090   0.13280   0.44680   0.01267  Uiso   1.00
O27    O     0.29230   0.98300   0.51430   0.01267  Uiso   1.00
O28    O     0.02530   0.11960   0.99617   0.01267  Uiso   1.00
O29    O     0.20770   0.01700   0.01430   0.01267  Uiso   1.00
O30    O     0.90410   0.84790   0.16750   0.01267  Uiso   1.00
O31    O     0.00090   0.08290   0.12496   0.01267  Uiso   1.00
O32    O     0.90410   0.65210   0.66750   0.01267  Uiso   1.00
O33    O     0.97470   0.88040   0.00383   0.01267  Uiso   1.00
O34    O     0.67200   0.00970   0.70430   0.01267  Uiso   1.00
O35    O     0.30090   0.36720   0.94680   0.01267  Uiso   1.00
O36    O     0.99910   0.58290   0.37504   0.01267  Uiso   1.00
O37    O     0.00090   0.41710   0.62496   0.01267  Uiso   1.00
O38    O     0.82800   0.99030   0.20430   0.01267  Uiso   1.00
O39    O     0.99910   0.91710   0.87504   0.01267  Uiso   1.00
O40    O     0.82800   0.50970   0.70430   0.01267  Uiso   1.00
O41    O     0.09590   0.15210   0.83250   0.01267  Uiso   1.00
O42    O     0.09590   0.34790   0.33250   0.01267  Uiso   1.00
O43    O     0.20770   0.48300   0.51430   0.01267  Uiso   1.00
O44    O     0.52530   0.38040   0.00383   0.01267  Uiso   1.00
O45    O     0.50090   0.08290   0.37504   0.01267  Uiso   1.00
O46    O     0.29230   0.51700   0.01430   0.01267  Uiso   1.00
O47    O     0.59590   0.15210   0.66750   0.01267  Uiso   1.00
O48    O     0.47470   0.61960   0.99617   0.01267  Uiso   1.00
