data_cg501012e_si_002_clean
_audit_creation_date              2015-08-19
_audit_creation_method            'Materials Studio'
_symmetry_space_group_name_H-M    'P1'
_symmetry_Int_Tables_number       1
_symmetry_cell_setting            triclinic
loop_
_symmetry_equiv_pos_as_xyz
  x,y,z
_cell_length_a                    18.5037
_cell_length_b                    18.5037
_cell_length_c                    18.5037
_cell_angle_alpha                 101.7390
_cell_angle_beta                  101.7390
_cell_angle_gamma                 101.7390
loop_
_atom_site_label
_atom_site_type_symbol
_atom_site_fract_x
_atom_site_fract_y
_atom_site_fract_z
_atom_site_U_iso_or_equiv
_atom_site_adp_type
_atom_site_occupancy
Zn1    Zn    0.35421   0.14693   0.74919   0.01267  Uiso   1.00
Zn2    Zn    0.25081   0.64579   0.85307   0.01267  Uiso   1.00
Zn3    Zn    0.64579   0.85307   0.25081   0.01267  Uiso   1.00
Zn4    Zn    0.74919   0.35421   0.14693   0.01267  Uiso   1.00
Zn5    Zn    0.14693   0.74919   0.35421   0.01267  Uiso   1.00
Zn6    Zn    0.85307   0.25081   0.64579   0.01267  Uiso   1.00
H1     H     0.97400   0.15590   0.20880   0.01267  Uiso   1.00
H2     H     0.32070   0.87070   0.02340   0.01267  Uiso   1.00
H3     H     0.59020   0.09950   0.87050   0.01267  Uiso   1.00
H4     H     0.27820   0.65620   0.14420   0.01267  Uiso   1.00
H5     H     0.12090   0.77980   0.76810   0.01267  Uiso   1.00
H6     H     0.00770   0.14280   0.74270   0.01267  Uiso   1.00
H7     H     0.90620   0.29390   0.80170   0.01267  Uiso   1.00
H8     H     0.65620   0.14420   0.27820   0.01267  Uiso   1.00
H9     H     0.87910   0.22020   0.23190   0.01267  Uiso   1.00
H10    H     0.12950   0.40980   0.90050   0.01267  Uiso   1.00
H11    H     0.06410   0.83060   0.02430   0.01267  Uiso   1.00
H12    H     0.85580   0.72180   0.34380   0.01267  Uiso   1.00
H13    H     0.09380   0.70610   0.19830   0.01267  Uiso   1.00
H14    H     0.12930   0.97660   0.67930   0.01267  Uiso   1.00
H15    H     0.16940   0.97570   0.93590   0.01267  Uiso   1.00
H16    H     0.14000   0.08810   0.98220   0.01267  Uiso   1.00
H17    H     0.09950   0.87050   0.59020   0.01267  Uiso   1.00
H18    H     0.15590   0.20880   0.97400   0.01267  Uiso   1.00
H19    H     0.87070   0.02340   0.32070   0.01267  Uiso   1.00
H20    H     0.70610   0.19830   0.09380   0.01267  Uiso   1.00
H21    H     0.23190   0.87910   0.22020   0.01267  Uiso   1.00
H22    H     0.79120   0.02600   0.84410   0.01267  Uiso   1.00
H23    H     0.90050   0.12950   0.40980   0.01267  Uiso   1.00
H24    H     0.25730   0.99230   0.85720   0.01267  Uiso   1.00
H25    H     0.86000   0.91190   0.01780   0.01267  Uiso   1.00
H26    H     0.72180   0.34380   0.85580   0.01267  Uiso   1.00
H27    H     0.85720   0.25730   0.99230   0.01267  Uiso   1.00
H28    H     0.84410   0.79120   0.02600   0.01267  Uiso   1.00
H29    H     0.99230   0.85720   0.25730   0.01267  Uiso   1.00
H30    H     0.97570   0.93590   0.16940   0.01267  Uiso   1.00
H31    H     0.20880   0.97400   0.15590   0.01267  Uiso   1.00
H32    H     0.98220   0.14000   0.08810   0.01267  Uiso   1.00
H33    H     0.02430   0.06410   0.83060   0.01267  Uiso   1.00
H34    H     0.40980   0.90050   0.12950   0.01267  Uiso   1.00
H35    H     0.76810   0.12090   0.77980   0.01267  Uiso   1.00
H36    H     0.32140   0.42420   0.83610   0.01267  Uiso   1.00
H37    H     0.22020   0.23190   0.87910   0.01267  Uiso   1.00
H38    H     0.97660   0.67930   0.12930   0.01267  Uiso   1.00
H39    H     0.74270   0.00770   0.14280   0.01267  Uiso   1.00
H40    H     0.02600   0.84410   0.79120   0.01267  Uiso   1.00
H41    H     0.83610   0.32140   0.42420   0.01267  Uiso   1.00
H42    H     0.19830   0.09380   0.70610   0.01267  Uiso   1.00
H43    H     0.42420   0.83610   0.32140   0.01267  Uiso   1.00
H44    H     0.83060   0.02430   0.06410   0.01267  Uiso   1.00
H45    H     0.77980   0.76810   0.12090   0.01267  Uiso   1.00
H46    H     0.34380   0.85580   0.72180   0.01267  Uiso   1.00
H47    H     0.67930   0.12930   0.97660   0.01267  Uiso   1.00
H48    H     0.14420   0.27820   0.65620   0.01267  Uiso   1.00
H49    H     0.93590   0.16940   0.97570   0.01267  Uiso   1.00
H50    H     0.01780   0.86000   0.91190   0.01267  Uiso   1.00
H51    H     0.87050   0.59020   0.09950   0.01267  Uiso   1.00
H52    H     0.02340   0.32070   0.87070   0.01267  Uiso   1.00
H53    H     0.80170   0.90620   0.29390   0.01267  Uiso   1.00
H54    H     0.91190   0.01780   0.86000   0.01267  Uiso   1.00
H55    H     0.57580   0.16390   0.67860   0.01267  Uiso   1.00
H56    H     0.08810   0.98220   0.14000   0.01267  Uiso   1.00
H57    H     0.14280   0.74270   0.00770   0.01267  Uiso   1.00
H58    H     0.16390   0.67860   0.57580   0.01267  Uiso   1.00
H59    H     0.29390   0.80170   0.90620   0.01267  Uiso   1.00
H60    H     0.67860   0.57580   0.16390   0.01267  Uiso   1.00
C1     C     0.27166   0.91870   0.09959   0.01267  Uiso   1.00
C2     C     0.35850   0.75110   0.79830   0.01267  Uiso   1.00
C3     C     0.02942   0.28556   0.89943   0.01267  Uiso   1.00
C4     C     0.16471   0.12486   0.70383   0.01267  Uiso   1.00
C5     C     0.28556   0.89943   0.02942   0.01267  Uiso   1.00
C6     C     0.13940   0.77600   0.49180   0.01267  Uiso   1.00
C7     C     0.21830   0.69909   0.06803   0.01267  Uiso   1.00
C8     C     0.24989   0.92061   0.96747   0.01267  Uiso   1.00
C9     C     0.95306   0.82033   0.01757   0.01267  Uiso   1.00
C10    C     0.61232   0.10981   0.83162   0.01267  Uiso   1.00
C11    C     0.11176   0.08074   0.01756   0.01267  Uiso   1.00
C12    C     0.91926   0.98244   0.88824   0.01267  Uiso   1.00
C13    C     0.81175   0.32443   0.81762   0.01267  Uiso   1.00
C14    C     0.28203   0.87720   0.22192   0.01267  Uiso   1.00
C15    C     0.05186   0.15393   0.72599   0.01267  Uiso   1.00
C16    C     0.24890   0.20170   0.64150   0.01267  Uiso   1.00
C17    C     0.93197   0.78170   0.30091   0.01267  Uiso   1.00
C18    C     0.09959   0.27166   0.91870   0.01267  Uiso   1.00
C19    C     0.02257   0.80450   0.03814   0.01267  Uiso   1.00
C20    C     0.77600   0.49180   0.13940   0.01267  Uiso   1.00
C21    C     0.71797   0.12280   0.77808   0.01267  Uiso   1.00
C22    C     0.08074   0.01756   0.11176   0.01267  Uiso   1.00
C23    C     0.75011   0.07939   0.03253   0.01267  Uiso   1.00
C24    C     0.60334   0.14876   0.71810   0.01267  Uiso   1.00
C25    C     0.38768   0.89019   0.16838   0.01267  Uiso   1.00
C26    C     0.86060   0.22400   0.50820   0.01267  Uiso   1.00
C27    C     0.92061   0.96747   0.24989   0.01267  Uiso   1.00
C28    C     0.87514   0.29617   0.83529   0.01267  Uiso   1.00
C29    C     0.66150   0.71470   0.17020   0.01267  Uiso   1.00
C30    C     0.89019   0.16838   0.38768   0.01267  Uiso   1.00
C31    C     0.96032   0.10837   0.21871   0.01267  Uiso   1.00
C32    C     0.96747   0.24989   0.92061   0.01267  Uiso   1.00
C33    C     0.81762   0.81175   0.32443   0.01267  Uiso   1.00
C34    C     0.01202   0.26628   0.69020   0.01267  Uiso   1.00
C35    C     0.72865   0.09997   0.10559   0.01267  Uiso   1.00
C36    C     0.08130   0.90041   0.72834   0.01267  Uiso   1.00
C37    C     0.67416   0.13329   0.23485   0.01267  Uiso   1.00
C38    C     0.20170   0.64150   0.24890   0.01267  Uiso   1.00
C39    C     0.71968   0.67763   0.14489   0.01267  Uiso   1.00
C40    C     0.68525   0.10310   0.83545   0.01267  Uiso   1.00
C41    C     0.26628   0.69020   0.01202   0.01267  Uiso   1.00
C42    C     0.85124   0.28190   0.39666   0.01267  Uiso   1.00
C43    C     0.97268   0.94110   0.87631   0.01267  Uiso   1.00
C44    C     0.12280   0.77808   0.71797   0.01267  Uiso   1.00
C45    C     0.76515   0.32584   0.86671   0.01267  Uiso   1.00
C46    C     0.89690   0.16455   0.31475   0.01267  Uiso   1.00
C47    C     0.10981   0.83162   0.61232   0.01267  Uiso   1.00
C48    C     0.05890   0.12369   0.02732   0.01267  Uiso   1.00
C49    C     0.64150   0.24890   0.20170   0.01267  Uiso   1.00
C50    C     0.10837   0.21871   0.96032   0.01267  Uiso   1.00
C51    C     0.31475   0.89690   0.16455   0.01267  Uiso   1.00
C52    C     0.77338   0.57039   0.13093   0.01267  Uiso   1.00
C53    C     0.72599   0.05186   0.15393   0.01267  Uiso   1.00
C54    C     0.89163   0.78129   0.03968   0.01267  Uiso   1.00
C55    C     0.33850   0.28530   0.82980   0.01267  Uiso   1.00
C56    C     0.19550   0.96186   0.97743   0.01267  Uiso   1.00
C57    C     0.16838   0.38768   0.89019   0.01267  Uiso   1.00
C58    C     0.84607   0.27401   0.94814   0.01267  Uiso   1.00
C59    C     0.16455   0.31475   0.89690   0.01267  Uiso   1.00
C60    C     0.22400   0.50820   0.86060   0.01267  Uiso   1.00
C61    C     0.12486   0.70383   0.16471   0.01267  Uiso   1.00
C62    C     0.15393   0.72599   0.05186   0.01267  Uiso   1.00
C63    C     0.67763   0.14489   0.71968   0.01267  Uiso   1.00
C64    C     0.10559   0.72865   0.09997   0.01267  Uiso   1.00
C65    C     0.14876   0.71810   0.60334   0.01267  Uiso   1.00
C66    C     0.83162   0.61232   0.10981   0.01267  Uiso   1.00
C67    C     0.50820   0.86060   0.22400   0.01267  Uiso   1.00
C68    C     0.30091   0.93197   0.78170   0.01267  Uiso   1.00
C69    C     0.69909   0.06803   0.21830   0.01267  Uiso   1.00
C70    C     0.02732   0.05890   0.12369   0.01267  Uiso   1.00
C71    C     0.98244   0.88824   0.91926   0.01267  Uiso   1.00
C72    C     0.83529   0.87514   0.29617   0.01267  Uiso   1.00
C73    C     0.14489   0.71968   0.67763   0.01267  Uiso   1.00
C74    C     0.04694   0.17967   0.98243   0.01267  Uiso   1.00
C75    C     0.86907   0.22662   0.42961   0.01267  Uiso   1.00
C76    C     0.98243   0.04694   0.17967   0.01267  Uiso   1.00
C77    C     0.28530   0.82980   0.33850   0.01267  Uiso   1.00
C78    C     0.82033   0.01757   0.95306   0.01267  Uiso   1.00
C79    C     0.82980   0.33850   0.28530   0.01267  Uiso   1.00
C80    C     0.88824   0.91926   0.98244   0.01267  Uiso   1.00
C81    C     0.13329   0.23485   0.67416   0.01267  Uiso   1.00
C82    C     0.22192   0.28203   0.87720   0.01267  Uiso   1.00
C83    C     0.97743   0.19550   0.96186   0.01267  Uiso   1.00
C84    C     0.29617   0.83529   0.87514   0.01267  Uiso   1.00
C85    C     0.94110   0.87631   0.97268   0.01267  Uiso   1.00
C86    C     0.42961   0.86907   0.22662   0.01267  Uiso   1.00
C87    C     0.49180   0.13940   0.77600   0.01267  Uiso   1.00
C88    C     0.10057   0.97058   0.71444   0.01267  Uiso   1.00
C89    C     0.27135   0.90003   0.89441   0.01267  Uiso   1.00
C90    C     0.89441   0.27135   0.90003   0.01267  Uiso   1.00
C91    C     0.57039   0.13093   0.77338   0.01267  Uiso   1.00
C92    C     0.71444   0.10057   0.97058   0.01267  Uiso   1.00
C93    C     0.18238   0.18825   0.67557   0.01267  Uiso   1.00
C94    C     0.98798   0.73372   0.30980   0.01267  Uiso   1.00
C95    C     0.83545   0.68525   0.10310   0.01267  Uiso   1.00
C96    C     0.03814   0.02257   0.80450   0.01267  Uiso   1.00
C97    C     0.71810   0.60334   0.14876   0.01267  Uiso   1.00
C98    C     0.06803   0.21830   0.69909   0.01267  Uiso   1.00
C99    C     0.03253   0.75011   0.07939   0.01267  Uiso   1.00
C100   C     0.32584   0.86671   0.76515   0.01267  Uiso   1.00
C101   C     0.28032   0.32237   0.85511   0.01267  Uiso   1.00
C102   C     0.18825   0.67557   0.18238   0.01267  Uiso   1.00
C103   C     0.12369   0.02732   0.05890   0.01267  Uiso   1.00
C104   C     0.87631   0.97268   0.94110   0.01267  Uiso   1.00
C105   C     0.09997   0.10559   0.72865   0.01267  Uiso   1.00
C106   C     0.39666   0.85124   0.28190   0.01267  Uiso   1.00
C107   C     0.87720   0.22192   0.28203   0.01267  Uiso   1.00
C108   C     0.32443   0.81762   0.81175   0.01267  Uiso   1.00
C109   C     0.80450   0.03814   0.02257   0.01267  Uiso   1.00
C110   C     0.17967   0.98243   0.04694   0.01267  Uiso   1.00
C111   C     0.10310   0.83545   0.68525   0.01267  Uiso   1.00
C112   C     0.32237   0.85511   0.28032   0.01267  Uiso   1.00
C113   C     0.94814   0.84607   0.27401   0.01267  Uiso   1.00
C114   C     0.21871   0.96032   0.10837   0.01267  Uiso   1.00
C115   C     0.86671   0.76515   0.32584   0.01267  Uiso   1.00
C116   C     0.28190   0.39666   0.85124   0.01267  Uiso   1.00
C117   C     0.91870   0.09959   0.27166   0.01267  Uiso   1.00
C118   C     0.78129   0.03968   0.89163   0.01267  Uiso   1.00
C119   C     0.78170   0.30091   0.93197   0.01267  Uiso   1.00
C120   C     0.07939   0.03253   0.75011   0.01267  Uiso   1.00
C121   C     0.27401   0.94814   0.84607   0.01267  Uiso   1.00
C122   C     0.30980   0.98798   0.73372   0.01267  Uiso   1.00
C123   C     0.79830   0.35850   0.75110   0.01267  Uiso   1.00
C124   C     0.97058   0.71444   0.10057   0.01267  Uiso   1.00
C125   C     0.75110   0.79830   0.35850   0.01267  Uiso   1.00
C126   C     0.01756   0.11176   0.08074   0.01267  Uiso   1.00
C127   C     0.90003   0.89441   0.27135   0.01267  Uiso   1.00
C128   C     0.85511   0.28032   0.32237   0.01267  Uiso   1.00
C129   C     0.22662   0.42961   0.86907   0.01267  Uiso   1.00
C130   C     0.89943   0.02942   0.28556   0.01267  Uiso   1.00
C131   C     0.90041   0.72834   0.08130   0.01267  Uiso   1.00
C132   C     0.69020   0.01202   0.26628   0.01267  Uiso   1.00
C133   C     0.23485   0.67416   0.13329   0.01267  Uiso   1.00
C134   C     0.72834   0.08130   0.90041   0.01267  Uiso   1.00
C135   C     0.77808   0.71797   0.12280   0.01267  Uiso   1.00
C136   C     0.67557   0.18238   0.18825   0.01267  Uiso   1.00
C137   C     0.71470   0.17020   0.66150   0.01267  Uiso   1.00
C138   C     0.96186   0.97743   0.19550   0.01267  Uiso   1.00
C139   C     0.13093   0.77338   0.57039   0.01267  Uiso   1.00
C140   C     0.70383   0.16471   0.12486   0.01267  Uiso   1.00
C141   C     0.03968   0.89163   0.78129   0.01267  Uiso   1.00
C142   C     0.01757   0.95306   0.82033   0.01267  Uiso   1.00
C143   C     0.73372   0.30980   0.98798   0.01267  Uiso   1.00
C144   C     0.17020   0.66150   0.71470   0.01267  Uiso   1.00
O1     O     0.32220   0.81051   0.38989   0.01267  Uiso   1.00
O2     O     0.16927   0.65672   0.30160   0.01267  Uiso   1.00
O3     O     0.81051   0.38989   0.32220   0.01267  Uiso   1.00
O4     O     0.76128   0.30074   0.05168   0.01267  Uiso   1.00
O5     O     0.45171   0.15023   0.71877   0.01267  Uiso   1.00
O6     O     0.34328   0.69840   0.83073   0.01267  Uiso   1.00
O7     O     0.33025   0.97088   0.67517   0.01267  Uiso   1.00
O8     O     0.97088   0.67517   0.33025   0.01267  Uiso   1.00
O9     O     0.16970   0.66875   0.78370   0.01267  Uiso   1.00
O10    O     0.86907   0.17005   0.53361   0.01267  Uiso   1.00
O11    O     0.21630   0.83030   0.33125   0.01267  Uiso   1.00
O12    O     0.65672   0.30160   0.16927   0.01267  Uiso   1.00
O13    O     0.54829   0.84977   0.28123   0.01267  Uiso   1.00
O14    O     0.33125   0.21630   0.83030   0.01267  Uiso   1.00
O15    O     0.71877   0.45171   0.15023   0.01267  Uiso   1.00
O16    O     0.67517   0.33025   0.97088   0.01267  Uiso   1.00
O17    O     0.30074   0.05168   0.76128   0.01267  Uiso   1.00
O18    O     0.59794   0.24908   0.24478   0.01267  Uiso   1.00
O19    O     0.69926   0.94832   0.23872   0.01267  Uiso   1.00
O20    O     0.75522   0.40206   0.75092   0.01267  Uiso   1.00
O21    O     0.15023   0.71877   0.45171   0.01267  Uiso   1.00
O22    O     0.66875   0.78370   0.16970   0.01267  Uiso   1.00
O23    O     0.53361   0.86907   0.17005   0.01267  Uiso   1.00
O24    O     0.02912   0.32483   0.66975   0.01267  Uiso   1.00
O25    O     0.24908   0.24478   0.59794   0.01267  Uiso   1.00
O26    O     0.82995   0.46639   0.13093   0.01267  Uiso   1.00
O27    O     0.23872   0.69926   0.94832   0.01267  Uiso   1.00
O28    O     0.05168   0.76128   0.30074   0.01267  Uiso   1.00
O29    O     0.30160   0.16927   0.65672   0.01267  Uiso   1.00
O30    O     0.94832   0.23872   0.69926   0.01267  Uiso   1.00
O31    O     0.17005   0.53361   0.86907   0.01267  Uiso   1.00
O32    O     0.24478   0.59794   0.24908   0.01267  Uiso   1.00
O33    O     0.78370   0.16970   0.66875   0.01267  Uiso   1.00
O34    O     0.28123   0.54829   0.84977   0.01267  Uiso   1.00
O35    O     0.38989   0.32220   0.81051   0.01267  Uiso   1.00
O36    O     0.61011   0.67780   0.18949   0.01267  Uiso   1.00
O37    O     0.84977   0.28123   0.54829   0.01267  Uiso   1.00
O38    O     0.83030   0.33125   0.21630   0.01267  Uiso   1.00
O39    O     0.67780   0.18949   0.61011   0.01267  Uiso   1.00
O40    O     0.18949   0.61011   0.67780   0.01267  Uiso   1.00
O41    O     0.32483   0.66975   0.02912   0.01267  Uiso   1.00
O42    O     0.75092   0.75522   0.40206   0.01267  Uiso   1.00
O43    O     0.66975   0.02912   0.32483   0.01267  Uiso   1.00
O44    O     0.46639   0.13093   0.82995   0.01267  Uiso   1.00
O45    O     0.83073   0.34328   0.69840   0.01267  Uiso   1.00
O46    O     0.40206   0.75092   0.75522   0.01267  Uiso   1.00
O47    O     0.13093   0.82995   0.46639   0.01267  Uiso   1.00
O48    O     0.69840   0.83073   0.34328   0.01267  Uiso   1.00
