data_cg501730q_si_002_clean
_audit_creation_date              2015-08-19
_audit_creation_method            'Materials Studio'
_symmetry_space_group_name_H-M    'P1'
_symmetry_Int_Tables_number       1
_symmetry_cell_setting            triclinic
loop_
_symmetry_equiv_pos_as_xyz
  x,y,z
_cell_length_a                    16.0633
_cell_length_b                    24.2576
_cell_length_c                    24.2576
_cell_angle_alpha                 64.7280
_cell_angle_beta                  77.2480
_cell_angle_gamma                 102.7520
loop_
_atom_site_label
_atom_site_type_symbol
_atom_site_fract_x
_atom_site_fract_y
_atom_site_fract_z
_atom_site_U_iso_or_equiv
_atom_site_adp_type
_atom_site_occupancy
Cu1    Cu    0.53565   0.46045   0.03351   0.01267  Uiso   1.00
Cu2    Cu    0.92189   0.50654   0.02076   0.01267  Uiso   1.00
Cu3    Cu    0.41535   0.47270   0.50654   0.01267  Uiso   1.00
Cu4    Cu    0.58465   0.52730   0.49346   0.01267  Uiso   1.00
Cu5    Cu    0.46435   0.53955   0.96649   0.01267  Uiso   1.00
Cu6    Cu    0.43084   0.96649   0.49396   0.01267  Uiso   1.00
Cu7    Cu    0.05735   0.97924   0.52730   0.01267  Uiso   1.00
Cu8    Cu    0.94265   0.02076   0.47270   0.01267  Uiso   1.00
Cu9    Cu    0.07811   0.49346   0.97924   0.01267  Uiso   1.00
Cu10   Cu    0.92480   0.49396   0.53955   0.01267  Uiso   1.00
Cu11   Cu    0.56916   0.03351   0.50604   0.01267  Uiso   1.00
Cu12   Cu    0.07520   0.50604   0.46045   0.01267  Uiso   1.00
H1     H     0.77160   0.40900   0.93360   0.01267  Uiso   1.00
H2     H     0.01180   0.55760   0.24810   0.01267  Uiso   1.00
H3     H     0.81500   0.76610   0.42400   0.01267  Uiso   1.00
H4     H     0.40470   0.62900   0.00830   0.01267  Uiso   1.00
H5     H     0.22430   0.63730   0.37100   0.01267  Uiso   1.00
H6     H     0.92760   0.62680   0.51990   0.01267  Uiso   1.00
H7     H     0.58700   0.99170   0.63730   0.01267  Uiso   1.00
H8     H     0.07650   0.52400   0.32910   0.01267  Uiso   1.00
H9     H     0.75570   0.49770   0.50480   0.01267  Uiso   1.00
H10    H     0.54580   0.80570   0.44240   0.01267  Uiso   1.00
H11    H     0.21370   0.74150   0.68630   0.01267  Uiso   1.00
H12    H     0.36260   0.65740   0.40900   0.01267  Uiso   1.00
H13    H     0.45420   0.19430   0.55760   0.01267  Uiso   1.00
H14    H     0.96640   0.53910   0.17140   0.01267  Uiso   1.00
H15    H     0.76100   0.57600   0.19010   0.01267  Uiso   1.00
H16    H     0.59530   0.37100   0.99170   0.01267  Uiso   1.00
H17    H     0.44750   0.51990   0.85330   0.01267  Uiso   1.00
H18    H     0.04950   0.21440   0.43350   0.01267  Uiso   1.00
H19    H     0.25800   0.99750   0.49770   0.01267  Uiso   1.00
H20    H     0.65470   0.24350   0.61850   0.01267  Uiso   1.00
H21    H     0.22840   0.59100   0.06640   0.01267  Uiso   1.00
H22    H     0.72680   0.38150   0.86200   0.01267  Uiso   1.00
H23    H     0.30080   0.85330   0.62680   0.01267  Uiso   1.00
H24    H     0.92350   0.47600   0.67090   0.01267  Uiso   1.00
H25    H     0.25990   0.24810   0.19430   0.01267  Uiso   1.00
H26    H     0.78630   0.25850   0.31370   0.01267  Uiso   1.00
H27    H     0.74200   0.00250   0.50230   0.01267  Uiso   1.00
H28    H     0.41300   0.00830   0.36270   0.01267  Uiso   1.00
H29    H     0.47320   0.19150   0.12390   0.01267  Uiso   1.00
H30    H     0.05310   0.86260   0.65290   0.01267  Uiso   1.00
H31    H     0.73950   0.49520   0.00250   0.01267  Uiso   1.00
H32    H     0.19050   0.48450   0.86260   0.01267  Uiso   1.00
H33    H     0.29480   0.06640   0.34260   0.01267  Uiso   1.00
H34    H     0.28170   0.68460   0.19150   0.01267  Uiso   1.00
H35    H     0.77570   0.36270   0.62900   0.01267  Uiso   1.00
H36    H     0.07240   0.37320   0.48010   0.01267  Uiso   1.00
H37    H     0.00300   0.28520   0.13490   0.01267  Uiso   1.00
H38    H     0.52780   0.42780   0.25850   0.01267  Uiso   1.00
H39    H     0.13790   0.13490   0.57990   0.01267  Uiso   1.00
H40    H     0.99700   0.71480   0.86510   0.01267  Uiso   1.00
H41    H     0.94690   0.13740   0.34710   0.01267  Uiso   1.00
H42    H     0.59440   0.67090   0.85310   0.01267  Uiso   1.00
H43    H     0.03360   0.46090   0.82860   0.01267  Uiso   1.00
H44    H     0.29400   0.34710   0.51550   0.01267  Uiso   1.00
H45    H     0.42730   0.28950   0.53910   0.01267  Uiso   1.00
H46    H     0.51700   0.56650   0.64790   0.01267  Uiso   1.00
H47    H     0.55250   0.48010   0.14670   0.01267  Uiso   1.00
H48    H     0.86220   0.82860   0.71050   0.01267  Uiso   1.00
H49    H     0.47220   0.57220   0.74150   0.01267  Uiso   1.00
H50    H     0.23900   0.42400   0.80990   0.01267  Uiso   1.00
H51    H     0.69920   0.14670   0.37320   0.01267  Uiso   1.00
H52    H     0.95050   0.78560   0.56650   0.01267  Uiso   1.00
H53    H     0.86210   0.86510   0.42010   0.01267  Uiso   1.00
H54    H     0.28220   0.42010   0.71480   0.01267  Uiso   1.00
H55    H     0.71830   0.31540   0.80850   0.01267  Uiso   1.00
H56    H     0.41120   0.13800   0.24350   0.01267  Uiso   1.00
H57    H     0.57270   0.71050   0.46090   0.01267  Uiso   1.00
H58    H     0.34530   0.75650   0.38150   0.01267  Uiso   1.00
H59    H     0.26050   0.50480   0.99750   0.01267  Uiso   1.00
H60    H     0.18500   0.23390   0.57600   0.01267  Uiso   1.00
H61    H     0.52680   0.80850   0.87610   0.01267  Uiso   1.00
H62    H     0.95110   0.19010   0.23390   0.01267  Uiso   1.00
H63    H     0.40290   0.87610   0.31540   0.01267  Uiso   1.00
H64    H     0.44750   0.85310   0.47600   0.01267  Uiso   1.00
H65    H     0.59710   0.12390   0.68460   0.01267  Uiso   1.00
H66    H     0.63740   0.34260   0.59100   0.01267  Uiso   1.00
H67    H     0.58880   0.86200   0.75650   0.01267  Uiso   1.00
H68    H     0.55250   0.14690   0.52400   0.01267  Uiso   1.00
H69    H     0.90000   0.68630   0.57220   0.01267  Uiso   1.00
H70    H     0.70600   0.65290   0.48450   0.01267  Uiso   1.00
H71    H     0.83510   0.35210   0.21440   0.01267  Uiso   1.00
H72    H     0.98820   0.44240   0.75190   0.01267  Uiso   1.00
H73    H     0.10000   0.31370   0.42780   0.01267  Uiso   1.00
H74    H     0.24430   0.50230   0.49520   0.01267  Uiso   1.00
H75    H     0.48300   0.43350   0.35210   0.01267  Uiso   1.00
H76    H     0.13780   0.17140   0.28950   0.01267  Uiso   1.00
H77    H     0.40560   0.32910   0.14690   0.01267  Uiso   1.00
H78    H     0.71780   0.57990   0.28520   0.01267  Uiso   1.00
H79    H     0.80950   0.51550   0.13740   0.01267  Uiso   1.00
H80    H     0.16490   0.64790   0.78560   0.01267  Uiso   1.00
H81    H     0.04890   0.80990   0.76610   0.01267  Uiso   1.00
H82    H     0.70520   0.93360   0.65740   0.01267  Uiso   1.00
H83    H     0.74010   0.75190   0.80570   0.01267  Uiso   1.00
H84    H     0.27320   0.61850   0.13800   0.01267  Uiso   1.00
C1     C     0.14633   0.28358   0.50289   0.01267  Uiso   1.00
C2     C     0.52560   0.71891   0.44621   0.01267  Uiso   1.00
C3     C     0.56232   0.12209   0.56183   0.01267  Uiso   1.00
C4     C     0.05225   0.10000   0.51005   0.01267  Uiso   1.00
C5     C     0.85859   0.31946   0.21809   0.01267  Uiso   1.00
C6     C     0.51790   0.39040   0.54550   0.01267  Uiso   1.00
C7     C     0.55182   0.33974   0.03268   0.01267  Uiso   1.00
C8     C     0.70476   0.54722   0.22264   0.01267  Uiso   1.00
C9     C     0.22724   0.46292   0.49560   0.01267  Uiso   1.00
C10    C     0.78792   0.37242   0.66026   0.01267  Uiso   1.00
C11    C     0.46087   0.53755   0.68054   0.01267  Uiso   1.00
C12    C     0.17694   0.34728   0.49966   0.01267  Uiso   1.00
C13    C     0.35730   0.14590   0.25320   0.01267  Uiso   1.00
C14    C     0.72284   0.49560   0.04148   0.01267  Uiso   1.00
C15    C     0.64270   0.85410   0.74680   0.01267  Uiso   1.00
C16    C     0.23568   0.95852   0.53708   0.01267  Uiso   1.00
C17    C     0.28656   0.10222   0.31194   0.01267  Uiso   1.00
C18    C     0.48990   0.22341   0.56601   0.01267  Uiso   1.00
C19    C     0.82894   0.26329   0.27757   0.01267  Uiso   1.00
C20    C     0.95225   0.38995   0.10000   0.01267  Uiso   1.00
C21    C     0.48210   0.60960   0.45450   0.01267  Uiso   1.00
C22    C     0.58840   0.10827   0.65667   0.01267  Uiso   1.00
C23    C     0.94409   0.43399   0.78942   0.01267  Uiso   1.00
C24    C     0.26150   0.87444   0.61284   0.01267  Uiso   1.00
C25    C     0.93660   0.45450   0.93590   0.01267  Uiso   1.00
C26    C     0.29524   0.45278   0.77736   0.01267  Uiso   1.00
C27    C     0.92211   0.32834   0.16391   0.01267  Uiso   1.00
C28    C     0.92332   0.78191   0.53755   0.01267  Uiso   1.00
C29    C     0.61294   0.48728   0.12556   0.01267  Uiso   1.00
C30    C     0.44355   0.79150   0.41005   0.01267  Uiso   1.00
C31    C     0.87122   0.82948   0.45012   0.01267  Uiso   1.00
C32    C     0.05591   0.56601   0.21058   0.01267  Uiso   1.00
C33    C     0.87434   0.61284   0.51272   0.01267  Uiso   1.00
C34    C     0.32134   0.45012   0.72040   0.01267  Uiso   1.00
C35    C     0.12750   0.06410   0.39040   0.01267  Uiso   1.00
C36    C     0.04174   0.72040   0.82948   0.01267  Uiso   1.00
C37    C     0.43190   0.85400   0.39680   0.01267  Uiso   1.00
C38    C     0.51987   0.76494   0.89173   0.01267  Uiso   1.00
C39    C     0.41550   0.96732   0.37242   0.01267  Uiso   1.00
C40    C     0.67866   0.54988   0.27960   0.01267  Uiso   1.00
C41    C     0.78860   0.39910   0.85410   0.01267  Uiso   1.00
C42    C     0.61050   0.25320   0.60090   0.01267  Uiso   1.00
C43    C     0.15754   0.23014   0.54722   0.01267  Uiso   1.00
C44    C     0.59850   0.31194   0.58584   0.01267  Uiso   1.00
C45    C     0.56230   0.51005   0.38995   0.01267  Uiso   1.00
C46    C     0.12415   0.56183   0.31608   0.01267  Uiso   1.00
C47    C     0.84246   0.76986   0.45278   0.01267  Uiso   1.00
C48    C     0.21140   0.60090   0.14590   0.01267  Uiso   1.00
C49    C     0.38950   0.74680   0.39910   0.01267  Uiso   1.00
C50    C     0.47030   0.67435   0.43645   0.01267  Uiso   1.00
C51    C     0.71344   0.89778   0.68806   0.01267  Uiso   1.00
C52    C     0.07668   0.21809   0.46245   0.01267  Uiso   1.00
C53    C     0.24507   0.65667   0.23506   0.01267  Uiso   1.00
C54    C     0.43435   0.54086   0.73671   0.01267  Uiso   1.00
C55    C     0.74371   0.62848   0.49185   0.01267  Uiso   1.00
C56    C     0.55977   0.68392   0.87791   0.01267  Uiso   1.00
C57    C     0.19331   0.16512   0.28109   0.01267  Uiso   1.00
C58    C     0.55645   0.20850   0.58995   0.01267  Uiso   1.00
C59    C     0.88477   0.12033   0.37152   0.01267  Uiso   1.00
C60    C     0.43768   0.87791   0.43817   0.01267  Uiso   1.00
C61    C     0.32340   0.50034   0.84694   0.01267  Uiso   1.00
C62    C     0.10651   0.27757   0.45914   0.01267  Uiso   1.00
C63    C     0.40623   0.49225   0.67166   0.01267  Uiso   1.00
C64    C     0.90675   0.43645   0.88920   0.01267  Uiso   1.00
C65    C     0.87250   0.93590   0.60960   0.01267  Uiso   1.00
C66    C     0.73351   0.78942   0.77659   0.01267  Uiso   1.00
C67    C     0.13725   0.78647   0.71642   0.01267  Uiso   1.00
C68    C     0.12566   0.38716   0.48728   0.01267  Uiso   1.00
C69    C     0.59377   0.50775   0.32834   0.01267  Uiso   1.00
C70    C     0.73850   0.12556   0.38716   0.01267  Uiso   1.00
C71    C     0.79595   0.88920   0.67435   0.01267  Uiso   1.00
C72    C     0.97181   0.44621   0.83488   0.01267  Uiso   1.00
C73    C     0.07260   0.77736   0.76986   0.01267  Uiso   1.00
C74    C     0.20405   0.11080   0.32565   0.01267  Uiso   1.00
C75    C     0.41160   0.89173   0.34333   0.01267  Uiso   1.00
C76    C     0.95826   0.27960   0.17052   0.01267  Uiso   1.00
C77    C     0.89349   0.72243   0.54086   0.01267  Uiso   1.00
C78    C     0.44818   0.66026   0.96732   0.01267  Uiso   1.00
C79    C     0.25629   0.37152   0.50815   0.01267  Uiso   1.00
C80    C     0.23556   0.49185   0.87967   0.01267  Uiso   1.00
C81    C     0.11523   0.87967   0.62848   0.01267  Uiso   1.00
C82    C     0.76432   0.04148   0.46292   0.01267  Uiso   1.00
C83    C     0.51010   0.77659   0.43399   0.01267  Uiso   1.00
C84    C     0.52970   0.32565   0.56355   0.01267  Uiso   1.00
C85    C     0.86275   0.21353   0.28358   0.01267  Uiso   1.00
C86    C     0.53913   0.46245   0.31946   0.01267  Uiso   1.00
C87    C     0.82966   0.15306   0.34728   0.01267  Uiso   1.00
C88    C     0.09325   0.56355   0.11080   0.01267  Uiso   1.00
C89    C     0.14640   0.58995   0.20155   0.01267  Uiso   1.00
C90    C     0.65205   0.79845   0.79150   0.01267  Uiso   1.00
C91    C     0.44023   0.31608   0.12209   0.01267  Uiso   1.00
C92    C     0.75493   0.34333   0.76494   0.01267  Uiso   1.00
C93    C     0.27716   0.50440   0.95852   0.01267  Uiso   1.00
C94    C     0.17130   0.60320   0.25080   0.01267  Uiso   1.00
C95    C     0.21208   0.62758   0.33974   0.01267  Uiso   1.00
C96    C     0.26649   0.21058   0.22341   0.01267  Uiso   1.00
C97    C     0.85367   0.71642   0.49711   0.01267  Uiso   1.00
C98    C     0.58450   0.03268   0.62758   0.01267  Uiso   1.00
C99    C     0.07789   0.67166   0.83609   0.01267  Uiso   1.00
C100   C     0.14141   0.68054   0.78191   0.01267  Uiso   1.00
C101   C     0.85360   0.41005   0.79845   0.01267  Uiso   1.00
C102   C     0.38706   0.51272   0.87444   0.01267  Uiso   1.00
C103   C     0.34795   0.20155   0.20850   0.01267  Uiso   1.00
C104   C     0.80669   0.83488   0.71891   0.01267  Uiso   1.00
C105   C     0.08602   0.16391   0.50775   0.01267  Uiso   1.00
C106   C     0.82870   0.39680   0.74920   0.01267  Uiso   1.00
C107   C     0.43770   0.48995   0.61005   0.01267  Uiso   1.00
C108   C     0.81566   0.41416   0.89778   0.01267  Uiso   1.00
C109   C     0.56565   0.45914   0.26329   0.01267  Uiso   1.00
C110   C     0.87585   0.43817   0.68392   0.01267  Uiso   1.00
C111   C     0.67660   0.49966   0.15306   0.01267  Uiso   1.00
C112   C     0.06340   0.54550   0.06410   0.01267  Uiso   1.00
C113   C     0.76444   0.50815   0.12033   0.01267  Uiso   1.00
C114   C     0.35078   0.49711   0.78647   0.01267  Uiso   1.00
C115   C     0.47440   0.28109   0.55379   0.01267  Uiso   1.00
C116   C     0.77276   0.53708   0.50440   0.01267  Uiso   1.00
C117   C     0.12878   0.17052   0.54988   0.01267  Uiso   1.00
C118   C     0.04775   0.61005   0.90000   0.01267  Uiso   1.00
C119   C     0.56810   0.14600   0.60320   0.01267  Uiso   1.00
C120   C     0.92740   0.22264   0.23014   0.01267  Uiso   1.00
C121   C     0.40150   0.68806   0.41416   0.01267  Uiso   1.00
C122   C     0.48013   0.23506   0.10827   0.01267  Uiso   1.00
C123   C     0.94775   0.90000   0.48995   0.01267  Uiso   1.00
C124   C     0.57790   0.74920   0.85400   0.01267  Uiso   1.00
C125   C     0.18434   0.58584   0.10222   0.01267  Uiso   1.00
C126   C     0.82306   0.65272   0.50034   0.01267  Uiso   1.00
C127   C     0.64922   0.50289   0.21353   0.01267  Uiso   1.00
C128   C     0.42210   0.25080   0.14600   0.01267  Uiso   1.00
C129   C     0.17106   0.73671   0.72243   0.01267  Uiso   1.00
C130   C     0.91398   0.83609   0.49225   0.01267  Uiso   1.00
C131   C     0.17034   0.84694   0.65272   0.01267  Uiso   1.00
C132   C     0.02819   0.55379   0.16512   0.01267  Uiso   1.00
I1     I     0.48146   0.09392   0.43353   0.01267  Uiso   1.00
I2     I     0.91499   0.43353   0.47255   0.01267  Uiso   1.00
I3     I     0.61246   0.52745   0.90608   0.01267  Uiso   1.00
I4     I     0.38754   0.47255   0.09392   0.01267  Uiso   1.00
I5     I     0.51854   0.90608   0.56647   0.01267  Uiso   1.00
I6     I     0.08501   0.56647   0.52745   0.01267  Uiso   1.00
N1     N     0.59593   0.05092   0.66973   0.01267  Uiso   1.00
N2     N     0.42999   0.93580   0.42673   0.01267  Uiso   1.00
N3     N     0.40407   0.94908   0.33027   0.01267  Uiso   1.00
N4     N     0.85672   0.42673   0.63747   0.01267  Uiso   1.00
N5     N     0.73434   0.33027   0.72065   0.01267  Uiso   1.00
N6     N     0.57001   0.06420   0.57327   0.01267  Uiso   1.00
N7     N     0.26566   0.66973   0.27935   0.01267  Uiso   1.00
N8     N     0.29594   0.93020   0.55508   0.01267  Uiso   1.00
N9     N     0.14767   0.93504   0.57123   0.01267  Uiso   1.00
N10    N     0.85233   0.06496   0.42877   0.01267  Uiso   1.00
N11    N     0.28110   0.42877   0.50627   0.01267  Uiso   1.00
N12    N     0.70406   0.06980   0.44492   0.01267  Uiso   1.00
N13    N     0.45499   0.72065   0.94908   0.01267  Uiso   1.00
N14    N     0.54501   0.27935   0.05092   0.01267  Uiso   1.00
N15    N     0.63426   0.48528   0.06980   0.01267  Uiso   1.00
N16    N     0.85102   0.55508   0.51472   0.01267  Uiso   1.00
N17    N     0.78737   0.50627   0.06496   0.01267  Uiso   1.00
N18    N     0.36574   0.51472   0.93020   0.01267  Uiso   1.00
N19    N     0.71890   0.57123   0.49373   0.01267  Uiso   1.00
N20    N     0.14328   0.57327   0.36253   0.01267  Uiso   1.00
N21    N     0.50581   0.36253   0.06420   0.01267  Uiso   1.00
N22    N     0.14898   0.44492   0.48528   0.01267  Uiso   1.00
N23    N     0.21263   0.49373   0.93504   0.01267  Uiso   1.00
N24    N     0.49419   0.63747   0.93580   0.01267  Uiso   1.00
O1     O     0.00822   0.90651   0.51365   0.01267  Uiso   1.00
O2     O     0.58512   0.43748   0.53282   0.01267  Uiso   1.00
O3     O     0.95143   0.93512   0.60813   0.01267  Uiso   1.00
O4     O     0.37753   0.46638   0.59239   0.01267  Uiso   1.00
O5     O     0.62247   0.53362   0.40761   0.01267  Uiso   1.00
O6     O     0.44044   0.39187   0.54325   0.01267  Uiso   1.00
O7     O     0.11794   0.53282   0.02970   0.01267  Uiso   1.00
O8     O     0.10171   0.57984   0.90651   0.01267  Uiso   1.00
O9     O     0.14764   0.02970   0.43748   0.01267  Uiso   1.00
O10    O     0.85236   0.97030   0.56252   0.01267  Uiso   1.00
O11    O     0.04857   0.06488   0.39187   0.01267  Uiso   1.00
O12    O     0.98369   0.54325   0.06488   0.01267  Uiso   1.00
O13    O     0.55956   0.60813   0.45675   0.01267  Uiso   1.00
O14    O     0.47813   0.48635   0.42016   0.01267  Uiso   1.00
O15    O     0.89829   0.42016   0.09349   0.01267  Uiso   1.00
O16    O     0.08885   0.05877   0.53362   0.01267  Uiso   1.00
O17    O     0.96992   0.59239   0.94123   0.01267  Uiso   1.00
O18    O     0.99178   0.09349   0.48635   0.01267  Uiso   1.00
O19    O     0.88206   0.46718   0.97030   0.01267  Uiso   1.00
O20    O     0.41488   0.56252   0.46718   0.01267  Uiso   1.00
O21    O     0.91115   0.94123   0.46638   0.01267  Uiso   1.00
O22    O     0.52187   0.51365   0.57984   0.01267  Uiso   1.00
O23    O     0.01631   0.45675   0.93512   0.01267  Uiso   1.00
O24    O     0.03008   0.40761   0.05877   0.01267  Uiso   1.00
