data_cg500149s_si_002_clean
_audit_creation_date              2015-08-19
_audit_creation_method            'Materials Studio'
_symmetry_space_group_name_H-M    'P1'
_symmetry_Int_Tables_number       1
_symmetry_cell_setting            triclinic
loop_
_symmetry_equiv_pos_as_xyz
  x,y,z
_cell_length_a                    13.4855
_cell_length_b                    14.5663
_cell_length_c                    15.3523
_cell_angle_alpha                 114.0870
_cell_angle_beta                  116.0530
_cell_angle_gamma                 90.0000
loop_
_atom_site_label
_atom_site_type_symbol
_atom_site_fract_x
_atom_site_fract_y
_atom_site_fract_z
_atom_site_U_iso_or_equiv
_atom_site_adp_type
_atom_site_occupancy
Cu1    Cu    0.45429   0.84860   0.38860   0.01267  Uiso   1.00
Cu2    Cu    0.54571   0.15140   0.61140   0.01267  Uiso   1.00
Cu3    Cu    0.93431   0.34860   0.38860   0.01267  Uiso   1.00
Cu4    Cu    0.06569   0.65140   0.61140   0.01267  Uiso   1.00
H1     H     0.21630   0.12300   0.53360   0.01267  Uiso   1.00
H2     H     0.22530   0.60860   0.95160   0.01267  Uiso   1.00
H3     H     0.93820   0.65210   0.25600   0.01267  Uiso   1.00
H4     H     0.74390   0.65420   0.12640   0.01267  Uiso   1.00
H5     H     0.16690   0.34400   0.27140   0.01267  Uiso   1.00
H6     H     0.68220   0.84790   0.74400   0.01267  Uiso   1.00
H7     H     0.68270   0.37700   0.46640   0.01267  Uiso   1.00
H8     H     0.57910   0.39080   0.93480   0.01267  Uiso   1.00
H9     H     0.56430   0.55590   0.39760   0.01267  Uiso   1.00
H10    H     0.10450   0.84400   0.27140   0.01267  Uiso   1.00
H11    H     0.51760   0.43780   0.30740   0.01267  Uiso   1.00
H12    H     0.65060   0.16820   0.34220   0.01267  Uiso   1.00
H13    H     0.34940   0.83180   0.65780   0.01267  Uiso   1.00
H14    H     0.69990   0.04030   0.22420   0.01267  Uiso   1.00
H15    H     0.59840   0.86540   0.14880   0.01267  Uiso   1.00
H16    H     0.25610   0.34580   0.87360   0.01267  Uiso   1.00
H17    H     0.78370   0.87700   0.46640   0.01267  Uiso   1.00
H18    H     0.31230   0.35650   0.23060   0.01267  Uiso   1.00
H19    H     0.83330   0.05590   0.39760   0.01267  Uiso   1.00
H20    H     0.93750   0.34530   0.57980   0.01267  Uiso   1.00
H21    H     0.69160   0.66820   0.34220   0.01267  Uiso   1.00
H22    H     0.60510   0.51140   0.82480   0.01267  Uiso   1.00
H23    H     0.69420   0.35540   0.29620   0.01267  Uiso   1.00
H24    H     0.31730   0.62300   0.53360   0.01267  Uiso   1.00
H25    H     0.21020   0.06220   0.69260   0.01267  Uiso   1.00
H26    H     0.35770   0.15470   0.42020   0.01267  Uiso   1.00
H27    H     0.31860   0.82970   0.49560   0.01267  Uiso   1.00
H28    H     0.08540   0.62180   0.80140   0.01267  Uiso   1.00
H29    H     0.77470   0.39140   0.04840   0.01267  Uiso   1.00
H30    H     0.44960   0.63460   0.85120   0.01267  Uiso   1.00
H31    H     0.78980   0.93780   0.30740   0.01267  Uiso   1.00
H32    H     0.83310   0.65600   0.72860   0.01267  Uiso   1.00
H33    H     0.47570   0.45970   0.77580   0.01267  Uiso   1.00
H34    H     0.68770   0.64350   0.76940   0.01267  Uiso   1.00
H35    H     0.30840   0.33180   0.65780   0.01267  Uiso   1.00
H36    H     0.78030   0.98860   0.17520   0.01267  Uiso   1.00
H37    H     0.55040   0.36540   0.14880   0.01267  Uiso   1.00
H38    H     0.16670   0.94410   0.60240   0.01267  Uiso   1.00
H39    H     0.61750   0.84580   0.87360   0.01267  Uiso   1.00
H40    H     0.42090   0.60920   0.06520   0.01267  Uiso   1.00
H41    H     0.96840   0.86560   0.50480   0.01267  Uiso   1.00
H42    H     0.39800   0.14460   0.70380   0.01267  Uiso   1.00
H43    H     0.06180   0.34790   0.74400   0.01267  Uiso   1.00
H44    H     0.35570   0.89080   0.93480   0.01267  Uiso   1.00
H45    H     0.52430   0.54030   0.22420   0.01267  Uiso   1.00
H46    H     0.27370   0.89140   0.04840   0.01267  Uiso   1.00
H47    H     0.31780   0.15210   0.25600   0.01267  Uiso   1.00
H48    H     0.64230   0.84530   0.57980   0.01267  Uiso   1.00
H49    H     0.48240   0.56220   0.69260   0.01267  Uiso   1.00
H50    H     0.39490   0.48860   0.17520   0.01267  Uiso   1.00
H51    H     0.72630   0.10860   0.95160   0.01267  Uiso   1.00
H52    H     0.53640   0.36560   0.50480   0.01267  Uiso   1.00
H53    H     0.46360   0.63440   0.49520   0.01267  Uiso   1.00
H54    H     0.91830   0.85650   0.23060   0.01267  Uiso   1.00
H55    H     0.21970   0.01140   0.82480   0.01267  Uiso   1.00
H56    H     0.91460   0.37820   0.19860   0.01267  Uiso   1.00
H57    H     0.17700   0.32970   0.49560   0.01267  Uiso   1.00
H58    H     0.89550   0.15600   0.72860   0.01267  Uiso   1.00
H59    H     0.38250   0.15420   0.12640   0.01267  Uiso   1.00
H60    H     0.28400   0.87820   0.19860   0.01267  Uiso   1.00
H61    H     0.71600   0.12180   0.80140   0.01267  Uiso   1.00
H62    H     0.06250   0.65470   0.42020   0.01267  Uiso   1.00
H63    H     0.30010   0.95970   0.77580   0.01267  Uiso   1.00
H64    H     0.64430   0.10920   0.06520   0.01267  Uiso   1.00
H65    H     0.03160   0.13440   0.49520   0.01267  Uiso   1.00
H66    H     0.68140   0.17030   0.50440   0.01267  Uiso   1.00
H67    H     0.60200   0.85540   0.29620   0.01267  Uiso   1.00
H68    H     0.08170   0.14350   0.76940   0.01267  Uiso   1.00
H69    H     0.30580   0.64460   0.70380   0.01267  Uiso   1.00
H70    H     0.40160   0.13460   0.85120   0.01267  Uiso   1.00
H71    H     0.82300   0.67030   0.50440   0.01267  Uiso   1.00
H72    H     0.43570   0.44410   0.60240   0.01267  Uiso   1.00
C1     C     0.86651   0.52341   0.56622   0.01267  Uiso   1.00
C2     C     0.04579   0.07529   0.44898   0.01267  Uiso   1.00
C3     C     0.16543   0.99463   0.66866   0.01267  Uiso   1.00
C4     C     0.40319   0.57529   0.44898   0.01267  Uiso   1.00
C5     C     0.68398   0.43168   0.52816   0.01267  Uiso   1.00
C6     C     0.55845   0.38035   0.98230   0.01267  Uiso   1.00
C7     C     0.31602   0.56832   0.47184   0.01267  Uiso   1.00
C8     C     0.28938   0.63788   0.75536   0.01267  Uiso   1.00
C9     C     0.37534   0.63154   0.84268   0.01267  Uiso   1.00
C10    C     0.62466   0.36846   0.15732   0.01267  Uiso   1.00
C11    C     0.91236   0.65416   0.30512   0.01267  Uiso   1.00
C12    C     0.45478   0.14888   0.17316   0.01267  Uiso   1.00
C13    C     0.34868   0.87568   0.18836   0.01267  Uiso   1.00
C14    C     0.71838   0.64888   0.17316   0.01267  Uiso   1.00
C15    C     0.65781   0.11651   0.90182   0.01267  Uiso   1.00
C16    C     0.16032   0.62432   0.81164   0.01267  Uiso   1.00
C17    C     0.84570   0.66500   0.45240   0.01267  Uiso   1.00
C18    C     0.52089   0.84449   0.72078   0.01267  Uiso   1.00
C19    C     0.46598   0.13788   0.75536   0.01267  Uiso   1.00
C20    C     0.75599   0.38349   0.09818   0.01267  Uiso   1.00
C21    C     0.50323   0.49463   0.66866   0.01267  Uiso   1.00
C22    C     0.01414   0.34414   0.59688   0.01267  Uiso   1.00
C23    C     0.08764   0.34584   0.69488   0.01267  Uiso   1.00
C24    C     0.83457   0.00537   0.33134   0.01267  Uiso   1.00
C25    C     0.95421   0.92471   0.55102   0.01267  Uiso   1.00
C26    C     0.41726   0.15586   0.40312   0.01267  Uiso   1.00
C27    C     0.56492   0.35632   0.72484   0.01267  Uiso   1.00
C28    C     0.56573   0.12043   0.91886   0.01267  Uiso   1.00
C29    C     0.76688   0.66368   0.35596   0.01267  Uiso   1.00
C30    C     0.08985   0.90355   0.31670   0.01267  Uiso   1.00
C31    C     0.57615   0.11965   0.01770   0.01267  Uiso   1.00
C32    C     0.41092   0.83632   0.64404   0.01267  Uiso   1.00
C33    C     0.80011   0.65551   0.27922   0.01267  Uiso   1.00
C34    C     0.28162   0.35112   0.82684   0.01267  Uiso   1.00
C35    C     0.65132   0.12432   0.81164   0.01267  Uiso   1.00
C36    C     0.58274   0.84414   0.59688   0.01267  Uiso   1.00
C37    C     0.02112   0.08922   0.70724   0.01267  Uiso   1.00
C38    C     0.40338   0.49678   0.35896   0.01267  Uiso   1.00
C39    C     0.83968   0.37568   0.18836   0.01267  Uiso   1.00
C40    C     0.34219   0.88349   0.09818   0.01267  Uiso   1.00
C41    C     0.46203   0.53923   0.24166   0.01267  Uiso   1.00
C42    C     0.84008   0.14368   0.27516   0.01267  Uiso   1.00
C43    C     0.39330   0.83500   0.54760   0.01267  Uiso   1.00
C44    C     0.43427   0.87957   0.08114   0.01267  Uiso   1.00
C45    C     0.30029   0.97659   0.43378   0.01267  Uiso   1.00
C46    C     0.58908   0.16368   0.35596   0.01267  Uiso   1.00
C47    C     0.69971   0.02341   0.56622   0.01267  Uiso   1.00
C48    C     0.22037   0.96077   0.75834   0.01267  Uiso   1.00
C49    C     0.44155   0.61965   0.01770   0.01267  Uiso   1.00
C50    C     0.53797   0.46077   0.75834   0.01267  Uiso   1.00
C51    C     0.98586   0.65586   0.40312   0.01267  Uiso   1.00
C52    C     0.22679   0.48289   0.40638   0.01267  Uiso   1.00
C53    C     0.53402   0.86212   0.24464   0.01267  Uiso   1.00
C54    C     0.77315   0.59645   0.68330   0.01267  Uiso   1.00
C55    C     0.39276   0.15416   0.30512   0.01267  Uiso   1.00
C56    C     0.71062   0.36212   0.24464   0.01267  Uiso   1.00
C57    C     0.54522   0.85112   0.82684   0.01267  Uiso   1.00
C58    C     0.04442   0.00322   0.64104   0.01267  Uiso   1.00
C59    C     0.64687   0.37957   0.08114   0.01267  Uiso   1.00
C60    C     0.49677   0.50537   0.33134   0.01267  Uiso   1.00
C61    C     0.60724   0.84584   0.69488   0.01267  Uiso   1.00
C62    C     0.97888   0.91078   0.29276   0.01267  Uiso   1.00
C63    C     0.17959   0.98289   0.40638   0.01267  Uiso   1.00
C64    C     0.24401   0.61651   0.90182   0.01267  Uiso   1.00
C65    C     0.84418   0.93168   0.52816   0.01267  Uiso   1.00
C66    C     0.82041   0.01711   0.59362   0.01267  Uiso   1.00
C67    C     0.35313   0.62043   0.91886   0.01267  Uiso   1.00
C68    C     0.77963   0.03923   0.24166   0.01267  Uiso   1.00
C69    C     0.15582   0.06832   0.47184   0.01267  Uiso   1.00
C70    C     0.23312   0.33632   0.64404   0.01267  Uiso   1.00
C71    C     0.46734   0.13154   0.84268   0.01267  Uiso   1.00
C72    C     0.60670   0.16500   0.45240   0.01267  Uiso   1.00
C73    C     0.42385   0.88035   0.98230   0.01267  Uiso   1.00
C74    C     0.59662   0.50322   0.64104   0.01267  Uiso   1.00
C75    C     0.68612   0.58922   0.70724   0.01267  Uiso   1.00
C76    C     0.47911   0.15551   0.27922   0.01267  Uiso   1.00
C77    C     0.22685   0.40355   0.31670   0.01267  Uiso   1.00
C78    C     0.19989   0.34449   0.72078   0.01267  Uiso   1.00
C79    C     0.15430   0.33500   0.54760   0.01267  Uiso   1.00
C80    C     0.15992   0.85632   0.72484   0.01267  Uiso   1.00
C81    C     0.31388   0.41078   0.29276   0.01267  Uiso   1.00
C82    C     0.13349   0.47659   0.43378   0.01267  Uiso   1.00
C83    C     0.43508   0.64368   0.27516   0.01267  Uiso   1.00
C84    C     0.77321   0.51711   0.59362   0.01267  Uiso   1.00
C85    C     0.53266   0.86846   0.15732   0.01267  Uiso   1.00
C86    C     0.95558   0.99678   0.35896   0.01267  Uiso   1.00
C87    C     0.59681   0.42471   0.55102   0.01267  Uiso   1.00
C88    C     0.91015   0.09645   0.68330   0.01267  Uiso   1.00
N1     N     0.38676   0.36426   0.85552   0.01267  Uiso   1.00
N2     N     0.53124   0.13574   0.14448   0.01267  Uiso   1.00
N3     N     0.45461   0.36731   0.95842   0.01267  Uiso   1.00
N4     N     0.54539   0.63269   0.04158   0.01267  Uiso   1.00
N5     N     0.46876   0.86426   0.85552   0.01267  Uiso   1.00
N6     N     0.04646   0.34098   0.52472   0.01267  Uiso   1.00
N7     N     0.95354   0.65902   0.47528   0.01267  Uiso   1.00
N8     N     0.49619   0.13269   0.04158   0.01267  Uiso   1.00
N9     N     0.61324   0.63574   0.14448   0.01267  Uiso   1.00
N10    N     0.47826   0.84098   0.52472   0.01267  Uiso   1.00
N11    N     0.55670   0.13510   0.73980   0.01267  Uiso   1.00
N12    N     0.44330   0.86490   0.26020   0.01267  Uiso   1.00
N13    N     0.18310   0.63510   0.73980   0.01267  Uiso   1.00
N14    N     0.81690   0.36490   0.26020   0.01267  Uiso   1.00
N15    N     0.50381   0.86731   0.95842   0.01267  Uiso   1.00
N16    N     0.52174   0.15902   0.47528   0.01267  Uiso   1.00
O1     O     0.37699   0.04759   0.51942   0.01267  Uiso   1.00
O2     O     0.62301   0.95241   0.48058   0.01267  Uiso   1.00
O3     O     0.16589   0.77982   0.64980   0.01267  Uiso   1.00
O4     O     0.83411   0.22018   0.35020   0.01267  Uiso   1.00
O5     O     0.94573   0.60196   0.63142   0.01267  Uiso   1.00
O6     O     0.33593   0.65383   0.23046   0.01267  Uiso   1.00
O7     O     0.14243   0.54759   0.51942   0.01267  Uiso   1.00
O8     O     0.89453   0.15383   0.23046   0.01267  Uiso   1.00
O9     O     0.05427   0.39804   0.36858   0.01267  Uiso   1.00
O10    O     0.68569   0.10196   0.63142   0.01267  Uiso   1.00
O11    O     0.10547   0.84617   0.76954   0.01267  Uiso   1.00
O12    O     0.66407   0.34617   0.76954   0.01267  Uiso   1.00
O13    O     0.85757   0.45241   0.48058   0.01267  Uiso   1.00
O14    O     0.51609   0.72018   0.35020   0.01267  Uiso   1.00
O15    O     0.48391   0.27982   0.64980   0.01267  Uiso   1.00
O16    O     0.31431   0.89804   0.36858   0.01267  Uiso   1.00
