data_cg501560z_si_002_clean
_audit_creation_date              2015-08-19
_audit_creation_method            'Materials Studio'
_symmetry_space_group_name_H-M    'P1'
_symmetry_Int_Tables_number       1
_symmetry_cell_setting            triclinic
loop_
_symmetry_equiv_pos_as_xyz
  x,y,z
_cell_length_a                    22.8378
_cell_length_b                    24.8834
_cell_length_c                    24.3802
_cell_angle_alpha                 105.4970
_cell_angle_beta                  90.0000
_cell_angle_gamma                 90.0000
loop_
_atom_site_label
_atom_site_type_symbol
_atom_site_fract_x
_atom_site_fract_y
_atom_site_fract_z
_atom_site_U_iso_or_equiv
_atom_site_adp_type
_atom_site_occupancy
Mn1    Mn    0.70278   0.91608   0.05965   0.01267  Uiso   1.00
Mn2    Mn    0.31544   0.24232   0.50284   0.01267  Uiso   1.00
Mn3    Mn    0.68456   0.75768   0.49716   0.01267  Uiso   1.00
Mn4    Mn    0.05789   0.50000   0.75000   0.01267  Uiso   1.00
Mn5    Mn    0.70298   0.57006   0.94591   0.01267  Uiso   1.00
Mn6    Mn    0.29702   0.57006   0.44591   0.01267  Uiso   1.00
Mn7    Mn    0.06284   0.00000   0.25000   0.01267  Uiso   1.00
Mn8    Mn    0.29722   0.08392   0.94035   0.01267  Uiso   1.00
Mn9    Mn    0.29722   0.91608   0.55965   0.01267  Uiso   1.00
Mn10   Mn    0.31544   0.75768   0.99716   0.01267  Uiso   1.00
Mn11   Mn    0.70278   0.08392   0.44035   0.01267  Uiso   1.00
Mn12   Mn    0.29702   0.42994   0.05409   0.01267  Uiso   1.00
Mn13   Mn    0.68456   0.24232   0.00284   0.01267  Uiso   1.00
Mn14   Mn    0.93716   0.00000   0.75000   0.01267  Uiso   1.00
Mn15   Mn    0.70298   0.42994   0.55409   0.01267  Uiso   1.00
Mn16   Mn    0.94211   0.50000   0.25000   0.01267  Uiso   1.00
Cr1    Cr    0.78806   0.95914   0.57158   0.01267  Uiso   1.00
Cr2    Cr    0.44812   0.25627   0.00019   0.01267  Uiso   1.00
Cr3    Cr    0.20554   0.44026   0.57064   0.01267  Uiso   1.00
Cr4    Cr    0.17892   0.50000   0.25000   0.01267  Uiso   1.00
Cr5    Cr    0.21194   0.95914   0.07158   0.01267  Uiso   1.00
Cr6    Cr    0.44812   0.74373   0.49981   0.01267  Uiso   1.00
Cr7    Cr    0.20554   0.55974   0.92936   0.01267  Uiso   1.00
Cr8    Cr    0.79446   0.44026   0.07064   0.01267  Uiso   1.00
Cr9    Cr    0.17299   0.00000   0.75000   0.01267  Uiso   1.00
Cr10   Cr    0.79446   0.55974   0.42936   0.01267  Uiso   1.00
Cr11   Cr    0.82701   0.00000   0.25000   0.01267  Uiso   1.00
Cr12   Cr    0.78806   0.04086   0.92842   0.01267  Uiso   1.00
Cr13   Cr    0.82108   0.50000   0.75000   0.01267  Uiso   1.00
Cr14   Cr    0.55188   0.74373   0.99981   0.01267  Uiso   1.00
Cr15   Cr    0.55188   0.25627   0.50019   0.01267  Uiso   1.00
Cr16   Cr    0.21194   0.04086   0.42842   0.01267  Uiso   1.00
C1     C     0.75140   0.14140   0.99460   0.01267  Uiso   1.00
C2     C     0.60300   0.84250   0.05300   0.01267  Uiso   1.00
C3     C     0.26850   0.13890   0.43260   0.01267  Uiso   1.00
C4     C     0.73770   0.65560   0.42870   0.01267  Uiso   1.00
C5     C     0.56120   0.23480   0.02540   0.01267  Uiso   1.00
C6     C     0.27990   0.50180   0.98060   0.01267  Uiso   1.00
C7     C     0.60220   0.64280   0.94980   0.01267  Uiso   1.00
C8     C     0.85080   0.49880   0.16640   0.01267  Uiso   1.00
C9     C     0.63800   0.18190   0.50150   0.01267  Uiso   1.00
C10    C     0.93640   0.47900   0.76830   0.01267  Uiso   1.00
C11    C     0.77860   0.92930   0.15600   0.01267  Uiso   1.00
C12    C     0.24070   0.33800   0.50870   0.01267  Uiso   1.00
C13    C     0.25080   0.01300   0.83730   0.01267  Uiso   1.00
C14    C     0.94180   0.01980   0.23020   0.01267  Uiso   1.00
C15    C     0.84660   0.00900   0.67020   0.01267  Uiso   1.00
C16    C     0.94180   0.98020   0.26980   0.01267  Uiso   1.00
C17    C     0.24860   0.85860   0.00540   0.01267  Uiso   1.00
C18    C     0.43510   0.73490   0.02230   0.01267  Uiso   1.00
C19    C     0.25540   0.49460   0.16270   0.01267  Uiso   1.00
C20    C     0.75140   0.85860   0.50540   0.01267  Uiso   1.00
C21    C     0.39780   0.64280   0.44980   0.01267  Uiso   1.00
C22    C     0.60300   0.15750   0.44700   0.01267  Uiso   1.00
C23    C     0.22020   0.03320   0.00780   0.01267  Uiso   1.00
C24    C     0.36500   0.33340   0.99390   0.01267  Uiso   1.00
C25    C     0.78340   0.48700   0.49440   0.01267  Uiso   1.00
C26    C     0.36200   0.18190   0.00150   0.01267  Uiso   1.00
C27    C     0.21660   0.48700   0.99440   0.01267  Uiso   1.00
C28    C     0.25080   0.98700   0.66270   0.01267  Uiso   1.00
C29    C     0.72010   0.49820   0.01940   0.01267  Uiso   1.00
C30    C     0.26850   0.86110   0.06740   0.01267  Uiso   1.00
C31    C     0.11100   0.44650   0.64130   0.01267  Uiso   1.00
C32    C     0.43510   0.26510   0.47770   0.01267  Uiso   1.00
C33    C     0.56490   0.73490   0.52230   0.01267  Uiso   1.00
C34    C     0.21660   0.51300   0.50560   0.01267  Uiso   1.00
C35    C     0.73150   0.86110   0.56740   0.01267  Uiso   1.00
C36    C     0.56120   0.76520   0.47460   0.01267  Uiso   1.00
C37    C     0.75930   0.66200   0.49130   0.01267  Uiso   1.00
C38    C     0.88900   0.55350   0.35870   0.01267  Uiso   1.00
C39    C     0.06360   0.47900   0.26830   0.01267  Uiso   1.00
C40    C     0.22140   0.92930   0.65600   0.01267  Uiso   1.00
C41    C     0.63800   0.81810   0.99850   0.01267  Uiso   1.00
C42    C     0.36200   0.81810   0.49850   0.01267  Uiso   1.00
C43    C     0.39780   0.35720   0.05020   0.01267  Uiso   1.00
C44    C     0.74920   0.98700   0.16270   0.01267  Uiso   1.00
C45    C     0.26230   0.65560   0.92870   0.01267  Uiso   1.00
C46    C     0.05820   0.98020   0.76980   0.01267  Uiso   1.00
C47    C     0.71670   0.01960   0.52210   0.01267  Uiso   1.00
C48    C     0.25540   0.50540   0.33730   0.01267  Uiso   1.00
C49    C     0.75930   0.33800   0.00870   0.01267  Uiso   1.00
C50    C     0.24070   0.66200   0.99130   0.01267  Uiso   1.00
C51    C     0.36500   0.66660   0.50610   0.01267  Uiso   1.00
C52    C     0.43880   0.76520   0.97460   0.01267  Uiso   1.00
C53    C     0.77980   0.03320   0.50780   0.01267  Uiso   1.00
C54    C     0.39700   0.84250   0.55300   0.01267  Uiso   1.00
C55    C     0.78340   0.51300   0.00560   0.01267  Uiso   1.00
C56    C     0.28330   0.01960   0.02210   0.01267  Uiso   1.00
C57    C     0.77980   0.96680   0.99220   0.01267  Uiso   1.00
C58    C     0.63500   0.66660   0.00610   0.01267  Uiso   1.00
C59    C     0.77510   0.43630   0.65080   0.01267  Uiso   1.00
C60    C     0.05820   0.01980   0.73020   0.01267  Uiso   1.00
C61    C     0.11740   0.95670   0.13940   0.01267  Uiso   1.00
C62    C     0.28330   0.98040   0.47790   0.01267  Uiso   1.00
C63    C     0.74460   0.50540   0.83730   0.01267  Uiso   1.00
C64    C     0.60220   0.35720   0.55020   0.01267  Uiso   1.00
C65    C     0.11100   0.55350   0.85870   0.01267  Uiso   1.00
C66    C     0.84660   0.99100   0.82980   0.01267  Uiso   1.00
C67    C     0.24860   0.14140   0.49460   0.01267  Uiso   1.00
C68    C     0.14920   0.50120   0.83360   0.01267  Uiso   1.00
C69    C     0.72010   0.50180   0.48060   0.01267  Uiso   1.00
C70    C     0.56490   0.26510   0.97770   0.01267  Uiso   1.00
C71    C     0.22140   0.07070   0.84400   0.01267  Uiso   1.00
C72    C     0.15340   0.99100   0.32980   0.01267  Uiso   1.00
C73    C     0.43880   0.23480   0.52540   0.01267  Uiso   1.00
C74    C     0.77860   0.07070   0.34400   0.01267  Uiso   1.00
C75    C     0.22020   0.96680   0.49220   0.01267  Uiso   1.00
C76    C     0.88900   0.44650   0.14130   0.01267  Uiso   1.00
C77    C     0.88260   0.95670   0.63940   0.01267  Uiso   1.00
C78    C     0.22490   0.56370   0.34920   0.01267  Uiso   1.00
C79    C     0.77510   0.56370   0.84920   0.01267  Uiso   1.00
C80    C     0.39700   0.15750   0.94700   0.01267  Uiso   1.00
C81    C     0.73770   0.34440   0.07130   0.01267  Uiso   1.00
C82    C     0.63500   0.33340   0.49390   0.01267  Uiso   1.00
C83    C     0.74460   0.49460   0.66270   0.01267  Uiso   1.00
C84    C     0.71670   0.98040   0.97790   0.01267  Uiso   1.00
C85    C     0.73150   0.13890   0.93260   0.01267  Uiso   1.00
C86    C     0.06360   0.52100   0.23170   0.01267  Uiso   1.00
C87    C     0.74920   0.01300   0.33730   0.01267  Uiso   1.00
C88    C     0.26230   0.34440   0.57130   0.01267  Uiso   1.00
C89    C     0.85080   0.50120   0.33360   0.01267  Uiso   1.00
C90    C     0.22490   0.43630   0.15080   0.01267  Uiso   1.00
C91    C     0.14920   0.49880   0.66640   0.01267  Uiso   1.00
C92    C     0.11740   0.04330   0.36060   0.01267  Uiso   1.00
C93    C     0.88260   0.04330   0.86060   0.01267  Uiso   1.00
C94    C     0.27990   0.49820   0.51940   0.01267  Uiso   1.00
C95    C     0.93640   0.52100   0.73170   0.01267  Uiso   1.00
C96    C     0.15340   0.00900   0.17020   0.01267  Uiso   1.00
O1     O     0.29710   0.17720   0.42460   0.01267  Uiso   1.00
O2     O     0.38820   0.70960   0.53880   0.01267  Uiso   1.00
O3     O     0.80370   0.50140   0.14050   0.01267  Uiso   1.00
O4     O     0.86580   0.04010   0.71480   0.01267  Uiso   1.00
O5     O     0.13420   0.95990   0.28520   0.01267  Uiso   1.00
O6     O     0.18010   0.98950   0.46990   0.01267  Uiso   1.00
O7     O     0.32200   0.51710   0.49950   0.01267  Uiso   1.00
O8     O     0.25200   0.90530   0.10490   0.01267  Uiso   1.00
O9     O     0.67490   0.96290   0.00110   0.01267  Uiso   1.00
O10    O     0.67800   0.48290   0.50050   0.01267  Uiso   1.00
O11    O     0.31580   0.15860   0.00880   0.01267  Uiso   1.00
O12    O     0.23980   0.11120   0.88160   0.01267  Uiso   1.00
O13    O     0.28290   0.46600   0.55270   0.01267  Uiso   1.00
O14    O     0.71120   0.99110   0.12810   0.01267  Uiso   1.00
O15    O     0.81930   0.92840   0.19080   0.01267  Uiso   1.00
O16    O     0.61860   0.40200   0.58240   0.01267  Uiso   1.00
O17    O     0.21000   0.37720   0.50230   0.01267  Uiso   1.00
O18    O     0.18070   0.92840   0.69080   0.01267  Uiso   1.00
O19    O     0.98370   0.53820   0.71940   0.01267  Uiso   1.00
O20    O     0.10810   0.96940   0.78623   0.01267  Uiso   1.00
O21    O     0.13460   0.06820   0.40972   0.01267  Uiso   1.00
O22    O     0.21130   0.45420   0.02420   0.01267  Uiso   1.00
O23    O     0.76130   0.47040   0.79240   0.01267  Uiso   1.00
O24    O     0.12800   0.41710   0.59320   0.01267  Uiso   1.00
O25    O     0.11430   0.53350   0.21650   0.01267  Uiso   1.00
O26    O     0.11430   0.46650   0.28350   0.01267  Uiso   1.00
O27    O     0.20010   0.98420   0.35520   0.01267  Uiso   1.00
O28    O     0.38680   0.72770   0.04050   0.01267  Uiso   1.00
O29    O     0.86540   0.06820   0.90972   0.01267  Uiso   1.00
O30    O     0.76020   0.88880   0.11840   0.01267  Uiso   1.00
O31    O     0.18460   0.56720   0.31410   0.01267  Uiso   1.00
O32    O     0.82400   0.48980   0.02610   0.01267  Uiso   1.00
O33    O     0.86950   0.46640   0.29040   0.01267  Uiso   1.00
O34    O     0.67910   0.35790   0.48480   0.01267  Uiso   1.00
O35    O     0.79000   0.62280   0.49770   0.01267  Uiso   1.00
O36    O     0.17600   0.48980   0.52610   0.01267  Uiso   1.00
O37    O     0.81990   0.01050   0.53010   0.01267  Uiso   1.00
O38    O     0.28880   0.99110   0.62810   0.01267  Uiso   1.00
O39    O     0.74550   0.29550   0.97240   0.01267  Uiso   1.00
O40    O     0.87200   0.58290   0.40680   0.01267  Uiso   1.00
O41    O     0.01050   0.96228   0.78160   0.01267  Uiso   1.00
O42    O     0.25200   0.09470   0.39510   0.01267  Uiso   1.00
O43    O     0.81540   0.56720   0.81410   0.01267  Uiso   1.00
O44    O     0.70790   0.49840   0.87100   0.01267  Uiso   1.00
O45    O     0.75870   0.60120   0.89050   0.01267  Uiso   1.00
O46    O     0.24130   0.39880   0.10950   0.01267  Uiso   1.00
O47    O     0.51550   0.72020   0.53760   0.01267  Uiso   1.00
O48    O     0.87200   0.41710   0.09320   0.01267  Uiso   1.00
O49    O     0.50910   0.77280   0.45900   0.01267  Uiso   1.00
O50    O     0.44120   0.18510   0.94047   0.01267  Uiso   1.00
O51    O     0.67800   0.51710   0.99950   0.01267  Uiso   1.00
O52    O     0.60630   0.77850   0.45530   0.01267  Uiso   1.00
O53    O     0.51550   0.27980   0.96240   0.01267  Uiso   1.00
O54    O     0.74800   0.90530   0.60490   0.01267  Uiso   1.00
O55    O     0.28290   0.53400   0.94730   0.01267  Uiso   1.00
O56    O     0.61320   0.72770   0.54050   0.01267  Uiso   1.00
O57    O     0.38140   0.40200   0.08240   0.01267  Uiso   1.00
O58    O     0.44130   0.67130   0.44100   0.01267  Uiso   1.00
O59    O     0.49090   0.22720   0.54100   0.01267  Uiso   1.00
O60    O     0.67910   0.64210   0.01520   0.01267  Uiso   1.00
O61    O     0.61180   0.29040   0.46120   0.01267  Uiso   1.00
O62    O     0.93110   0.56310   0.33130   0.01267  Uiso   1.00
O63    O     0.77990   0.09990   0.00030   0.01267  Uiso   1.00
O64    O     0.23870   0.52960   0.20760   0.01267  Uiso   1.00
O65    O     0.77990   0.90010   0.49970   0.01267  Uiso   1.00
O66    O     0.81540   0.43280   0.68590   0.01267  Uiso   1.00
O67    O     0.98370   0.46180   0.78060   0.01267  Uiso   1.00
O68    O     0.18070   0.07160   0.80920   0.01267  Uiso   1.00
O69    O     0.13460   0.93180   0.09028   0.01267  Uiso   1.00
O70    O     0.23270   0.02490   0.70410   0.01267  Uiso   1.00
O71    O     0.71710   0.53400   0.44730   0.01267  Uiso   1.00
O72    O     0.29350   0.30730   0.58040   0.01267  Uiso   1.00
O73    O     0.13420   0.04010   0.21480   0.01267  Uiso   1.00
O74    O     0.73710   0.18270   0.03250   0.01267  Uiso   1.00
O75    O     0.48450   0.72020   0.03760   0.01267  Uiso   1.00
O76    O     0.13050   0.46640   0.79040   0.01267  Uiso   1.00
O77    O     0.71210   0.99020   0.55680   0.01267  Uiso   1.00
O78    O     0.38820   0.29040   0.96120   0.01267  Uiso   1.00
O79    O     0.07480   0.05620   0.33520   0.01267  Uiso   1.00
O80    O     0.75530   0.61200   0.39280   0.01267  Uiso   1.00
O81    O     0.28880   0.00890   0.87190   0.01267  Uiso   1.00
O82    O     0.78870   0.54580   0.97580   0.01267  Uiso   1.00
O83    O     0.78730   0.93500   0.02270   0.01267  Uiso   1.00
O84    O     0.29210   0.50160   0.12900   0.01267  Uiso   1.00
O85    O     0.68420   0.84140   0.99120   0.01267  Uiso   1.00
O86    O     0.74800   0.09470   0.89510   0.01267  Uiso   1.00
O87    O     0.32510   0.03710   0.99890   0.01267  Uiso   1.00
O88    O     0.73710   0.81730   0.46750   0.01267  Uiso   1.00
O89    O     0.28790   0.00980   0.44320   0.01267  Uiso   1.00
O90    O     0.79990   0.98420   0.85520   0.01267  Uiso   1.00
O91    O     0.70290   0.82280   0.57540   0.01267  Uiso   1.00
O92    O     0.17600   0.51020   0.97390   0.01267  Uiso   1.00
O93    O     0.89190   0.96940   0.28623   0.01267  Uiso   1.00
O94    O     0.19630   0.50140   0.64050   0.01267  Uiso   1.00
O95    O     0.29350   0.69270   0.91960   0.01267  Uiso   1.00
O96    O     0.26290   0.18270   0.53250   0.01267  Uiso   1.00
O97    O     0.61940   0.88740   0.08540   0.01267  Uiso   1.00
O98    O     0.92520   0.94380   0.66480   0.01267  Uiso   1.00
O99    O     0.38140   0.59800   0.41760   0.01267  Uiso   1.00
O100   O     0.82400   0.51020   0.47390   0.01267  Uiso   1.00
O101   O     0.32510   0.96290   0.50110   0.01267  Uiso   1.00
O102   O     0.78730   0.06500   0.47730   0.01267  Uiso   1.00
O103   O     0.60630   0.22150   0.04470   0.01267  Uiso   1.00
O104   O     0.79990   0.01580   0.64480   0.01267  Uiso   1.00
O105   O     0.78870   0.45420   0.52420   0.01267  Uiso   1.00
O106   O     0.88570   0.53350   0.71650   0.01267  Uiso   1.00
O107   O     0.70650   0.69270   0.41960   0.01267  Uiso   1.00
O108   O     0.74550   0.70450   0.52760   0.01267  Uiso   1.00
O109   O     0.61940   0.11260   0.41460   0.01267  Uiso   1.00
O110   O     0.13050   0.53360   0.70960   0.01267  Uiso   1.00
O111   O     0.79000   0.37720   0.00230   0.01267  Uiso   1.00
O112   O     0.71120   0.00890   0.37190   0.01267  Uiso   1.00
O113   O     0.06890   0.43690   0.66870   0.01267  Uiso   1.00
O114   O     0.61860   0.59800   0.91760   0.01267  Uiso   1.00
O115   O     0.21130   0.54580   0.47580   0.01267  Uiso   1.00
O116   O     0.81930   0.07160   0.30920   0.01267  Uiso   1.00
O117   O     0.21270   0.93500   0.52270   0.01267  Uiso   1.00
O118   O     0.61180   0.70960   0.03880   0.01267  Uiso   1.00
O119   O     0.19630   0.49860   0.85950   0.01267  Uiso   1.00
O120   O     0.21000   0.62280   0.99770   0.01267  Uiso   1.00
O121   O     0.80370   0.49860   0.35950   0.01267  Uiso   1.00
O122   O     0.31580   0.84140   0.49120   0.01267  Uiso   1.00
O123   O     0.38310   0.22530   0.03586   0.01267  Uiso   1.00
O124   O     0.24130   0.60120   0.39050   0.01267  Uiso   1.00
O125   O     0.86580   0.95990   0.78520   0.01267  Uiso   1.00
O126   O     0.38680   0.27230   0.45950   0.01267  Uiso   1.00
O127   O     0.06890   0.56310   0.83130   0.01267  Uiso   1.00
O128   O     0.55880   0.18510   0.44047   0.01267  Uiso   1.00
O129   O     0.61320   0.27230   0.95950   0.01267  Uiso   1.00
O130   O     0.93110   0.43690   0.16870   0.01267  Uiso   1.00
O131   O     0.61690   0.77470   0.96414   0.01267  Uiso   1.00
O132   O     0.76730   0.02490   0.20410   0.01267  Uiso   1.00
O133   O     0.38060   0.88740   0.58540   0.01267  Uiso   1.00
O134   O     0.22010   0.90010   0.99970   0.01267  Uiso   1.00
O135   O     0.86540   0.93180   0.59028   0.01267  Uiso   1.00
O136   O     0.88570   0.46650   0.78350   0.01267  Uiso   1.00
O137   O     0.76130   0.52960   0.70760   0.01267  Uiso   1.00
O138   O     0.48450   0.27980   0.46240   0.01267  Uiso   1.00
O139   O     0.29210   0.49840   0.37100   0.01267  Uiso   1.00
O140   O     0.75530   0.38800   0.10720   0.01267  Uiso   1.00
O141   O     0.26290   0.81730   0.96750   0.01267  Uiso   1.00
O142   O     0.18460   0.43280   0.18590   0.01267  Uiso   1.00
O143   O     0.01050   0.03772   0.71840   0.01267  Uiso   1.00
O144   O     0.71710   0.46600   0.05270   0.01267  Uiso   1.00
O145   O     0.92520   0.05620   0.83520   0.01267  Uiso   1.00
O146   O     0.32090   0.35790   0.98480   0.01267  Uiso   1.00
O147   O     0.70650   0.30730   0.08040   0.01267  Uiso   1.00
O148   O     0.55880   0.81490   0.05953   0.01267  Uiso   1.00
O149   O     0.22010   0.09990   0.50030   0.01267  Uiso   1.00
O150   O     0.29710   0.82280   0.07540   0.01267  Uiso   1.00
O151   O     0.44120   0.81490   0.55953   0.01267  Uiso   1.00
O152   O     0.71210   0.00980   0.94320   0.01267  Uiso   1.00
O153   O     0.68420   0.15860   0.50880   0.01267  Uiso   1.00
O154   O     0.76730   0.97510   0.29590   0.01267  Uiso   1.00
O155   O     0.89190   0.03060   0.21377   0.01267  Uiso   1.00
O156   O     0.10810   0.03060   0.71377   0.01267  Uiso   1.00
O157   O     0.61690   0.22530   0.53586   0.01267  Uiso   1.00
O158   O     0.76020   0.11120   0.38160   0.01267  Uiso   1.00
O159   O     0.28790   0.99020   0.05680   0.01267  Uiso   1.00
O160   O     0.25450   0.29550   0.47240   0.01267  Uiso   1.00
O161   O     0.25450   0.70450   0.02760   0.01267  Uiso   1.00
O162   O     0.20010   0.01580   0.14480   0.01267  Uiso   1.00
O163   O     0.32090   0.64210   0.51520   0.01267  Uiso   1.00
O164   O     0.39370   0.22150   0.54470   0.01267  Uiso   1.00
O165   O     0.98950   0.03772   0.21840   0.01267  Uiso   1.00
O166   O     0.44130   0.32870   0.05900   0.01267  Uiso   1.00
O167   O     0.70790   0.50160   0.62900   0.01267  Uiso   1.00
O168   O     0.55870   0.67130   0.94100   0.01267  Uiso   1.00
O169   O     0.21270   0.06500   0.97730   0.01267  Uiso   1.00
O170   O     0.38060   0.11260   0.91460   0.01267  Uiso   1.00
O171   O     0.81990   0.98950   0.96990   0.01267  Uiso   1.00
O172   O     0.24470   0.38800   0.60720   0.01267  Uiso   1.00
O173   O     0.12800   0.58290   0.90680   0.01267  Uiso   1.00
O174   O     0.67490   0.03710   0.49890   0.01267  Uiso   1.00
O175   O     0.07480   0.94380   0.16480   0.01267  Uiso   1.00
O176   O     0.18010   0.01050   0.03010   0.01267  Uiso   1.00
O177   O     0.55870   0.32870   0.55900   0.01267  Uiso   1.00
O178   O     0.23870   0.47040   0.29240   0.01267  Uiso   1.00
O179   O     0.50910   0.22720   0.04100   0.01267  Uiso   1.00
O180   O     0.98950   0.96228   0.28160   0.01267  Uiso   1.00
O181   O     0.75870   0.39880   0.60950   0.01267  Uiso   1.00
O182   O     0.70290   0.17720   0.92460   0.01267  Uiso   1.00
O183   O     0.49090   0.77280   0.95900   0.01267  Uiso   1.00
O184   O     0.86950   0.53360   0.20960   0.01267  Uiso   1.00
O185   O     0.39370   0.77850   0.95530   0.01267  Uiso   1.00
O186   O     0.32200   0.48290   0.00050   0.01267  Uiso   1.00
O187   O     0.23270   0.97510   0.79590   0.01267  Uiso   1.00
O188   O     0.38310   0.77470   0.46414   0.01267  Uiso   1.00
O189   O     0.23980   0.88880   0.61840   0.01267  Uiso   1.00
O190   O     0.01630   0.46180   0.28060   0.01267  Uiso   1.00
O191   O     0.24470   0.61200   0.89280   0.01267  Uiso   1.00
O192   O     0.01630   0.53820   0.21940   0.01267  Uiso   1.00
