data_cg500975j_si_002_clean
_audit_creation_date              2015-08-19
_audit_creation_method            'Materials Studio'
_symmetry_space_group_name_H-M    'P1'
_symmetry_Int_Tables_number       1
_symmetry_cell_setting            triclinic
loop_
_symmetry_equiv_pos_as_xyz
  x,y,z
_cell_length_a                    8.8570
_cell_length_b                    16.0970
_cell_length_c                    31.5740
_cell_angle_alpha                 90.0000
_cell_angle_beta                  90.0000
_cell_angle_gamma                 92.1520
loop_
_atom_site_label
_atom_site_type_symbol
_atom_site_fract_x
_atom_site_fract_y
_atom_site_fract_z
_atom_site_U_iso_or_equiv
_atom_site_adp_type
_atom_site_occupancy
Ni1    Ni    0.32423   0.01747   0.33393   0.01267  Uiso   1.00
Ni2    Ni    0.82423   0.51747   0.16607   0.01267  Uiso   1.00
Ni3    Ni    0.67577   0.98253   0.66607   0.01267  Uiso   1.00
Ni4    Ni    0.17577   0.48253   0.83393   0.01267  Uiso   1.00
H1     H     0.49080   0.21720   0.46350   0.01267  Uiso   1.00
H2     H     0.01790   0.62510   0.44510   0.01267  Uiso   1.00
H3     H     0.29280   0.93500   0.86730   0.01267  Uiso   1.00
H4     H     0.70370   0.00810   0.34570   0.01267  Uiso   1.00
H5     H     0.84470   0.09270   0.05510   0.01267  Uiso   1.00
H6     H     0.51350   0.94660   0.20370   0.01267  Uiso   1.00
H7     H     0.53360   0.76590   0.29320   0.01267  Uiso   1.00
H8     H     0.08180   0.88750   0.17670   0.01267  Uiso   1.00
H9     H     0.64770   0.38160   0.88350   0.01267  Uiso   1.00
H10    H     0.04350   0.02660   0.66230   0.01267  Uiso   1.00
H11    H     0.83130   0.53300   0.45420   0.01267  Uiso   1.00
H12    H     0.41820   0.61250   0.67670   0.01267  Uiso   1.00
H13    H     0.27960   0.15140   0.93350   0.01267  Uiso   1.00
H14    H     0.21070   0.03200   0.72500   0.01267  Uiso   1.00
H15    H     0.50920   0.78280   0.53650   0.01267  Uiso   1.00
H16    H     0.99670   0.88370   0.10660   0.01267  Uiso   1.00
H17    H     0.03740   0.00240   0.54090   0.01267  Uiso   1.00
H18    H     0.98210   0.37490   0.55490   0.01267  Uiso   1.00
H19    H     0.20460   0.23570   0.47180   0.01267  Uiso   1.00
H20    H     0.47530   0.66180   0.49650   0.01267  Uiso   1.00
H21    H     0.26800   0.64090   0.88890   0.01267  Uiso   1.00
H22    H     0.12740   0.74470   0.41490   0.01267  Uiso   1.00
H23    H     0.85230   0.11840   0.38350   0.01267  Uiso   1.00
H24    H     0.00330   0.11630   0.89340   0.01267  Uiso   1.00
H25    H     0.54350   0.52660   0.83770   0.01267  Uiso   1.00
H26    H     0.28930   0.46800   0.22500   0.01267  Uiso   1.00
H27    H     0.35230   0.61840   0.11650   0.01267  Uiso   1.00
H28    H     0.10000   0.60010   0.56440   0.01267  Uiso   1.00
H29    H     0.29540   0.26430   0.97180   0.01267  Uiso   1.00
H30    H     0.48650   0.05340   0.79630   0.01267  Uiso   1.00
H31    H     0.98650   0.55340   0.70370   0.01267  Uiso   1.00
H32    H     0.79630   0.49190   0.84570   0.01267  Uiso   1.00
H33    H     0.13550   0.72020   0.60530   0.01267  Uiso   1.00
H34    H     0.71190   0.43360   0.70310   0.01267  Uiso   1.00
H35    H     0.87260   0.25530   0.58510   0.01267  Uiso   1.00
H36    H     0.65530   0.40730   0.55510   0.01267  Uiso   1.00
H37    H     0.86450   0.27980   0.39470   0.01267  Uiso   1.00
H38    H     0.76800   0.14090   0.61110   0.01267  Uiso   1.00
H39    H     0.36450   0.77980   0.10530   0.01267  Uiso   1.00
H40    H     0.02470   0.83820   0.99650   0.01267  Uiso   1.00
H41    H     0.45650   0.47340   0.16230   0.01267  Uiso   1.00
H42    H     0.62740   0.24470   0.08510   0.01267  Uiso   1.00
H43    H     0.21840   0.98920   0.23680   0.01267  Uiso   1.00
H44    H     0.34470   0.59270   0.44490   0.01267  Uiso   1.00
H45    H     0.78810   0.06640   0.20310   0.01267  Uiso   1.00
H46    H     0.62950   0.67550   0.24250   0.01267  Uiso   1.00
H47    H     0.46260   0.49760   0.04090   0.01267  Uiso   1.00
H48    H     0.21190   0.93360   0.79690   0.01267  Uiso   1.00
H49    H     0.70720   0.06500   0.13270   0.01267  Uiso   1.00
H50    H     0.53740   0.50240   0.95910   0.01267  Uiso   1.00
H51    H     0.03360   0.26590   0.20680   0.01267  Uiso   1.00
H52    H     0.11360   0.08970   0.41120   0.01267  Uiso   1.00
H53    H     0.91820   0.11250   0.82330   0.01267  Uiso   1.00
H54    H     0.01350   0.44660   0.29630   0.01267  Uiso   1.00
H55    H     0.48210   0.87490   0.94510   0.01267  Uiso   1.00
H56    H     0.20720   0.56500   0.36730   0.01267  Uiso   1.00
H57    H     0.58180   0.38750   0.32330   0.01267  Uiso   1.00
H58    H     0.38640   0.41030   0.91120   0.01267  Uiso   1.00
H59    H     0.46640   0.23410   0.70680   0.01267  Uiso   1.00
H60    H     0.49670   0.38370   0.39340   0.01267  Uiso   1.00
H61    H     0.87050   0.82450   0.74250   0.01267  Uiso   1.00
H62    H     0.79280   0.43500   0.63270   0.01267  Uiso   1.00
H63    H     0.60000   0.10010   0.93560   0.01267  Uiso   1.00
H64    H     0.79540   0.76430   0.52820   0.01267  Uiso   1.00
H65    H     0.71840   0.48920   0.26320   0.01267  Uiso   1.00
H66    H     0.90000   0.39990   0.43560   0.01267  Uiso   1.00
H67    H     0.16870   0.46700   0.54580   0.01267  Uiso   1.00
H68    H     0.12950   0.17550   0.25750   0.01267  Uiso   1.00
H69    H     0.59640   0.85340   0.15240   0.01267  Uiso   1.00
H70    H     0.00920   0.28280   0.96350   0.01267  Uiso   1.00
H71    H     0.61360   0.58970   0.08880   0.01267  Uiso   1.00
H72    H     0.72040   0.84860   0.06650   0.01267  Uiso   1.00
H73    H     0.40000   0.89990   0.06440   0.01267  Uiso   1.00
H74    H     0.73200   0.35910   0.11110   0.01267  Uiso   1.00
H75    H     0.20370   0.50810   0.15430   0.01267  Uiso   1.00
H76    H     0.77960   0.65140   0.56650   0.01267  Uiso   1.00
H77    H     0.58840   0.83930   0.60410   0.01267  Uiso   1.00
H78    H     0.88640   0.91030   0.58880   0.01267  Uiso   1.00
H79    H     0.40360   0.14660   0.84760   0.01267  Uiso   1.00
H80    H     0.14770   0.88160   0.61650   0.01267  Uiso   1.00
H81    H     0.28810   0.56640   0.29690   0.01267  Uiso   1.00
H82    H     0.28160   0.51080   0.73680   0.01267  Uiso   1.00
H83    H     0.10010   0.11580   0.50280   0.01267  Uiso   1.00
H84    H     0.78160   0.01080   0.76320   0.01267  Uiso   1.00
H85    H     0.39990   0.38420   0.00280   0.01267  Uiso   1.00
H86    H     0.33130   0.03300   0.04580   0.01267  Uiso   1.00
H87    H     0.37260   0.75530   0.91490   0.01267  Uiso   1.00
H88    H     0.96260   0.99760   0.45910   0.01267  Uiso   1.00
H89    H     0.23200   0.85910   0.38890   0.01267  Uiso   1.00
H90    H     0.09640   0.35340   0.34760   0.01267  Uiso   1.00
H91    H     0.66870   0.96700   0.95420   0.01267  Uiso   1.00
H92    H     0.78930   0.96800   0.27500   0.01267  Uiso   1.00
H93    H     0.29630   0.99190   0.65430   0.01267  Uiso   1.00
H94    H     0.22040   0.34860   0.43350   0.01267  Uiso   1.00
H95    H     0.90360   0.64660   0.65240   0.01267  Uiso   1.00
H96    H     0.50330   0.61630   0.60660   0.01267  Uiso   1.00
H97    H     0.08840   0.33930   0.89590   0.01267  Uiso   1.00
H98    H     0.71070   0.53200   0.77500   0.01267  Uiso   1.00
H99    H     0.41160   0.16070   0.39590   0.01267  Uiso   1.00
H100   H     0.91160   0.66070   0.10410   0.01267  Uiso   1.00
H101   H     0.63550   0.22020   0.89470   0.01267  Uiso   1.00
H102   H     0.99080   0.71720   0.03650   0.01267  Uiso   1.00
H103   H     0.51790   0.12510   0.05490   0.01267  Uiso   1.00
H104   H     0.15530   0.90730   0.94490   0.01267  Uiso   1.00
H105   H     0.95650   0.97340   0.33770   0.01267  Uiso   1.00
H106   H     0.97530   0.16180   0.00350   0.01267  Uiso   1.00
H107   H     0.89990   0.88420   0.49720   0.01267  Uiso   1.00
H108   H     0.60010   0.61580   0.99720   0.01267  Uiso   1.00
H109   H     0.70460   0.73570   0.02820   0.01267  Uiso   1.00
H110   H     0.52470   0.33820   0.50350   0.01267  Uiso   1.00
H111   H     0.96640   0.73410   0.79320   0.01267  Uiso   1.00
H112   H     0.37050   0.32450   0.75750   0.01267  Uiso   1.00
C1     C     0.70940   0.52872   0.56750   0.01267  Uiso   1.00
C2     C     0.92330   0.83133   0.48613   0.01267  Uiso   1.00
C3     C     0.19520   0.95737   0.95722   0.01267  Uiso   1.00
C4     C     0.51930   0.32636   0.04800   0.01267  Uiso   1.00
C5     C     0.46260   0.92562   0.28625   0.01267  Uiso   1.00
C6     C     0.10500   0.23029   0.26545   0.01267  Uiso   1.00
C7     C     0.39010   0.18195   0.01114   0.01267  Uiso   1.00
C8     C     0.17990   0.39553   0.49232   0.01267  Uiso   1.00
C9     C     0.59400   0.32673   0.48150   0.01267  Uiso   1.00
C10    C     0.48910   0.47520   0.19095   0.01267  Uiso   1.00
C11    C     0.07670   0.16867   0.51387   0.01267  Uiso   1.00
C12    C     0.51090   0.52480   0.80905   0.01267  Uiso   1.00
C13    C     0.57670   0.66867   0.98613   0.01267  Uiso   1.00
C14    C     0.33040   0.52921   0.31658   0.01267  Uiso   1.00
C15    C     0.41280   0.16380   0.81889   0.01267  Uiso   1.00
C16    C     0.42700   0.74506   0.54251   0.01267  Uiso   1.00
C17    C     0.44050   0.47614   0.30368   0.01267  Uiso   1.00
C18    C     0.53740   0.07438   0.71375   0.01267  Uiso   1.00
C19    C     0.69890   0.96817   0.98305   0.01267  Uiso   1.00
C20    C     0.66300   0.05333   0.36074   0.01267  Uiso   1.00
C21    C     0.83040   0.02921   0.18342   0.01267  Uiso   1.00
C22    C     0.61830   0.53085   0.08744   0.01267  Uiso   1.00
C23    C     0.82010   0.60447   0.50768   0.01267  Uiso   1.00
C24    C     0.00810   0.32204   0.54432   0.01267  Uiso   1.00
C25    C     0.78420   0.11775   0.97365   0.01267  Uiso   1.00
C26    C     0.82860   0.26194   0.92479   0.01267  Uiso   1.00
C27    C     0.81580   0.36315   0.44111   0.01267  Uiso   1.00
C28    C     0.53620   0.89148   0.21158   0.01267  Uiso   1.00
C29    C     0.89660   0.97220   0.27484   0.01267  Uiso   1.00
C30    C     0.96380   0.60852   0.71158   0.01267  Uiso   1.00
C31    C     0.49190   0.17796   0.04432   0.01267  Uiso   1.00
C32    C     0.65740   0.52722   0.61256   0.01267  Uiso   1.00
C33    C     0.46380   0.10852   0.78842   0.01267  Uiso   1.00
C34    C     0.28200   0.52806   0.35834   0.01267  Uiso   1.00
C35    C     0.00320   0.63595   0.11196   0.01267  Uiso   1.00
C36    C     0.51850   0.86610   0.25357   0.01267  Uiso   1.00
C37    C     0.78200   0.02806   0.14166   0.01267  Uiso   1.00
C38    C     0.53560   0.48067   0.06084   0.01267  Uiso   1.00
C39    C     0.67140   0.23806   0.42479   0.01267  Uiso   1.00
C40    C     0.86820   0.01651   0.74554   0.01267  Uiso   1.00
C41    C     0.04980   0.28441   0.23506   0.01267  Uiso   1.00
C42    C     0.45020   0.21559   0.73506   0.01267  Uiso   1.00
C43    C     0.20940   0.02872   0.93250   0.01267  Uiso   1.00
C44    C     0.69520   0.45737   0.54278   0.01267  Uiso   1.00
C45    C     0.24530   0.61337   0.11846   0.01267  Uiso   1.00
C46    C     0.60500   0.73029   0.23455   0.01267  Uiso   1.00
C47    C     0.72890   0.89759   0.04975   0.01267  Uiso   1.00
C48    C     0.66960   0.47079   0.68342   0.01267  Uiso   1.00
C49    C     0.12440   0.25620   0.30742   0.01267  Uiso   1.00
C50    C     0.81230   0.80302   0.65992   0.01267  Uiso   1.00
C51    C     0.16300   0.55333   0.13926   0.01267  Uiso   1.00
C52    C     0.04610   0.07894   0.87391   0.01267  Uiso   1.00
C53    C     0.31680   0.59448   0.90045   0.01267  Uiso   1.00
C54    C     0.40600   0.67327   0.51850   0.01267  Uiso   1.00
C55    C     0.50320   0.13595   0.38804   0.01267  Uiso   1.00
C56    C     0.05950   0.02386   0.80368   0.01267  Uiso   1.00
C57    C     0.18770   0.19698   0.34008   0.01267  Uiso   1.00
C58    C     0.44300   0.75077   0.93743   0.01267  Uiso   1.00
C59    C     0.50810   0.82204   0.95568   0.01267  Uiso   1.00
C60    C     0.39500   0.26971   0.76545   0.01267  Uiso   1.00
C61    C     0.10340   0.02780   0.72516   0.01267  Uiso   1.00
C62    C     0.98910   0.97520   0.30905   0.01267  Uiso   1.00
C63    C     0.00420   0.92278   0.16786   0.01267  Uiso   1.00
C64    C     0.03560   0.98067   0.43916   0.01267  Uiso   1.00
C65    C     0.17140   0.73806   0.07521   0.01267  Uiso   1.00
C66    C     0.03740   0.57438   0.78625   0.01267  Uiso   1.00
C67    C     0.46440   0.51933   0.93916   0.01267  Uiso   1.00
C68    C     0.70480   0.20821   0.91663   0.01267  Uiso   1.00
C69    C     0.73860   0.45786   0.50018   0.01267  Uiso   1.00
C70    C     0.89500   0.76971   0.73455   0.01267  Uiso   1.00
C71    C     0.25470   0.88663   0.61846   0.01267  Uiso   1.00
C72    C     0.84260   0.97278   0.11256   0.01267  Uiso   1.00
C73    C     0.57300   0.25494   0.45749   0.01267  Uiso   1.00
C74    C     0.89010   0.68195   0.48886   0.01267  Uiso   1.00
C75    C     0.38170   0.46915   0.91256   0.01267  Uiso   1.00
C76    C     0.63970   0.74034   0.00446   0.01267  Uiso   1.00
C77    C     0.01930   0.82636   0.45200   0.01267  Uiso   1.00
C78    C     0.01850   0.36610   0.24643   0.01267  Uiso   1.00
C79    C     0.26140   0.54214   0.49982   0.01267  Uiso   1.00
C80    C     0.99680   0.36405   0.88804   0.01267  Uiso   1.00
C81    C     0.76140   0.04214   0.00018   0.01267  Uiso   1.00
C82    C     0.62440   0.75620   0.19258   0.01267  Uiso   1.00
C83    C     0.23860   0.95786   0.99982   0.01267  Uiso   1.00
C84    C     0.80110   0.53183   0.48305   0.01267  Uiso   1.00
C85    C     0.27110   0.10241   0.95025   0.01267  Uiso   1.00
C86    C     0.71800   0.47194   0.64166   0.01267  Uiso   1.00
C87    C     0.18320   0.90552   0.40045   0.01267  Uiso   1.00
C88    C     0.79520   0.29179   0.41663   0.01267  Uiso   1.00
C89    C     0.60340   0.52780   0.77484   0.01267  Uiso   1.00
C90    C     0.48070   0.67364   0.95200   0.01267  Uiso   1.00
C91    C     0.94050   0.97614   0.19632   0.01267  Uiso   1.00
C92    C     0.68770   0.69698   0.15992   0.01267  Uiso   1.00
C93    C     0.55700   0.24923   0.06257   0.01267  Uiso   1.00
C94    C     0.98150   0.63390   0.75357   0.01267  Uiso   1.00
C95    C     0.95020   0.71559   0.76494   0.01267  Uiso   1.00
C96    C     0.42330   0.33133   0.01387   0.01267  Uiso   1.00
C97    C     0.50420   0.42278   0.33214   0.01267  Uiso   1.00
C98    C     0.20480   0.70821   0.58337   0.01267  Uiso   1.00
C99    C     0.32010   0.10447   0.99232   0.01267  Uiso   1.00
C100   C     0.54610   0.57894   0.62609   0.01267  Uiso   1.00
C101   C     0.33700   0.94667   0.63926   0.01267  Uiso   1.00
C102   C     0.55950   0.52386   0.69632   0.01267  Uiso   1.00
C103   C     0.60990   0.81805   0.98886   0.01267  Uiso   1.00
C104   C     0.03620   0.39148   0.28842   0.01267  Uiso   1.00
C105   C     0.36820   0.51651   0.75446   0.01267  Uiso   1.00
C106   C     0.58720   0.83620   0.18111   0.01267  Uiso   1.00
C107   C     0.68420   0.13685   0.94111   0.01267  Uiso   1.00
C108   C     0.15740   0.02722   0.88744   0.01267  Uiso   1.00
C109   C     0.74530   0.11337   0.38154   0.01267  Uiso   1.00
C110   C     0.90600   0.17327   0.98150   0.01267  Uiso   1.00
C111   C     0.10990   0.31805   0.51114   0.01267  Uiso   1.00
C112   C     0.21800   0.97194   0.85834   0.01267  Uiso   1.00
C113   C     0.05700   0.74923   0.43743   0.01267  Uiso   1.00
C114   C     0.08720   0.33620   0.31889   0.01267  Uiso   1.00
C115   C     0.63180   0.48349   0.24554   0.01267  Uiso   1.00
C116   C     0.16960   0.97079   0.81658   0.01267  Uiso   1.00
C117   C     0.94300   0.25077   0.56257   0.01267  Uiso   1.00
C118   C     0.29520   0.79179   0.08337   0.01267  Uiso   1.00
C119   C     0.95390   0.92106   0.12609   0.01267  Uiso   1.00
C120   C     0.32860   0.76194   0.57521   0.01267  Uiso   1.00
C121   C     0.99580   0.07722   0.83214   0.01267  Uiso   1.00
C122   C     0.29060   0.47128   0.43250   0.01267  Uiso   1.00
C123   C     0.30110   0.03183   0.01695   0.01267  Uiso   1.00
C124   C     0.22890   0.39759   0.45025   0.01267  Uiso   1.00
C125   C     0.39660   0.47220   0.22516   0.01267  Uiso   1.00
C126   C     0.96440   0.01933   0.56084   0.01267  Uiso   1.00
C127   C     0.31230   0.30302   0.84008   0.01267  Uiso   1.00
C128   C     0.49580   0.57722   0.66786   0.01267  Uiso   1.00
C129   C     0.48150   0.13390   0.74643   0.01267  Uiso   1.00
C130   C     0.83700   0.44667   0.86074   0.01267  Uiso   1.00
C131   C     0.75470   0.38663   0.88154   0.01267  Uiso   1.00
C132   C     0.07300   0.75494   0.04251   0.01267  Uiso   1.00
C133   C     0.98070   0.17364   0.54800   0.01267  Uiso   1.00
C134   C     0.80480   0.04263   0.04278   0.01267  Uiso   1.00
C135   C     0.71580   0.38225   0.47365   0.01267  Uiso   1.00
C136   C     0.31580   0.86315   0.05889   0.01267  Uiso   1.00
C137   C     0.86030   0.75966   0.50446   0.01267  Uiso   1.00
C138   C     0.99190   0.67796   0.45568   0.01267  Uiso   1.00
C139   C     0.68320   0.40552   0.09955   0.01267  Uiso   1.00
C140   C     0.87560   0.74380   0.69258   0.01267  Uiso   1.00
C141   C     0.30480   0.54263   0.45722   0.01267  Uiso   1.00
C142   C     0.45390   0.42106   0.37391   0.01267  Uiso   1.00
C143   C     0.79060   0.97128   0.06750   0.01267  Uiso   1.00
C144   C     0.11830   0.03085   0.41256   0.01267  Uiso   1.00
C145   C     0.21580   0.88225   0.02635   0.01267  Uiso   1.00
C146   C     0.54980   0.78441   0.26494   0.01267  Uiso   1.00
C147   C     0.19890   0.46817   0.51695   0.01267  Uiso   1.00
C148   C     0.18420   0.63685   0.55889   0.01267  Uiso   1.00
C149   C     0.37560   0.24380   0.80742   0.01267  Uiso   1.00
C150   C     0.92700   0.24506   0.95749   0.01267  Uiso   1.00
C151   C     0.91280   0.66380   0.68111   0.01267  Uiso   1.00
C152   C     0.36030   0.25966   0.99554   0.01267  Uiso   1.00
C153   C     0.01090   0.02480   0.69095   0.01267  Uiso   1.00
C154   C     0.49680   0.86405   0.61196   0.01267  Uiso   1.00
C155   C     0.28420   0.61775   0.52635   0.01267  Uiso   1.00
C156   C     0.96260   0.42562   0.21375   0.01267  Uiso   1.00
C157   C     0.13180   0.98349   0.25446   0.01267  Uiso   1.00
C158   C     0.67990   0.89553   0.00768   0.01267  Uiso   1.00
C159   C     0.88170   0.96915   0.58744   0.01267  Uiso   1.00
C160   C     0.09400   0.82673   0.01850   0.01267  Uiso   1.00
C161   C     0.13970   0.24034   0.49554   0.01267  Uiso   1.00
C162   C     0.77110   0.60241   0.54975   0.01267  Uiso   1.00
C163   C     0.81680   0.09448   0.59955   0.01267  Uiso   1.00
C164   C     0.34260   0.47278   0.38744   0.01267  Uiso   1.00
N1     N     0.85714   0.33423   0.89936   0.01267  Uiso   1.00
N2     N     0.98909   0.43194   0.86471   0.01267  Uiso   1.00
N3     N     0.01143   0.02358   0.76018   0.01267  Uiso   1.00
N4     N     0.51143   0.52358   0.73982   0.01267  Uiso   1.00
N5     N     0.51091   0.06806   0.36471   0.01267  Uiso   1.00
N6     N     0.57788   0.40068   0.06835   0.01267  Uiso   1.00
N7     N     0.07788   0.90068   0.43165   0.01267  Uiso   1.00
N8     N     0.64286   0.16577   0.39936   0.01267  Uiso   1.00
N9     N     0.92212   0.09932   0.56835   0.01267  Uiso   1.00
N10    N     0.20906   0.98362   0.38816   0.01267  Uiso   1.00
N11    N     0.14286   0.66577   0.10064   0.01267  Uiso   1.00
N12    N     0.98857   0.97642   0.23982   0.01267  Uiso   1.00
N13    N     0.48909   0.93194   0.63529   0.01267  Uiso   1.00
N14    N     0.01091   0.56806   0.13529   0.01267  Uiso   1.00
N15    N     0.29094   0.51638   0.88816   0.01267  Uiso   1.00
N16    N     0.36306   0.51855   0.79610   0.01267  Uiso   1.00
N17    N     0.79094   0.01638   0.61184   0.01267  Uiso   1.00
N18    N     0.48857   0.47642   0.26018   0.01267  Uiso   1.00
N19    N     0.86306   0.01855   0.70390   0.01267  Uiso   1.00
N20    N     0.70906   0.48362   0.11184   0.01267  Uiso   1.00
N21    N     0.13694   0.98145   0.29610   0.01267  Uiso   1.00
N22    N     0.63694   0.48145   0.20390   0.01267  Uiso   1.00
N23    N     0.42212   0.59932   0.93165   0.01267  Uiso   1.00
N24    N     0.35714   0.83423   0.60064   0.01267  Uiso   1.00
O1     O     0.92106   0.39930   0.17763   0.01267  Uiso   1.00
O2     O     0.24879   0.13406   0.32429   0.01267  Uiso   1.00
O3     O     0.07894   0.60070   0.82237   0.01267  Uiso   1.00
O4     O     0.75121   0.86594   0.67571   0.01267  Uiso   1.00
O5     O     0.42106   0.89930   0.32237   0.01267  Uiso   1.00
O6     O     0.74879   0.63406   0.17571   0.01267  Uiso   1.00
O7     O     0.25121   0.36594   0.82429   0.01267  Uiso   1.00
O8     O     0.32532   0.28575   0.87851   0.01267  Uiso   1.00
O9     O     0.95509   0.50179   0.22349   0.01267  Uiso   1.00
O10    O     0.82532   0.78575   0.62149   0.01267  Uiso   1.00
O11    O     0.57894   0.10070   0.67763   0.01267  Uiso   1.00
O12    O     0.67468   0.71425   0.12149   0.01267  Uiso   1.00
O13    O     0.17468   0.21425   0.37851   0.01267  Uiso   1.00
O14    O     0.45509   0.00179   0.27651   0.01267  Uiso   1.00
O15    O     0.54491   0.99821   0.72349   0.01267  Uiso   1.00
O16    O     0.04491   0.49821   0.77651   0.01267  Uiso   1.00
