data_cg5b00056_si_004_clean
_audit_creation_date              2015-08-19
_audit_creation_method            'Materials Studio'
_symmetry_space_group_name_H-M    'P1'
_symmetry_Int_Tables_number       1
_symmetry_cell_setting            triclinic
loop_
_symmetry_equiv_pos_as_xyz
  x,y,z
_cell_length_a                    19.9356
_cell_length_b                    19.9356
_cell_length_c                    20.3583
_cell_angle_alpha                 60.6845
_cell_angle_beta                  60.6845
_cell_angle_gamma                 60.0000
loop_
_atom_site_label
_atom_site_type_symbol
_atom_site_fract_x
_atom_site_fract_y
_atom_site_fract_z
_atom_site_U_iso_or_equiv
_atom_site_adp_type
_atom_site_occupancy
Mn1    Mn    0.26949   0.23051   0.75000   0.01267  Uiso   1.00
Mn2    Mn    0.23051   0.75000   0.75000   0.01267  Uiso   1.00
Mn3    Mn    0.73051   0.76949   0.25000   0.01267  Uiso   1.00
Mn4    Mn    0.76949   0.25000   0.25000   0.01267  Uiso   1.00
Mn5    Mn    0.75000   0.26949   0.75000   0.01267  Uiso   1.00
Mn6    Mn    0.25000   0.73051   0.25000   0.01267  Uiso   1.00
H1     H     0.05560   0.54220   0.95350   0.01267  Uiso   1.00
H2     H     0.40340   0.11580   0.83290   0.01267  Uiso   1.00
H3     H     0.18950   0.04180   0.88360   0.01267  Uiso   1.00
H4     H     0.55560   0.94870   0.45350   0.01267  Uiso   1.00
H5     H     0.96040   0.16350   0.02760   0.01267  Uiso   1.00
H6     H     0.01630   0.92230   0.27660   0.01267  Uiso   1.00
H7     H     0.98370   0.07770   0.72340   0.01267  Uiso   1.00
H8     H     0.66350   0.46040   0.52760   0.01267  Uiso   1.00
H9     H     0.24740   0.35180   0.49340   0.01267  Uiso   1.00
H10    H     0.74740   0.40740   0.99340   0.01267  Uiso   1.00
H11    H     0.38420   0.09660   0.66710   0.01267  Uiso   1.00
H12    H     0.33000   0.62380   0.40340   0.01267  Uiso   1.00
H13    H     0.83960   0.08050   0.77590   0.01267  Uiso   1.00
H14    H     0.92230   0.78480   0.27660   0.01267  Uiso   1.00
H15    H     0.34850   0.66350   0.52760   0.01267  Uiso   1.00
H16    H     0.12470   0.70570   0.44780   0.01267  Uiso   1.00
H17    H     0.67000   0.37620   0.59660   0.01267  Uiso   1.00
H18    H     0.18790   0.56340   0.66080   0.01267  Uiso   1.00
H19    H     0.19980   0.30150   0.57560   0.01267  Uiso   1.00
H20    H     0.87510   0.89910   0.93160   0.01267  Uiso   1.00
H21    H     0.33960   0.80400   0.27590   0.01267  Uiso   1.00
H22    H     0.19600   0.41950   0.72410   0.01267  Uiso   1.00
H23    H     0.91210   0.93660   0.83920   0.01267  Uiso   1.00
H24    H     0.22180   0.20570   0.94780   0.01267  Uiso   1.00
H25    H     0.69980   0.42310   0.07560   0.01267  Uiso   1.00
H26    H     0.07040   0.49080   0.52760   0.01267  Uiso   1.00
H27    H     0.09260   0.75260   0.50660   0.01267  Uiso   1.00
H28    H     0.59260   0.14820   0.00660   0.01267  Uiso   1.00
H29    H     0.16040   0.91950   0.22410   0.01267  Uiso   1.00
H30    H     0.04220   0.55560   0.45350   0.01267  Uiso   1.00
H31    H     0.03240   0.39630   0.04890   0.01267  Uiso   1.00
H32    H     0.46040   0.34850   0.52760   0.01267  Uiso   1.00
H33    H     0.41210   0.81210   0.33920   0.01267  Uiso   1.00
H34    H     0.08880   0.92960   0.47240   0.01267  Uiso   1.00
H35    H     0.68790   0.08790   0.16080   0.01267  Uiso   1.00
H36    H     0.90160   0.38190   0.87460   0.01267  Uiso   1.00
H37    H     0.94870   0.04220   0.45350   0.01267  Uiso   1.00
H38    H     0.55130   0.94440   0.04650   0.01267  Uiso   1.00
H39    H     0.71520   0.57770   0.22340   0.01267  Uiso   1.00
H40    H     0.61580   0.90340   0.33290   0.01267  Uiso   1.00
H41    H     0.79420   0.39910   0.43160   0.01267  Uiso   1.00
H42    H     0.84850   0.96040   0.02760   0.01267  Uiso   1.00
H43    H     0.31050   0.61490   0.61640   0.01267  Uiso   1.00
H44    H     0.64280   0.33000   0.40340   0.01267  Uiso   1.00
H45    H     0.77820   0.79430   0.05220   0.01267  Uiso   1.00
H46    H     0.64820   0.09260   0.50660   0.01267  Uiso   1.00
H47    H     0.65810   0.11810   0.62540   0.01267  Uiso   1.00
H48    H     0.43660   0.41210   0.33920   0.01267  Uiso   1.00
H49    H     0.45820   0.31050   0.61640   0.01267  Uiso   1.00
H50    H     0.81050   0.95820   0.11640   0.01267  Uiso   1.00
H51    H     0.35720   0.67000   0.59660   0.01267  Uiso   1.00
H52    H     0.11490   0.81050   0.11640   0.01267  Uiso   1.00
H53    H     0.10090   0.70580   0.06840   0.01267  Uiso   1.00
H54    H     0.56340   0.58790   0.66080   0.01267  Uiso   1.00
H55    H     0.34190   0.88190   0.37460   0.01267  Uiso   1.00
H56    H     0.64790   0.40340   0.83290   0.01267  Uiso   1.00
H57    H     0.44870   0.05560   0.95350   0.01267  Uiso   1.00
H58    H     0.06340   0.68790   0.16080   0.01267  Uiso   1.00
H59    H     0.14280   0.12380   0.90340   0.01267  Uiso   1.00
H60    H     0.79430   0.37530   0.05220   0.01267  Uiso   1.00
H61    H     0.30400   0.83960   0.77590   0.01267  Uiso   1.00
H62    H     0.90740   0.24740   0.49340   0.01267  Uiso   1.00
H63    H     0.02240   0.89630   0.54890   0.01267  Uiso   1.00
H64    H     0.12380   0.83000   0.90340   0.01267  Uiso   1.00
H65    H     0.72180   0.12470   0.44780   0.01267  Uiso   1.00
H66    H     0.62490   0.20580   0.56840   0.01267  Uiso   1.00
H67    H     0.58880   0.00920   0.97240   0.01267  Uiso   1.00
H68    H     0.54180   0.68950   0.38360   0.01267  Uiso   1.00
H69    H     0.08790   0.06340   0.16080   0.01267  Uiso   1.00
H70    H     0.88190   0.40160   0.37460   0.01267  Uiso   1.00
H71    H     0.99080   0.57040   0.02760   0.01267  Uiso   1.00
H72    H     0.60090   0.62490   0.56840   0.01267  Uiso   1.00
H73    H     0.11580   0.64790   0.83290   0.01267  Uiso   1.00
H74    H     0.68950   0.38510   0.38360   0.01267  Uiso   1.00
H75    H     0.38510   0.54180   0.38360   0.01267  Uiso   1.00
H76    H     0.80400   0.58050   0.27590   0.01267  Uiso   1.00
H77    H     0.37620   0.35720   0.59660   0.01267  Uiso   1.00
H78    H     0.89910   0.29420   0.93160   0.01267  Uiso   1.00
H79    H     0.61490   0.45820   0.61640   0.01267  Uiso   1.00
H80    H     0.60370   0.47760   0.95110   0.01267  Uiso   1.00
H81    H     0.90340   0.14790   0.33290   0.01267  Uiso   1.00
H82    H     0.44440   0.05130   0.54650   0.01267  Uiso   1.00
H83    H     0.85210   0.38420   0.66710   0.01267  Uiso   1.00
H84    H     0.07770   0.21520   0.72340   0.01267  Uiso   1.00
H85    H     0.75260   0.64820   0.50660   0.01267  Uiso   1.00
H86    H     0.57040   0.41120   0.02760   0.01267  Uiso   1.00
H87    H     0.87620   0.17000   0.09660   0.01267  Uiso   1.00
H88    H     0.45780   0.55130   0.04650   0.01267  Uiso   1.00
H89    H     0.92310   0.19980   0.57560   0.01267  Uiso   1.00
H90    H     0.30020   0.57690   0.92440   0.01267  Uiso   1.00
H91    H     0.07690   0.80020   0.42440   0.01267  Uiso   1.00
H92    H     0.04180   0.88510   0.88360   0.01267  Uiso   1.00
H93    H     0.96760   0.60370   0.95110   0.01267  Uiso   1.00
H94    H     0.69850   0.07690   0.42440   0.01267  Uiso   1.00
H95    H     0.85720   0.87620   0.09660   0.01267  Uiso   1.00
H96    H     0.20580   0.60090   0.56840   0.01267  Uiso   1.00
H97    H     0.81210   0.43660   0.33920   0.01267  Uiso   1.00
H98    H     0.92960   0.50920   0.47240   0.01267  Uiso   1.00
H99    H     0.65150   0.33650   0.47240   0.01267  Uiso   1.00
H100   H     0.89630   0.53240   0.54890   0.01267  Uiso   1.00
H101   H     0.85180   0.74740   0.99340   0.01267  Uiso   1.00
H102   H     0.88510   0.18950   0.88360   0.01267  Uiso   1.00
H103   H     0.30150   0.92310   0.57560   0.01267  Uiso   1.00
H104   H     0.15810   0.09840   0.12540   0.01267  Uiso   1.00
H105   H     0.42310   0.80150   0.07560   0.01267  Uiso   1.00
H106   H     0.25260   0.59260   0.00660   0.01267  Uiso   1.00
H107   H     0.09840   0.61810   0.12540   0.01267  Uiso   1.00
H108   H     0.88420   0.35210   0.16710   0.01267  Uiso   1.00
H109   H     0.33650   0.53960   0.47240   0.01267  Uiso   1.00
H110   H     0.28480   0.42230   0.77660   0.01267  Uiso   1.00
H111   H     0.11810   0.59840   0.62540   0.01267  Uiso   1.00
H112   H     0.91950   0.69600   0.22410   0.01267  Uiso   1.00
H113   H     0.69600   0.16040   0.22410   0.01267  Uiso   1.00
H114   H     0.41950   0.66040   0.72410   0.01267  Uiso   1.00
H115   H     0.35210   0.59660   0.16710   0.01267  Uiso   1.00
H116   H     0.42230   0.51630   0.77660   0.01267  Uiso   1.00
H117   H     0.38190   0.84190   0.87460   0.01267  Uiso   1.00
H118   H     0.95820   0.11490   0.11640   0.01267  Uiso   1.00
H119   H     0.05130   0.95780   0.54650   0.01267  Uiso   1.00
H120   H     0.66040   0.19600   0.72410   0.01267  Uiso   1.00
H121   H     0.48370   0.71520   0.22340   0.01267  Uiso   1.00
H122   H     0.29420   0.87510   0.93160   0.01267  Uiso   1.00
H123   H     0.80150   0.69980   0.07560   0.01267  Uiso   1.00
H124   H     0.37530   0.77820   0.05220   0.01267  Uiso   1.00
H125   H     0.51630   0.28480   0.77660   0.01267  Uiso   1.00
H126   H     0.14820   0.25260   0.00660   0.01267  Uiso   1.00
H127   H     0.84190   0.90160   0.87460   0.01267  Uiso   1.00
H128   H     0.83000   0.14280   0.90340   0.01267  Uiso   1.00
H129   H     0.70580   0.12490   0.06840   0.01267  Uiso   1.00
H130   H     0.53960   0.65150   0.47240   0.01267  Uiso   1.00
H131   H     0.58790   0.18790   0.66080   0.01267  Uiso   1.00
H132   H     0.95780   0.44440   0.54650   0.01267  Uiso   1.00
H133   H     0.53240   0.02240   0.54890   0.01267  Uiso   1.00
H134   H     0.21520   0.98370   0.72340   0.01267  Uiso   1.00
H135   H     0.03960   0.83650   0.97240   0.01267  Uiso   1.00
H136   H     0.20570   0.62470   0.94780   0.01267  Uiso   1.00
H137   H     0.80020   0.69850   0.42440   0.01267  Uiso   1.00
H138   H     0.19850   0.30020   0.92440   0.01267  Uiso   1.00
H139   H     0.12490   0.10090   0.06840   0.01267  Uiso   1.00
H140   H     0.31210   0.91210   0.83920   0.01267  Uiso   1.00
H141   H     0.47760   0.96760   0.95110   0.01267  Uiso   1.00
H142   H     0.54220   0.44870   0.95350   0.01267  Uiso   1.00
H143   H     0.00920   0.42960   0.97240   0.01267  Uiso   1.00
H144   H     0.17000   0.85720   0.09660   0.01267  Uiso   1.00
H145   H     0.35180   0.90740   0.49340   0.01267  Uiso   1.00
H146   H     0.09660   0.85210   0.66710   0.01267  Uiso   1.00
H147   H     0.40740   0.85180   0.99340   0.01267  Uiso   1.00
H148   H     0.49080   0.91120   0.52760   0.01267  Uiso   1.00
H149   H     0.15150   0.03960   0.97240   0.01267  Uiso   1.00
H150   H     0.14790   0.61580   0.33290   0.01267  Uiso   1.00
H151   H     0.58050   0.33960   0.27590   0.01267  Uiso   1.00
H152   H     0.91120   0.07040   0.52760   0.01267  Uiso   1.00
H153   H     0.87530   0.29430   0.55220   0.01267  Uiso   1.00
H154   H     0.78480   0.01630   0.27660   0.01267  Uiso   1.00
H155   H     0.62380   0.64280   0.40340   0.01267  Uiso   1.00
H156   H     0.39910   0.37510   0.43160   0.01267  Uiso   1.00
H157   H     0.10370   0.46760   0.45110   0.01267  Uiso   1.00
H158   H     0.37510   0.79420   0.43160   0.01267  Uiso   1.00
H159   H     0.29430   0.27820   0.55220   0.01267  Uiso   1.00
H160   H     0.41120   0.99080   0.02760   0.01267  Uiso   1.00
H161   H     0.57770   0.48370   0.22340   0.01267  Uiso   1.00
H162   H     0.40160   0.34190   0.37460   0.01267  Uiso   1.00
H163   H     0.83650   0.15150   0.97240   0.01267  Uiso   1.00
H164   H     0.39630   0.52240   0.04890   0.01267  Uiso   1.00
H165   H     0.27820   0.87530   0.55220   0.01267  Uiso   1.00
H166   H     0.94440   0.45780   0.04650   0.01267  Uiso   1.00
H167   H     0.59840   0.65810   0.62540   0.01267  Uiso   1.00
H168   H     0.57690   0.19850   0.92440   0.01267  Uiso   1.00
H169   H     0.46760   0.97760   0.45110   0.01267  Uiso   1.00
H170   H     0.50920   0.08880   0.47240   0.01267  Uiso   1.00
H171   H     0.59660   0.88420   0.16710   0.01267  Uiso   1.00
H172   H     0.97760   0.10370   0.45110   0.01267  Uiso   1.00
H173   H     0.62470   0.22180   0.94780   0.01267  Uiso   1.00
H174   H     0.93660   0.31210   0.83920   0.01267  Uiso   1.00
H175   H     0.42960   0.58880   0.97240   0.01267  Uiso   1.00
H176   H     0.16350   0.84850   0.02760   0.01267  Uiso   1.00
H177   H     0.52240   0.03240   0.04890   0.01267  Uiso   1.00
H178   H     0.08050   0.30400   0.77590   0.01267  Uiso   1.00
H179   H     0.70570   0.72180   0.44780   0.01267  Uiso   1.00
H180   H     0.61810   0.15810   0.12540   0.01267  Uiso   1.00
C1     C     0.97278   0.91648   0.27666   0.01267  Uiso   1.00
C2     C     0.93399   0.23589   0.08643   0.01267  Uiso   1.00
C3     C     0.20335   0.78585   0.52895   0.01267  Uiso   1.00
C4     C     0.17726   0.25626   0.95152   0.01267  Uiso   1.00
C5     C     0.33408   0.41648   0.77666   0.01267  Uiso   1.00
C6     C     0.66592   0.58352   0.22334   0.01267  Uiso   1.00
C7     C     0.27179   0.69388   0.91396   0.01267  Uiso   1.00
C8     C     0.53620   0.23210   0.44750   0.01267  Uiso   1.00
C9     C     0.98744   0.69914   0.11388   0.01267  Uiso   1.00
C10    C     0.19914   0.48744   0.61388   0.01267  Uiso   1.00
C11    C     0.01763   0.15808   0.72331   0.01267  Uiso   1.00
C12    C     0.56800   0.67800   0.41870   0.01267  Uiso   1.00
C13    C     0.17557   0.57007   0.61739   0.01267  Uiso   1.00
C14    C     0.66470   0.43200   0.58130   0.01267  Uiso   1.00
C15    C     0.76411   0.25631   0.91357   0.01267  Uiso   1.00
C16    C     0.57007   0.63697   0.61739   0.01267  Uiso   1.00
C17    C     0.89902   0.98237   0.27669   0.01267  Uiso   1.00
C18    C     0.32274   0.88504   0.54848   0.01267  Uiso   1.00
C19    C     0.11496   0.75626   0.45152   0.01267  Uiso   1.00
C20    C     0.03899   0.65749   0.93793   0.01267  Uiso   1.00
C21    C     0.39902   0.34192   0.77669   0.01267  Uiso   1.00
C22    C     0.75626   0.67726   0.45152   0.01267  Uiso   1.00
C23    C     0.70335   0.98185   0.02895   0.01267  Uiso   1.00
C24    C     0.10098   0.01763   0.72331   0.01267  Uiso   1.00
C25    C     0.24369   0.73589   0.58643   0.01267  Uiso   1.00
C26    C     0.78420   0.53620   0.44750   0.01267  Uiso   1.00
C27    C     0.12037   0.27179   0.91396   0.01267  Uiso   1.00
C28    C     0.63697   0.17557   0.61739   0.01267  Uiso   1.00
C29    C     0.30612   0.87963   0.08604   0.01267  Uiso   1.00
C30    C     0.93877   0.22887   0.72049   0.01267  Uiso   1.00
C31    C     0.21580   0.46380   0.55250   0.01267  Uiso   1.00
C32    C     0.71580   0.26790   0.05250   0.01267  Uiso   1.00
C33    C     0.80612   0.22821   0.58604   0.01267  Uiso   1.00
C34    C     0.32443   0.86303   0.88261   0.01267  Uiso   1.00
C35    C     0.06834   0.91284   0.52958   0.01267  Uiso   1.00
C36    C     0.15808   0.10098   0.72331   0.01267  Uiso   1.00
C37    C     0.28585   0.70335   0.02895   0.01267  Uiso   1.00
C38    C     0.03620   0.28420   0.94750   0.01267  Uiso   1.00
C39    C     0.51763   0.60098   0.22331   0.01267  Uiso   1.00
C40    C     0.56123   0.38813   0.77951   0.01267  Uiso   1.00
C41    C     0.41284   0.56834   0.02958   0.01267  Uiso   1.00
C42    C     0.92993   0.32443   0.88261   0.01267  Uiso   1.00
C43    C     0.77113   0.88813   0.27951   0.01267  Uiso   1.00
C44    C     0.30086   0.80046   0.88612   0.01267  Uiso   1.00
C45    C     0.13697   0.07007   0.11739   0.01267  Uiso   1.00
C46    C     0.02722   0.08352   0.72334   0.01267  Uiso   1.00
C47    C     0.58352   0.52722   0.22334   0.01267  Uiso   1.00
C48    C     0.01815   0.71415   0.97105   0.01267  Uiso   1.00
C49    C     0.75631   0.26411   0.41357   0.01267  Uiso   1.00
C50    C     0.74374   0.38504   0.04848   0.01267  Uiso   1.00
C51    C     0.65808   0.51763   0.22331   0.01267  Uiso   1.00
C52    C     0.07007   0.67557   0.11739   0.01267  Uiso   1.00
C53    C     0.83408   0.97278   0.27666   0.01267  Uiso   1.00
C54    C     0.72821   0.30612   0.08604   0.01267  Uiso   1.00
C55    C     0.22821   0.37963   0.58604   0.01267  Uiso   1.00
C56    C     0.87963   0.72821   0.08604   0.01267  Uiso   1.00
C57    C     0.98185   0.28585   0.02895   0.01267  Uiso   1.00
C58    C     0.53899   0.86559   0.43793   0.01267  Uiso   1.00
C59    C     0.65749   0.36559   0.93793   0.01267  Uiso   1.00
C60    C     0.91284   0.48924   0.52958   0.01267  Uiso   1.00
C61    C     0.52722   0.66592   0.22334   0.01267  Uiso   1.00
C62    C     0.80086   0.51256   0.38612   0.01267  Uiso   1.00
C63    C     0.88504   0.24374   0.54848   0.01267  Uiso   1.00
C64    C     0.69954   0.19914   0.61388   0.01267  Uiso   1.00
C65    C     0.30046   0.80086   0.38612   0.01267  Uiso   1.00
C66    C     0.22887   0.11187   0.72049   0.01267  Uiso   1.00
C67    C     0.61496   0.17726   0.95152   0.01267  Uiso   1.00
C68    C     0.23589   0.74369   0.08643   0.01267  Uiso   1.00
C69    C     0.93166   0.08716   0.47042   0.01267  Uiso   1.00
C70    C     0.19388   0.77179   0.41396   0.01267  Uiso   1.00
C71    C     0.61187   0.72887   0.22049   0.01267  Uiso   1.00
C72    C     0.58716   0.43166   0.97042   0.01267  Uiso   1.00
C73    C     0.25626   0.61496   0.95152   0.01267  Uiso   1.00
C74    C     0.82443   0.42993   0.38261   0.01267  Uiso   1.00
C75    C     0.91648   0.83408   0.27666   0.01267  Uiso   1.00
C76    C     0.82274   0.74374   0.04848   0.01267  Uiso   1.00
C77    C     0.41648   0.47278   0.77666   0.01267  Uiso   1.00
C78    C     0.56601   0.75631   0.41357   0.01267  Uiso   1.00
C79    C     0.86303   0.92993   0.88261   0.01267  Uiso   1.00
C80    C     0.73589   0.43399   0.58643   0.01267  Uiso   1.00
C81    C     0.48744   0.69954   0.61388   0.01267  Uiso   1.00
C82    C     0.51256   0.30046   0.38612   0.01267  Uiso   1.00
C83    C     0.38813   0.27113   0.77951   0.01267  Uiso   1.00
C84    C     0.36559   0.03899   0.93793   0.01267  Uiso   1.00
C85    C     0.71415   0.29665   0.97105   0.01267  Uiso   1.00
C86    C     0.27113   0.56123   0.77951   0.01267  Uiso   1.00
C87    C     0.08716   0.51076   0.47042   0.01267  Uiso   1.00
C88    C     0.34251   0.63441   0.06207   0.01267  Uiso   1.00
C89    C     0.74369   0.93399   0.08643   0.01267  Uiso   1.00
C90    C     0.96380   0.71580   0.05250   0.01267  Uiso   1.00
C91    C     0.08352   0.16592   0.72334   0.01267  Uiso   1.00
C92    C     0.33530   0.56800   0.41870   0.01267  Uiso   1.00
C93    C     0.43166   0.01076   0.97042   0.01267  Uiso   1.00
C94    C     0.26411   0.56601   0.41357   0.01267  Uiso   1.00
C95    C     0.46380   0.76790   0.55250   0.01267  Uiso   1.00
C96    C     0.69388   0.12037   0.91396   0.01267  Uiso   1.00
C97    C     0.26790   0.96380   0.05250   0.01267  Uiso   1.00
C98    C     0.43200   0.32200   0.58130   0.01267  Uiso   1.00
C99    C     0.82200   0.93200   0.08130   0.01267  Uiso   1.00
C100   C     0.24374   0.32274   0.54848   0.01267  Uiso   1.00
C101   C     0.84192   0.89902   0.27669   0.01267  Uiso   1.00
C102   C     0.67557   0.13697   0.11739   0.01267  Uiso   1.00
C103   C     0.77179   0.62037   0.41396   0.01267  Uiso   1.00
C104   C     0.15749   0.53899   0.43793   0.01267  Uiso   1.00
C105   C     0.78585   0.48185   0.52895   0.01267  Uiso   1.00
C106   C     0.79665   0.21415   0.47105   0.01267  Uiso   1.00
C107   C     0.17800   0.06800   0.91870   0.01267  Uiso   1.00
C108   C     0.34192   0.48237   0.77669   0.01267  Uiso   1.00
C109   C     0.62037   0.19388   0.41396   0.01267  Uiso   1.00
C110   C     0.28420   0.73210   0.94750   0.01267  Uiso   1.00
C111   C     0.96101   0.34251   0.06207   0.01267  Uiso   1.00
C112   C     0.16470   0.82200   0.08130   0.01267  Uiso   1.00
C113   C     0.42993   0.36303   0.38261   0.01267  Uiso   1.00
C114   C     0.29665   0.01815   0.97105   0.01267  Uiso   1.00
C115   C     0.76790   0.21580   0.55250   0.01267  Uiso   1.00
C116   C     0.98237   0.84192   0.27669   0.01267  Uiso   1.00
C117   C     0.21415   0.51815   0.47105   0.01267  Uiso   1.00
C118   C     0.48924   0.06834   0.52958   0.01267  Uiso   1.00
C119   C     0.01256   0.30086   0.88612   0.01267  Uiso   1.00
C120   C     0.01076   0.58716   0.97042   0.01267  Uiso   1.00
C121   C     0.06800   0.83530   0.91870   0.01267  Uiso   1.00
C122   C     0.25631   0.06601   0.91357   0.01267  Uiso   1.00
C123   C     0.83530   0.17800   0.91870   0.01267  Uiso   1.00
C124   C     0.51815   0.79665   0.47105   0.01267  Uiso   1.00
C125   C     0.56834   0.98924   0.02958   0.01267  Uiso   1.00
C126   C     0.06601   0.76411   0.91357   0.01267  Uiso   1.00
C127   C     0.16592   0.02722   0.72334   0.01267  Uiso   1.00
C128   C     0.38504   0.82274   0.04848   0.01267  Uiso   1.00
C129   C     0.72887   0.43877   0.22049   0.01267  Uiso   1.00
C130   C     0.32200   0.66470   0.58130   0.01267  Uiso   1.00
C131   C     0.46101   0.13441   0.56207   0.01267  Uiso   1.00
C132   C     0.51076   0.93166   0.47042   0.01267  Uiso   1.00
C133   C     0.48237   0.39902   0.77669   0.01267  Uiso   1.00
C134   C     0.98924   0.41284   0.02958   0.01267  Uiso   1.00
C135   C     0.37963   0.80612   0.58604   0.01267  Uiso   1.00
C136   C     0.73210   0.03620   0.94750   0.01267  Uiso   1.00
C137   C     0.43877   0.61187   0.22049   0.01267  Uiso   1.00
C138   C     0.43399   0.24369   0.58643   0.01267  Uiso   1.00
C139   C     0.67726   0.11496   0.45152   0.01267  Uiso   1.00
C140   C     0.67800   0.33530   0.41870   0.01267  Uiso   1.00
C141   C     0.19954   0.98744   0.11388   0.01267  Uiso   1.00
C142   C     0.60098   0.65808   0.22331   0.01267  Uiso   1.00
C143   C     0.86559   0.15749   0.43793   0.01267  Uiso   1.00
C144   C     0.80046   0.01256   0.88612   0.01267  Uiso   1.00
C145   C     0.06123   0.77113   0.27951   0.01267  Uiso   1.00
C146   C     0.13441   0.84251   0.56207   0.01267  Uiso   1.00
C147   C     0.84251   0.46101   0.56207   0.01267  Uiso   1.00
C148   C     0.69914   0.19954   0.11388   0.01267  Uiso   1.00
C149   C     0.93200   0.16470   0.08130   0.01267  Uiso   1.00
C150   C     0.48185   0.20335   0.52895   0.01267  Uiso   1.00
C151   C     0.63441   0.96101   0.06207   0.01267  Uiso   1.00
C152   C     0.47278   0.33408   0.77666   0.01267  Uiso   1.00
C153   C     0.11187   0.93877   0.72049   0.01267  Uiso   1.00
C154   C     0.36303   0.82443   0.38261   0.01267  Uiso   1.00
C155   C     0.88813   0.06123   0.27951   0.01267  Uiso   1.00
C156   C     0.23210   0.78420   0.44750   0.01267  Uiso   1.00
N1     N     0.20372   0.41994   0.67856   0.01267  Uiso   1.00
N2     N     0.08006   0.29628   0.82144   0.01267  Uiso   1.00
N3     N     0.76251   0.22207   0.66302   0.01267  Uiso   1.00
N4     N     0.59460   0.86559   0.36509   0.01267  Uiso   1.00
N5     N     0.63441   0.90540   0.13491   0.01267  Uiso   1.00
N6     N     0.58006   0.30222   0.32144   0.01267  Uiso   1.00
N7     N     0.27793   0.73749   0.83698   0.01267  Uiso   1.00
N8     N     0.90540   0.32528   0.13491   0.01267  Uiso   1.00
N9     N     0.29628   0.80222   0.82144   0.01267  Uiso   1.00
N10    N     0.35240   0.76251   0.66302   0.01267  Uiso   1.00
N11    N     0.36559   0.09460   0.86509   0.01267  Uiso   1.00
N12    N     0.29852   0.11317   0.84868   0.01267  Uiso   1.00
N13    N     0.91994   0.70372   0.17856   0.01267  Uiso   1.00
N14    N     0.80222   0.08006   0.82144   0.01267  Uiso   1.00
N15    N     0.11317   0.73963   0.84868   0.01267  Uiso   1.00
N16    N     0.79628   0.58006   0.32144   0.01267  Uiso   1.00
N17    N     0.70372   0.19778   0.17856   0.01267  Uiso   1.00
N18    N     0.73963   0.29852   0.84868   0.01267  Uiso   1.00
N19    N     0.17472   0.59460   0.36509   0.01267  Uiso   1.00
N20    N     0.85240   0.72207   0.16302   0.01267  Uiso   1.00
N21    N     0.73749   0.14760   0.83698   0.01267  Uiso   1.00
N22    N     0.77793   0.64760   0.33698   0.01267  Uiso   1.00
N23    N     0.82528   0.40540   0.63491   0.01267  Uiso   1.00
N24    N     0.64760   0.23749   0.33698   0.01267  Uiso   1.00
N25    N     0.13441   0.82528   0.63491   0.01267  Uiso   1.00
N26    N     0.38683   0.20148   0.65132   0.01267  Uiso   1.00
N27    N     0.26251   0.85240   0.16302   0.01267  Uiso   1.00
N28    N     0.19778   0.91994   0.17856   0.01267  Uiso   1.00
N29    N     0.14760   0.27793   0.83698   0.01267  Uiso   1.00
N30    N     0.41994   0.69778   0.67856   0.01267  Uiso   1.00
N31    N     0.40540   0.13441   0.63491   0.01267  Uiso   1.00
N32    N     0.32528   0.63441   0.13491   0.01267  Uiso   1.00
N33    N     0.26037   0.70148   0.15132   0.01267  Uiso   1.00
N34    N     0.22207   0.35240   0.66302   0.01267  Uiso   1.00
N35    N     0.23963   0.61317   0.34868   0.01267  Uiso   1.00
N36    N     0.20148   0.76037   0.65132   0.01267  Uiso   1.00
N37    N     0.67472   0.36559   0.86509   0.01267  Uiso   1.00
N38    N     0.30222   0.79628   0.32144   0.01267  Uiso   1.00
N39    N     0.88683   0.26037   0.15132   0.01267  Uiso   1.00
N40    N     0.61317   0.79852   0.34868   0.01267  Uiso   1.00
N41    N     0.86559   0.17472   0.36509   0.01267  Uiso   1.00
N42    N     0.72207   0.26251   0.16302   0.01267  Uiso   1.00
N43    N     0.79852   0.23963   0.34868   0.01267  Uiso   1.00
N44    N     0.76037   0.38683   0.65132   0.01267  Uiso   1.00
N45    N     0.09460   0.67472   0.86509   0.01267  Uiso   1.00
N46    N     0.23749   0.77793   0.33698   0.01267  Uiso   1.00
N47    N     0.70148   0.88683   0.15132   0.01267  Uiso   1.00
N48    N     0.69778   0.20372   0.67856   0.01267  Uiso   1.00
O1     O     0.21534   0.17980   0.72289   0.01267  Uiso   1.00
O2     O     0.82020   0.11803   0.27711   0.01267  Uiso   1.00
O3     O     0.55409   0.79674   0.21521   0.01267  Uiso   1.00
O4     O     0.61803   0.32020   0.77711   0.01267  Uiso   1.00
O5     O     0.20326   0.56604   0.78479   0.01267  Uiso   1.00
O6     O     0.78466   0.82020   0.27711   0.01267  Uiso   1.00
O7     O     0.44591   0.20326   0.78479   0.01267  Uiso   1.00
O8     O     0.71534   0.38197   0.22289   0.01267  Uiso   1.00
O9     O     0.93396   0.29674   0.71521   0.01267  Uiso   1.00
O10    O     0.56604   0.44591   0.78479   0.01267  Uiso   1.00
O11    O     0.32020   0.28466   0.77711   0.01267  Uiso   1.00
O12    O     0.70326   0.94591   0.28479   0.01267  Uiso   1.00
O13    O     0.43396   0.55409   0.21521   0.01267  Uiso   1.00
O14    O     0.79674   0.43396   0.21521   0.01267  Uiso   1.00
O15    O     0.38197   0.67980   0.22289   0.01267  Uiso   1.00
O16    O     0.17980   0.88197   0.72289   0.01267  Uiso   1.00
O17    O     0.11803   0.78466   0.27711   0.01267  Uiso   1.00
O18    O     0.05409   0.93396   0.71521   0.01267  Uiso   1.00
O19    O     0.67980   0.71534   0.22289   0.01267  Uiso   1.00
O20    O     0.28466   0.61803   0.77711   0.01267  Uiso   1.00
O21    O     0.29674   0.05409   0.71521   0.01267  Uiso   1.00
O22    O     0.88197   0.21534   0.72289   0.01267  Uiso   1.00
O23    O     0.94591   0.06604   0.28479   0.01267  Uiso   1.00
O24    O     0.06604   0.70326   0.28479   0.01267  Uiso   1.00
