data_image0
_cell_length_a       10.9709
_cell_length_b       10.9709
_cell_length_c       35.314
_cell_angle_alpha    90
_cell_angle_beta     90
_cell_angle_gamma    120

_symmetry_space_group_name_H-M    "P 1"
_symmetry_int_tables_number       1

loop_
  _symmetry_equiv_pos_as_xyz
  'x, y, z'

loop_
  _atom_site_label
  _atom_site_occupancy
  _atom_site_fract_x
  _atom_site_fract_y
  _atom_site_fract_z
  _atom_site_thermal_displace_type
  _atom_site_B_iso_or_equiv
  _atom_site_type_symbol
  N1       1.0000 0.95620  0.68520  0.07354  Biso   1.000  N
  N2       1.0000 0.93170  0.81930  0.03390  Biso   1.000  N
  N3       1.0000 0.82210  0.77080  0.05940  Biso   1.000  N
  C1       1.0000 0.01010  0.76700  0.04264  Biso   1.000  C
  H1       1.0000 0.09070  0.78310  0.02970  Biso   1.000  H
  C2       1.0000 0.84130  0.69210  0.08277  Biso   1.000  C
  H2       1.0000 0.78330  0.64610  0.10330  Biso   1.000  H
  N4       1.0000 0.62287  0.01853  0.40687  Biso   1.000  N
  N5       1.0000 0.59837  0.15263  0.36723  Biso   1.000  N
  N6       1.0000 0.48877  0.10413  0.39273  Biso   1.000  N
  C3       1.0000 0.67677  0.10033  0.37597  Biso   1.000  C
  H3       1.0000 0.75737  0.11643  0.36303  Biso   1.000  H
  C4       1.0000 0.50797  0.02543  0.41610  Biso   1.000  C
  H4       1.0000 0.44997  0.97943  0.43663  Biso   1.000  H
  N7       1.0000 0.28953  0.35187  0.74021  Biso   1.000  N
  N8       1.0000 0.26503  0.48597  0.70057  Biso   1.000  N
  N9       1.0000 0.15543  0.43747  0.72607  Biso   1.000  N
  C5       1.0000 0.34343  0.43367  0.70931  Biso   1.000  C
  H5       1.0000 0.42403  0.44977  0.69637  Biso   1.000  H
  C6       1.0000 0.17463  0.35877  0.74944  Biso   1.000  C
  H6       1.0000 0.11663  0.31277  0.76997  Biso   1.000  H
  N10      1.0000 0.31480  0.27100  0.07354  Biso   1.000  N
  N11      1.0000 0.18070  0.11240  0.03390  Biso   1.000  N
  N12      1.0000 0.22920  0.05130  0.05940  Biso   1.000  N
  C7       1.0000 0.23300  0.24310  0.04264  Biso   1.000  C
  H7       1.0000 0.21690  0.30760  0.02970  Biso   1.000  H
  C8       1.0000 0.30790  0.14920  0.08277  Biso   1.000  C
  H8       1.0000 0.35390  0.13720  0.10330  Biso   1.000  H
  N13      1.0000 0.98147  0.60433  0.40687  Biso   1.000  N
  N14      1.0000 0.84737  0.44573  0.36723  Biso   1.000  N
  N15      1.0000 0.89587  0.38463  0.39273  Biso   1.000  N
  C9       1.0000 0.89967  0.57643  0.37597  Biso   1.000  C
  H9       1.0000 0.88357  0.64093  0.36303  Biso   1.000  H
  C10      1.0000 0.97457  0.48253  0.41610  Biso   1.000  C
  H10      1.0000 0.02057  0.47053  0.43663  Biso   1.000  H
  N16      1.0000 0.64813  0.93767  0.74021  Biso   1.000  N
  N17      1.0000 0.51403  0.77907  0.70057  Biso   1.000  N
  N18      1.0000 0.56253  0.71797  0.72607  Biso   1.000  N
  C11      1.0000 0.56633  0.90977  0.70931  Biso   1.000  C
  H11      1.0000 0.55023  0.97427  0.69637  Biso   1.000  H
  C12      1.0000 0.64123  0.81587  0.74944  Biso   1.000  C
  H12      1.0000 0.68723  0.80387  0.76997  Biso   1.000  H
  N19      1.0000 0.72900  0.04380  0.07354  Biso   1.000  N
  N20      1.0000 0.88760  0.06830  0.03390  Biso   1.000  N
  N21      1.0000 0.94870  0.17790  0.05940  Biso   1.000  N
  C13      1.0000 0.75690  0.98990  0.04264  Biso   1.000  C
  H13      1.0000 0.69240  0.90930  0.02970  Biso   1.000  H
  C14      1.0000 0.85080  0.15870  0.08277  Biso   1.000  C
  H14      1.0000 0.86280  0.21670  0.10330  Biso   1.000  H
  N22      1.0000 0.39567  0.37713  0.40687  Biso   1.000  N
  N23      1.0000 0.55427  0.40163  0.36723  Biso   1.000  N
  N24      1.0000 0.61537  0.51123  0.39273  Biso   1.000  N
  C15      1.0000 0.42357  0.32323  0.37597  Biso   1.000  C
  H15      1.0000 0.35907  0.24263  0.36303  Biso   1.000  H
  C16      1.0000 0.51747  0.49203  0.41610  Biso   1.000  C
  H16      1.0000 0.52947  0.55003  0.43663  Biso   1.000  H
  N25      1.0000 0.06233  0.71047  0.74021  Biso   1.000  N
  N26      1.0000 0.22093  0.73497  0.70057  Biso   1.000  N
  N27      1.0000 0.28203  0.84457  0.72607  Biso   1.000  N
  C17      1.0000 0.09023  0.65657  0.70931  Biso   1.000  C
  H17      1.0000 0.02573  0.57597  0.69637  Biso   1.000  H
  C18      1.0000 0.18413  0.82537  0.74944  Biso   1.000  C
  H18      1.0000 0.19613  0.88337  0.76997  Biso   1.000  H
  N28      1.0000 0.68520  0.95620  0.42646  Biso   1.000  N
  N29      1.0000 0.81930  0.93170  0.46610  Biso   1.000  N
  N30      1.0000 0.77080  0.82210  0.44060  Biso   1.000  N
  C19      1.0000 0.76700  0.01010  0.45736  Biso   1.000  C
  H19      1.0000 0.78310  0.09070  0.47030  Biso   1.000  H
  C20      1.0000 0.69210  0.84130  0.41723  Biso   1.000  C
  H20      1.0000 0.64610  0.78330  0.39670  Biso   1.000  H
  N31      1.0000 0.35187  0.28953  0.75979  Biso   1.000  N
  N32      1.0000 0.48597  0.26503  0.79943  Biso   1.000  N
  N33      1.0000 0.43747  0.15543  0.77393  Biso   1.000  N
  C21      1.0000 0.43367  0.34343  0.79069  Biso   1.000  C
  H21      1.0000 0.44977  0.42403  0.80363  Biso   1.000  H
  C22      1.0000 0.35877  0.17463  0.75056  Biso   1.000  C
  H22      1.0000 0.31277  0.11663  0.73003  Biso   1.000  H
  N34      1.0000 0.01853  0.62287  0.09313  Biso   1.000  N
  N35      1.0000 0.15263  0.59837  0.13277  Biso   1.000  N
  N36      1.0000 0.10413  0.48877  0.10727  Biso   1.000  N
  C23      1.0000 0.10033  0.67677  0.12403  Biso   1.000  C
  H23      1.0000 0.11643  0.75737  0.13697  Biso   1.000  H
  C24      1.0000 0.02543  0.50797  0.08390  Biso   1.000  C
  H24      1.0000 0.97943  0.44997  0.06337  Biso   1.000  H
  N37      1.0000 0.27100  0.31480  0.42646  Biso   1.000  N
  N38      1.0000 0.11240  0.18070  0.46610  Biso   1.000  N
  N39      1.0000 0.05130  0.22920  0.44060  Biso   1.000  N
  C25      1.0000 0.24310  0.23300  0.45736  Biso   1.000  C
  H25      1.0000 0.30760  0.21690  0.47030  Biso   1.000  H
  C26      1.0000 0.14920  0.30790  0.41723  Biso   1.000  C
  H26      1.0000 0.13720  0.35390  0.39670  Biso   1.000  H
  N40      1.0000 0.93767  0.64813  0.75979  Biso   1.000  N
  N41      1.0000 0.77907  0.51403  0.79943  Biso   1.000  N
  N42      1.0000 0.71797  0.56253  0.77393  Biso   1.000  N
  C27      1.0000 0.90977  0.56633  0.79069  Biso   1.000  C
  H27      1.0000 0.97427  0.55023  0.80363  Biso   1.000  H
  C28      1.0000 0.81587  0.64123  0.75056  Biso   1.000  C
  H28      1.0000 0.80387  0.68723  0.73003  Biso   1.000  H
  N43      1.0000 0.60433  0.98147  0.09313  Biso   1.000  N
  N44      1.0000 0.44573  0.84737  0.13277  Biso   1.000  N
  N45      1.0000 0.38463  0.89587  0.10727  Biso   1.000  N
  C29      1.0000 0.57643  0.89967  0.12403  Biso   1.000  C
  H29      1.0000 0.64093  0.88357  0.13697  Biso   1.000  H
  C30      1.0000 0.48253  0.97457  0.08390  Biso   1.000  C
  H30      1.0000 0.47053  0.02057  0.06337  Biso   1.000  H
  N46      1.0000 0.04380  0.72900  0.42646  Biso   1.000  N
  N47      1.0000 0.06830  0.88760  0.46610  Biso   1.000  N
  N48      1.0000 0.17790  0.94870  0.44060  Biso   1.000  N
  C31      1.0000 0.98990  0.75690  0.45736  Biso   1.000  C
  H31      1.0000 0.90930  0.69240  0.47030  Biso   1.000  H
  C32      1.0000 0.15870  0.85080  0.41723  Biso   1.000  C
  H32      1.0000 0.21670  0.86280  0.39670  Biso   1.000  H
  N49      1.0000 0.71047  0.06233  0.75979  Biso   1.000  N
  N50      1.0000 0.73497  0.22093  0.79943  Biso   1.000  N
  N51      1.0000 0.84457  0.28203  0.77393  Biso   1.000  N
  C33      1.0000 0.65657  0.09023  0.79069  Biso   1.000  C
  H33      1.0000 0.57597  0.02573  0.80363  Biso   1.000  H
  C34      1.0000 0.82537  0.18413  0.75056  Biso   1.000  C
  H34      1.0000 0.88337  0.19613  0.73003  Biso   1.000  H
  N52      1.0000 0.37713  0.39567  0.09313  Biso   1.000  N
  N53      1.0000 0.40163  0.55427  0.13277  Biso   1.000  N
  N54      1.0000 0.51123  0.61537  0.10727  Biso   1.000  N
  C35      1.0000 0.32323  0.42357  0.12403  Biso   1.000  C
  H35      1.0000 0.24263  0.35907  0.13697  Biso   1.000  H
  C36      1.0000 0.49203  0.51747  0.08390  Biso   1.000  C
  H36      1.0000 0.55003  0.52947  0.06337  Biso   1.000  H
  N55      1.0000 0.04380  0.31480  0.92646  Biso   1.000  N
  N56      1.0000 0.06830  0.18070  0.96610  Biso   1.000  N
  N57      1.0000 0.17790  0.22920  0.94060  Biso   1.000  N
  C37      1.0000 0.98990  0.23300  0.95736  Biso   1.000  C
  H37      1.0000 0.90930  0.21690  0.97030  Biso   1.000  H
  C38      1.0000 0.15870  0.30790  0.91723  Biso   1.000  C
  H38      1.0000 0.21670  0.35390  0.89670  Biso   1.000  H
  N58      1.0000 0.71047  0.64813  0.25979  Biso   1.000  N
  N59      1.0000 0.73497  0.51403  0.29943  Biso   1.000  N
  N60      1.0000 0.84457  0.56253  0.27393  Biso   1.000  N
  C39      1.0000 0.65657  0.56633  0.29069  Biso   1.000  C
  H39      1.0000 0.57597  0.55023  0.30363  Biso   1.000  H
  C40      1.0000 0.82537  0.64123  0.25056  Biso   1.000  C
  H40      1.0000 0.88337  0.68723  0.23003  Biso   1.000  H
  N61      1.0000 0.37713  0.98147  0.59313  Biso   1.000  N
  N62      1.0000 0.40163  0.84737  0.63277  Biso   1.000  N
  N63      1.0000 0.51123  0.89587  0.60727  Biso   1.000  N
  C41      1.0000 0.32323  0.89967  0.62403  Biso   1.000  C
  H41      1.0000 0.24263  0.88357  0.63697  Biso   1.000  H
  C42      1.0000 0.49203  0.97457  0.58390  Biso   1.000  C
  H42      1.0000 0.55003  0.02057  0.56337  Biso   1.000  H
  N64      1.0000 0.68520  0.72900  0.92646  Biso   1.000  N
  N65      1.0000 0.81930  0.88760  0.96610  Biso   1.000  N
  N66      1.0000 0.77080  0.94870  0.94060  Biso   1.000  N
  C43      1.0000 0.76700  0.75690  0.95736  Biso   1.000  C
  H43      1.0000 0.78310  0.69240  0.97030  Biso   1.000  H
  C44      1.0000 0.69210  0.85080  0.91723  Biso   1.000  C
  H44      1.0000 0.64610  0.86280  0.89670  Biso   1.000  H
  N67      1.0000 0.35187  0.06233  0.25979  Biso   1.000  N
  N68      1.0000 0.48597  0.22093  0.29943  Biso   1.000  N
  N69      1.0000 0.43747  0.28203  0.27393  Biso   1.000  N
  C45      1.0000 0.43367  0.09023  0.29069  Biso   1.000  C
  H45      1.0000 0.44977  0.02573  0.30363  Biso   1.000  H
  C46      1.0000 0.35877  0.18413  0.25056  Biso   1.000  C
  H46      1.0000 0.31277  0.19613  0.23003  Biso   1.000  H
  N70      1.0000 0.01853  0.39567  0.59313  Biso   1.000  N
  N71      1.0000 0.15263  0.55427  0.63277  Biso   1.000  N
  N72      1.0000 0.10413  0.61537  0.60727  Biso   1.000  N
  C47      1.0000 0.10033  0.42357  0.62403  Biso   1.000  C
  H47      1.0000 0.11643  0.35907  0.63697  Biso   1.000  H
  C48      1.0000 0.02543  0.51747  0.58390  Biso   1.000  C
  H48      1.0000 0.97943  0.52947  0.56337  Biso   1.000  H
  N73      1.0000 0.27100  0.95620  0.92646  Biso   1.000  N
  N74      1.0000 0.11240  0.93170  0.96610  Biso   1.000  N
  N75      1.0000 0.05130  0.82210  0.94060  Biso   1.000  N
  C49      1.0000 0.24310  0.01010  0.95736  Biso   1.000  C
  H49      1.0000 0.30760  0.09070  0.97030  Biso   1.000  H
  C50      1.0000 0.14920  0.84130  0.91723  Biso   1.000  C
  H50      1.0000 0.13720  0.78330  0.89670  Biso   1.000  H
  N76      1.0000 0.93767  0.28953  0.25979  Biso   1.000  N
  N77      1.0000 0.77907  0.26503  0.29943  Biso   1.000  N
  N78      1.0000 0.71797  0.15543  0.27393  Biso   1.000  N
  C51      1.0000 0.90977  0.34343  0.29069  Biso   1.000  C
  H51      1.0000 0.97427  0.42403  0.30363  Biso   1.000  H
  C52      1.0000 0.81587  0.17463  0.25056  Biso   1.000  C
  H52      1.0000 0.80387  0.11663  0.23003  Biso   1.000  H
  N79      1.0000 0.60433  0.62287  0.59313  Biso   1.000  N
  N80      1.0000 0.44573  0.59837  0.63277  Biso   1.000  N
  N81      1.0000 0.38463  0.48877  0.60727  Biso   1.000  N
  C53      1.0000 0.57643  0.67677  0.62403  Biso   1.000  C
  H53      1.0000 0.64093  0.75737  0.63697  Biso   1.000  H
  C54      1.0000 0.48253  0.50797  0.58390  Biso   1.000  C
  H54      1.0000 0.47053  0.44997  0.56337  Biso   1.000  H
  N82      1.0000 0.31480  0.04380  0.57354  Biso   1.000  N
  N83      1.0000 0.18070  0.06830  0.53390  Biso   1.000  N
  N84      1.0000 0.22920  0.17790  0.55940  Biso   1.000  N
  C55      1.0000 0.23300  0.98990  0.54264  Biso   1.000  C
  H55      1.0000 0.21690  0.90930  0.52970  Biso   1.000  H
  C56      1.0000 0.30790  0.15870  0.58277  Biso   1.000  C
  H56      1.0000 0.35390  0.21670  0.60330  Biso   1.000  H
  N85      1.0000 0.98147  0.37713  0.90687  Biso   1.000  N
  N86      1.0000 0.84737  0.40163  0.86723  Biso   1.000  N
  N87      1.0000 0.89587  0.51123  0.89273  Biso   1.000  N
  C57      1.0000 0.89967  0.32323  0.87597  Biso   1.000  C
  H57      1.0000 0.88357  0.24263  0.86303  Biso   1.000  H
  C58      1.0000 0.97457  0.49203  0.91610  Biso   1.000  C
  H58      1.0000 0.02057  0.55003  0.93663  Biso   1.000  H
  N88      1.0000 0.64813  0.71047  0.24021  Biso   1.000  N
  N89      1.0000 0.51403  0.73497  0.20057  Biso   1.000  N
  N90      1.0000 0.56253  0.84457  0.22607  Biso   1.000  N
  C59      1.0000 0.56633  0.65657  0.20931  Biso   1.000  C
  H59      1.0000 0.55023  0.57597  0.19637  Biso   1.000  H
  C60      1.0000 0.64123  0.82537  0.24944  Biso   1.000  C
  H60      1.0000 0.68723  0.88337  0.26997  Biso   1.000  H
  N91      1.0000 0.72900  0.68520  0.57354  Biso   1.000  N
  N92      1.0000 0.88760  0.81930  0.53390  Biso   1.000  N
  N93      1.0000 0.94870  0.77080  0.55940  Biso   1.000  N
  C61      1.0000 0.75690  0.76700  0.54264  Biso   1.000  C
  H61      1.0000 0.69240  0.78310  0.52970  Biso   1.000  H
  C62      1.0000 0.85080  0.69210  0.58277  Biso   1.000  C
  H62      1.0000 0.86280  0.64610  0.60330  Biso   1.000  H
  N94      1.0000 0.39567  0.01853  0.90687  Biso   1.000  N
  N95      1.0000 0.55427  0.15263  0.86723  Biso   1.000  N
  N96      1.0000 0.61537  0.10413  0.89273  Biso   1.000  N
  C63      1.0000 0.42357  0.10033  0.87597  Biso   1.000  C
  H63      1.0000 0.35907  0.11643  0.86303  Biso   1.000  H
  C64      1.0000 0.51747  0.02543  0.91610  Biso   1.000  C
  H64      1.0000 0.52947  0.97943  0.93663  Biso   1.000  H
  N97      1.0000 0.06233  0.35187  0.24021  Biso   1.000  N
  N98      1.0000 0.22093  0.48597  0.20057  Biso   1.000  N
  N99      1.0000 0.28203  0.43747  0.22607  Biso   1.000  N
  C65      1.0000 0.09023  0.43367  0.20931  Biso   1.000  C
  H65      1.0000 0.02573  0.44977  0.19637  Biso   1.000  H
  C66      1.0000 0.18413  0.35877  0.24944  Biso   1.000  C
  H66      1.0000 0.19613  0.31277  0.26997  Biso   1.000  H
  N100     1.0000 0.95620  0.27100  0.57354  Biso   1.000  N
  N101     1.0000 0.93170  0.11240  0.53390  Biso   1.000  N
  N102     1.0000 0.82210  0.05130  0.55940  Biso   1.000  N
  C67      1.0000 0.01010  0.24310  0.54264  Biso   1.000  C
  H67      1.0000 0.09070  0.30760  0.52970  Biso   1.000  H
  C68      1.0000 0.84130  0.14920  0.58277  Biso   1.000  C
  H68      1.0000 0.78330  0.13720  0.60330  Biso   1.000  H
  N103     1.0000 0.62287  0.60433  0.90687  Biso   1.000  N
  N104     1.0000 0.59837  0.44573  0.86723  Biso   1.000  N
  N105     1.0000 0.48877  0.38463  0.89273  Biso   1.000  N
  C69      1.0000 0.67677  0.57643  0.87597  Biso   1.000  C
  H69      1.0000 0.75737  0.64093  0.86303  Biso   1.000  H
  C70      1.0000 0.50797  0.48253  0.91610  Biso   1.000  C
  H70      1.0000 0.44997  0.47053  0.93663  Biso   1.000  H
  N106     1.0000 0.28953  0.93767  0.24021  Biso   1.000  N
  N107     1.0000 0.26503  0.77907  0.20057  Biso   1.000  N
  N108     1.0000 0.15543  0.71797  0.22607  Biso   1.000  N
  C71      1.0000 0.34343  0.90977  0.20931  Biso   1.000  C
  H71      1.0000 0.42403  0.97427  0.19637  Biso   1.000  H
  C72      1.0000 0.17463  0.81587  0.24944  Biso   1.000  C
  H72      1.0000 0.11663  0.80387  0.26997  Biso   1.000  H
  Cu1      1.0000 0.00000  0.00000  0.00000  Biso   1.000  Cu
  Cu2      1.0000 0.66667  0.33333  0.33333  Biso   1.000  Cu
  Cu3      1.0000 0.33333  0.66667  0.66667  Biso   1.000  Cu
  Cu4      1.0000 0.00000  0.00000  0.50000  Biso   1.000  Cu
  Cu5      1.0000 0.66667  0.33333  0.83333  Biso   1.000  Cu
  Cu6      1.0000 0.33333  0.66667  0.16667  Biso   1.000  Cu
