data_cg901128k_si_004_clean
_audit_creation_date              2015-08-19
_audit_creation_method            'Materials Studio'
_symmetry_space_group_name_H-M    'P1'
_symmetry_Int_Tables_number       1
_symmetry_cell_setting            triclinic
loop_
_symmetry_equiv_pos_as_xyz
  x,y,z
_cell_length_a                    12.3634
_cell_length_b                    12.3634
_cell_length_c                    12.5390
_cell_angle_alpha                 90.0000
_cell_angle_beta                  90.0000
_cell_angle_gamma                 120.0000
loop_
_atom_site_label
_atom_site_type_symbol
_atom_site_fract_x
_atom_site_fract_y
_atom_site_fract_z
_atom_site_U_iso_or_equiv
_atom_site_adp_type
_atom_site_occupancy
Cu1    Cu    0.33333   0.66666   0.10000   0.01267  Uiso   1.00
Cu2    Cu    0.33333   0.66666   0.40000   0.01267  Uiso   1.00
Cu3    Cu    0.00000   0.50000   0.50000   0.01267  Uiso   1.00
Cu4    Cu    0.50000   0.00000   0.00000   0.01267  Uiso   1.00
Cu5    Cu    0.66667   0.33334   0.90000   0.01267  Uiso   1.00
Cu6    Cu    0.50000   0.50000   0.00000   0.01267  Uiso   1.00
Cu7    Cu    0.50000   0.50000   0.50000   0.01267  Uiso   1.00
Cu8    Cu    0.00000   0.50000   0.00000   0.01267  Uiso   1.00
Cu9    Cu    0.50000   0.00000   0.50000   0.01267  Uiso   1.00
Cu10   Cu    0.66667   0.33334   0.60000   0.01267  Uiso   1.00
H1     H     0.10670   0.55335   0.75000   0.01267  Uiso   1.00
H2     H     0.44665   0.55335   0.75000   0.01267  Uiso   1.00
H3     H     0.55335   0.10670   0.25000   0.01267  Uiso   1.00
H4     H     0.29020   0.24040   0.36900   0.01267  Uiso   1.00
H5     H     0.70980   0.75960   0.63100   0.01267  Uiso   1.00
H6     H     0.89330   0.44665   0.25000   0.01267  Uiso   1.00
H7     H     0.29020   0.24040   0.13100   0.01267  Uiso   1.00
H8     H     0.24040   0.29020   0.86900   0.01267  Uiso   1.00
H9     H     0.24040   0.95020   0.63100   0.01267  Uiso   1.00
H10    H     0.24040   0.29020   0.63100   0.01267  Uiso   1.00
H11    H     0.24040   0.95020   0.86900   0.01267  Uiso   1.00
H12    H     0.55335   0.44665   0.25000   0.01267  Uiso   1.00
H13    H     0.95020   0.70980   0.36900   0.01267  Uiso   1.00
H14    H     0.75960   0.04980   0.13100   0.01267  Uiso   1.00
H15    H     0.04980   0.75960   0.86900   0.01267  Uiso   1.00
H16    H     0.29020   0.04980   0.13100   0.01267  Uiso   1.00
H17    H     0.70980   0.95020   0.86900   0.01267  Uiso   1.00
H18    H     0.44665   0.89330   0.75000   0.01267  Uiso   1.00
H19    H     0.75960   0.70980   0.36900   0.01267  Uiso   1.00
H20    H     0.70980   0.95020   0.63100   0.01267  Uiso   1.00
H21    H     0.95020   0.24040   0.13100   0.01267  Uiso   1.00
H22    H     0.95020   0.24040   0.36900   0.01267  Uiso   1.00
H23    H     0.70980   0.75960   0.86900   0.01267  Uiso   1.00
H24    H     0.75960   0.70980   0.13100   0.01267  Uiso   1.00
H25    H     0.29020   0.04980   0.36900   0.01267  Uiso   1.00
H26    H     0.75960   0.04980   0.36900   0.01267  Uiso   1.00
H27    H     0.04980   0.29020   0.86900   0.01267  Uiso   1.00
H28    H     0.04980   0.29020   0.63100   0.01267  Uiso   1.00
H29    H     0.95020   0.70980   0.13100   0.01267  Uiso   1.00
H30    H     0.04980   0.75960   0.63100   0.01267  Uiso   1.00
C1     C     0.12310   0.77430   0.90560   0.01267  Uiso   1.00
C2     C     0.12310   0.34880   0.90560   0.01267  Uiso   1.00
C3     C     0.65120   0.87690   0.90560   0.01267  Uiso   1.00
C4     C     0.77430   0.12310   0.40560   0.01267  Uiso   1.00
C5     C     0.22570   0.87690   0.90560   0.01267  Uiso   1.00
C6     C     0.49100   0.98200   0.75000   0.01267  Uiso   1.00
C7     C     0.49100   0.50900   0.75000   0.01267  Uiso   1.00
C8     C     0.77430   0.12310   0.09440   0.01267  Uiso   1.00
C9     C     0.65120   0.77430   0.59440   0.01267  Uiso   1.00
C10    C     0.01800   0.50900   0.75000   0.01267  Uiso   1.00
C11    C     0.34880   0.22570   0.09440   0.01267  Uiso   1.00
C12    C     0.77430   0.65120   0.09440   0.01267  Uiso   1.00
C13    C     0.34880   0.12310   0.09440   0.01267  Uiso   1.00
C14    C     0.12310   0.34880   0.59440   0.01267  Uiso   1.00
C15    C     0.87690   0.22570   0.09440   0.01267  Uiso   1.00
C16    C     0.87690   0.22570   0.40560   0.01267  Uiso   1.00
C17    C     0.22570   0.34880   0.59440   0.01267  Uiso   1.00
C18    C     0.22570   0.87690   0.59440   0.01267  Uiso   1.00
C19    C     0.87690   0.65120   0.40560   0.01267  Uiso   1.00
C20    C     0.77430   0.65120   0.40560   0.01267  Uiso   1.00
C21    C     0.65120   0.87690   0.59440   0.01267  Uiso   1.00
C22    C     0.12310   0.77430   0.59440   0.01267  Uiso   1.00
C23    C     0.50900   0.01800   0.25000   0.01267  Uiso   1.00
C24    C     0.50900   0.49100   0.25000   0.01267  Uiso   1.00
C25    C     0.87690   0.65120   0.09440   0.01267  Uiso   1.00
C26    C     0.98200   0.49100   0.25000   0.01267  Uiso   1.00
C27    C     0.34880   0.22570   0.40560   0.01267  Uiso   1.00
C28    C     0.22570   0.34880   0.90560   0.01267  Uiso   1.00
C29    C     0.34880   0.12310   0.40560   0.01267  Uiso   1.00
C30    C     0.65120   0.77430   0.90560   0.01267  Uiso   1.00
N1     N     0.17370   0.58685   0.30390   0.01267  Uiso   1.00
N2     N     0.41315   0.82630   0.19610   0.01267  Uiso   1.00
N3     N     0.13360   0.44560   0.53390   0.01267  Uiso   1.00
N4     N     0.52730   0.05460   0.83500   0.01267  Uiso   1.00
N5     N     0.58685   0.17370   0.80390   0.01267  Uiso   1.00
N6     N     0.47270   0.52730   0.16500   0.01267  Uiso   1.00
N7     N     0.25175   0.50350   0.49790   0.01267  Uiso   1.00
N8     N     0.58685   0.41315   0.69610   0.01267  Uiso   1.00
N9     N     0.13360   0.44560   0.96610   0.01267  Uiso   1.00
N10    N     0.68800   0.13360   0.46610   0.01267  Uiso   1.00
N11    N     0.86640   0.55440   0.46610   0.01267  Uiso   1.00
N12    N     0.86640   0.31200   0.46610   0.01267  Uiso   1.00
N13    N     0.58685   0.17370   0.69610   0.01267  Uiso   1.00
N14    N     0.31200   0.44560   0.96610   0.01267  Uiso   1.00
N15    N     0.68800   0.55440   0.03390   0.01267  Uiso   1.00
N16    N     0.55440   0.68800   0.96610   0.01267  Uiso   1.00
N17    N     0.86640   0.31200   0.03390   0.01267  Uiso   1.00
N18    N     0.86640   0.55440   0.03390   0.01267  Uiso   1.00
N19    N     0.68800   0.13360   0.03390   0.01267  Uiso   1.00
N20    N     0.13360   0.68800   0.53390   0.01267  Uiso   1.00
N21    N     0.94540   0.47270   0.66500   0.01267  Uiso   1.00
N22    N     0.25175   0.50350   0.00210   0.01267  Uiso   1.00
N23    N     0.74825   0.25175   0.99790   0.01267  Uiso   1.00
N24    N     0.52730   0.05460   0.66500   0.01267  Uiso   1.00
N25    N     0.05460   0.52730   0.33500   0.01267  Uiso   1.00
N26    N     0.82630   0.41315   0.69610   0.01267  Uiso   1.00
N27    N     0.41315   0.82630   0.30390   0.01267  Uiso   1.00
N28    N     0.13360   0.68800   0.96610   0.01267  Uiso   1.00
N29    N     0.31200   0.86640   0.53390   0.01267  Uiso   1.00
N30    N     0.25175   0.74825   0.49790   0.01267  Uiso   1.00
N31    N     0.44560   0.13360   0.03390   0.01267  Uiso   1.00
N32    N     0.31200   0.86640   0.96610   0.01267  Uiso   1.00
N33    N     0.55440   0.86640   0.53390   0.01267  Uiso   1.00
N34    N     0.44560   0.31200   0.46610   0.01267  Uiso   1.00
N35    N     0.31200   0.44560   0.53390   0.01267  Uiso   1.00
N36    N     0.94540   0.47270   0.83500   0.01267  Uiso   1.00
N37    N     0.47270   0.94540   0.16500   0.01267  Uiso   1.00
N38    N     0.74825   0.49650   0.99790   0.01267  Uiso   1.00
N39    N     0.55440   0.86640   0.96610   0.01267  Uiso   1.00
N40    N     0.41315   0.58685   0.30390   0.01267  Uiso   1.00
N41    N     0.50350   0.25175   0.50210   0.01267  Uiso   1.00
N42    N     0.58685   0.41315   0.80390   0.01267  Uiso   1.00
N43    N     0.49650   0.74825   0.49790   0.01267  Uiso   1.00
N44    N     0.68800   0.55440   0.46610   0.01267  Uiso   1.00
N45    N     0.41315   0.58685   0.19610   0.01267  Uiso   1.00
N46    N     0.82630   0.41315   0.80390   0.01267  Uiso   1.00
N47    N     0.05460   0.52730   0.16500   0.01267  Uiso   1.00
N48    N     0.49650   0.74825   0.00210   0.01267  Uiso   1.00
N49    N     0.74825   0.49650   0.50210   0.01267  Uiso   1.00
N50    N     0.52730   0.47270   0.66500   0.01267  Uiso   1.00
N51    N     0.47270   0.52730   0.33500   0.01267  Uiso   1.00
N52    N     0.55440   0.68800   0.53390   0.01267  Uiso   1.00
N53    N     0.47270   0.94540   0.33500   0.01267  Uiso   1.00
N54    N     0.17370   0.58685   0.19610   0.01267  Uiso   1.00
N55    N     0.44560   0.31200   0.03390   0.01267  Uiso   1.00
N56    N     0.52730   0.47270   0.83500   0.01267  Uiso   1.00
N57    N     0.74825   0.25175   0.50210   0.01267  Uiso   1.00
N58    N     0.44560   0.13360   0.46610   0.01267  Uiso   1.00
N59    N     0.50350   0.25175   0.99790   0.01267  Uiso   1.00
N60    N     0.25175   0.74825   0.00210   0.01267  Uiso   1.00
