data_CICYIX_clean
_audit_creation_date              2014-07-02
_audit_creation_method            'Materials Studio'
_symmetry_space_group_name_H-M    'P1'
_symmetry_Int_Tables_number       1
_symmetry_cell_setting            triclinic
loop_
_symmetry_equiv_pos_as_xyz
  x,y,z
_cell_length_a                    5.3262
_cell_length_b                    6.2885
_cell_length_c                    8.1008
_cell_angle_alpha                 97.7330
_cell_angle_beta                  105.0550
_cell_angle_gamma                 110.4360
loop_
_atom_site_label
_atom_site_type_symbol
_atom_site_fract_x
_atom_site_fract_y
_atom_site_fract_z
_atom_site_U_iso_or_equiv
_atom_site_adp_type
_atom_site_occupancy
Cd1    Cd    0.00000   0.50000  -0.00000   0.01267  Uiso   1.00
H1     H     0.33710   0.55730   0.42120   0.01267  Uiso   1.00
H2     H     0.98520   0.03230   0.49850   0.01267  Uiso   1.00
C1     C     0.49810   0.77490   0.65990   0.01267  Uiso   1.00
C2     C     0.70570   0.68180   0.74930   0.01267  Uiso   1.00
C3     C     0.32400   0.68360   0.49210   0.01267  Uiso   1.00
C4     C     0.11720   0.77370   0.41740   0.01267  Uiso   1.00
C5     C     0.11670   0.96420   0.53690   0.01267  Uiso   1.00
C6     C     0.30170   0.04710   0.70330   0.01267  Uiso   1.00
C7     C     0.31370   0.24380   0.83920   0.01267  Uiso   1.00
O1     O     0.49500   0.95950   0.76690   0.01267  Uiso   1.00
O2     O     0.86260   0.78480   0.90730   0.01267  Uiso   1.00
O3     O     0.70250   0.50050   0.66400   0.01267  Uiso   1.00
O4     O     0.95070   0.69100   0.26230   0.01267  Uiso   1.00
O5     O     0.52370   0.33060   0.97730   0.01267  Uiso   1.00
O6     O     0.10420   0.29570   0.79840   0.01267  Uiso   1.00
