data_CIFDUS_clean
_audit_creation_date              2014-07-02
_audit_creation_method            'Materials Studio'
_symmetry_space_group_name_H-M    'P1'
_symmetry_Int_Tables_number       1
_symmetry_cell_setting            triclinic
loop_
_symmetry_equiv_pos_as_xyz
  x,y,z
_cell_length_a                    11.6671
_cell_length_b                    11.6671
_cell_length_c                    20.9869
_cell_angle_alpha                 95.8566
_cell_angle_beta                  95.8566
_cell_angle_gamma                 104.2760
loop_
_atom_site_label
_atom_site_type_symbol
_atom_site_fract_x
_atom_site_fract_y
_atom_site_fract_z
_atom_site_U_iso_or_equiv
_atom_site_adp_type
_atom_site_occupancy
Mn1    Mn    0.52093   0.03203   0.81289   0.01267  Uiso   1.00
Mn2    Mn    0.96797   0.47907   0.68711   0.01267  Uiso   1.00
Mn3    Mn    0.47907   0.96797   0.18711   0.01267  Uiso   1.00
Mn4    Mn    0.03203   0.52093   0.31289   0.01267  Uiso   1.00
Mn5    Mn    0.75207   0.24793   0.75000   0.01267  Uiso   1.00
Mn6    Mn    0.24793   0.75207   0.25000   0.01267  Uiso   1.00
H1     H     0.64770   0.03730   0.60830   0.01267  Uiso   1.00
H2     H     0.30360   0.03620   0.60630   0.01267  Uiso   1.00
H3     H     0.27540   0.00620   0.49600   0.01267  Uiso   1.00
H4     H     0.73670   0.50150   0.91570   0.01267  Uiso   1.00
H5     H     0.72010   0.63050   0.00200   0.01267  Uiso   1.00
H6     H     0.40300   0.30600   0.91720   0.01267  Uiso   1.00
H7     H     0.99980   0.22440   0.52850   0.01267  Uiso   1.00
H8     H     0.88860   0.98020   0.64420   0.01267  Uiso   1.00
H9     H     0.92950   0.83670   0.57500   0.01267  Uiso   1.00
H10    H     0.96270   0.35230   0.89170   0.01267  Uiso   1.00
H11    H     0.96380   0.69640   0.89370   0.01267  Uiso   1.00
H12    H     0.99380   0.72460   0.00400   0.01267  Uiso   1.00
H13    H     0.49850   0.26330   0.58430   0.01267  Uiso   1.00
H14    H     0.36950   0.27990   0.49800   0.01267  Uiso   1.00
H15    H     0.69400   0.59700   0.58280   0.01267  Uiso   1.00
H16    H     0.77560   0.00020   0.97150   0.01267  Uiso   1.00
H17    H     0.01980   0.11140   0.85580   0.01267  Uiso   1.00
H18    H     0.16330   0.07050   0.92500   0.01267  Uiso   1.00
H19    H     0.35230   0.96270   0.39170   0.01267  Uiso   1.00
H20    H     0.69640   0.96380   0.39370   0.01267  Uiso   1.00
H21    H     0.72460   0.99380   0.50400   0.01267  Uiso   1.00
H22    H     0.26330   0.49850   0.08430   0.01267  Uiso   1.00
H23    H     0.27990   0.36950   0.99800   0.01267  Uiso   1.00
H24    H     0.59700   0.69400   0.08280   0.01267  Uiso   1.00
H25    H     0.00020   0.77560   0.47150   0.01267  Uiso   1.00
H26    H     0.11140   0.01980   0.35580   0.01267  Uiso   1.00
H27    H     0.07050   0.16330   0.42500   0.01267  Uiso   1.00
H28    H     0.03730   0.64770   0.10830   0.01267  Uiso   1.00
H29    H     0.03620   0.30360   0.10630   0.01267  Uiso   1.00
H30    H     0.00620   0.27540   0.99600   0.01267  Uiso   1.00
H31    H     0.50150   0.73670   0.41570   0.01267  Uiso   1.00
H32    H     0.63050   0.72010   0.50200   0.01267  Uiso   1.00
H33    H     0.30600   0.40300   0.41720   0.01267  Uiso   1.00
H34    H     0.22440   0.99980   0.02850   0.01267  Uiso   1.00
H35    H     0.98020   0.88860   0.14420   0.01267  Uiso   1.00
H36    H     0.83670   0.92950   0.07500   0.01267  Uiso   1.00
C1     C     0.49538   0.05170   0.69048   0.01267  Uiso   1.00
C2     C     0.48072   0.03866   0.61818   0.01267  Uiso   1.00
C3     C     0.57278   0.02848   0.58549   0.01267  Uiso   1.00
C4     C     0.55719   0.00475   0.51726   0.01267  Uiso   1.00
C5     C     0.36679   0.02921   0.58386   0.01267  Uiso   1.00
C6     C     0.34980   0.00984   0.51806   0.01267  Uiso   1.00
C7     C     0.58540   0.30146   0.85438   0.01267  Uiso   1.00
C8     C     0.57048   0.38942   0.90863   0.01267  Uiso   1.00
C9     C     0.66599   0.48861   0.93399   0.01267  Uiso   1.00
C10    C     0.65582   0.56618   0.98520   0.01267  Uiso   1.00
C11    C     0.46598   0.37130   0.93438   0.01267  Uiso   1.00
C12    C     0.45179   0.45053   0.98704   0.01267  Uiso   1.00
C13    C     0.91032   0.21166   0.63845   0.01267  Uiso   1.00
C14    C     0.94063   0.11827   0.59277   0.01267  Uiso   1.00
C15    C     0.98536   0.14606   0.53741   0.01267  Uiso   1.00
C16    C     0.01050   0.05882   0.49292   0.01267  Uiso   1.00
C17    C     0.91941   0.00005   0.60645   0.01267  Uiso   1.00
C18    C     0.94353   0.91435   0.56502   0.01267  Uiso   1.00
C19    C     0.94830   0.50462   0.80952   0.01267  Uiso   1.00
C20    C     0.96134   0.51928   0.88182   0.01267  Uiso   1.00
C21    C     0.97152   0.42722   0.91451   0.01267  Uiso   1.00
C22    C     0.99525   0.44281   0.98274   0.01267  Uiso   1.00
C23    C     0.97079   0.63321   0.91614   0.01267  Uiso   1.00
C24    C     0.99016   0.65020   0.98194   0.01267  Uiso   1.00
C25    C     0.69854   0.41460   0.64562   0.01267  Uiso   1.00
C26    C     0.61058   0.42952   0.59137   0.01267  Uiso   1.00
C27    C     0.51139   0.33401   0.56601   0.01267  Uiso   1.00
C28    C     0.43382   0.34418   0.51480   0.01267  Uiso   1.00
C29    C     0.62870   0.53402   0.56562   0.01267  Uiso   1.00
C30    C     0.54947   0.54821   0.51296   0.01267  Uiso   1.00
C31    C     0.78834   0.08968   0.86155   0.01267  Uiso   1.00
C32    C     0.88173   0.05937   0.90723   0.01267  Uiso   1.00
C33    C     0.85394   0.01464   0.96259   0.01267  Uiso   1.00
C34    C     0.94118   0.98950   0.00708   0.01267  Uiso   1.00
C35    C     0.99995   0.08059   0.89355   0.01267  Uiso   1.00
C36    C     0.08565   0.05647   0.93498   0.01267  Uiso   1.00
C37    C     0.50462   0.94830   0.30952   0.01267  Uiso   1.00
C38    C     0.51928   0.96134   0.38182   0.01267  Uiso   1.00
C39    C     0.42722   0.97152   0.41451   0.01267  Uiso   1.00
C40    C     0.44281   0.99525   0.48274   0.01267  Uiso   1.00
C41    C     0.63321   0.97079   0.41614   0.01267  Uiso   1.00
C42    C     0.65020   0.99016   0.48194   0.01267  Uiso   1.00
C43    C     0.41460   0.69854   0.14562   0.01267  Uiso   1.00
C44    C     0.42952   0.61058   0.09137   0.01267  Uiso   1.00
C45    C     0.33401   0.51139   0.06601   0.01267  Uiso   1.00
C46    C     0.34418   0.43382   0.01480   0.01267  Uiso   1.00
C47    C     0.53402   0.62870   0.06562   0.01267  Uiso   1.00
C48    C     0.54821   0.54947   0.01296   0.01267  Uiso   1.00
C49    C     0.08968   0.78834   0.36155   0.01267  Uiso   1.00
C50    C     0.05937   0.88173   0.40723   0.01267  Uiso   1.00
C51    C     0.01464   0.85394   0.46259   0.01267  Uiso   1.00
C52    C     0.98950   0.94118   0.50708   0.01267  Uiso   1.00
C53    C     0.08059   0.99995   0.39355   0.01267  Uiso   1.00
C54    C     0.05647   0.08565   0.43498   0.01267  Uiso   1.00
C55    C     0.05170   0.49538   0.19048   0.01267  Uiso   1.00
C56    C     0.03866   0.48072   0.11818   0.01267  Uiso   1.00
C57    C     0.02848   0.57278   0.08549   0.01267  Uiso   1.00
C58    C     0.00475   0.55719   0.01726   0.01267  Uiso   1.00
C59    C     0.02921   0.36679   0.08386   0.01267  Uiso   1.00
C60    C     0.00984   0.34980   0.01806   0.01267  Uiso   1.00
C61    C     0.30146   0.58540   0.35438   0.01267  Uiso   1.00
C62    C     0.38942   0.57048   0.40863   0.01267  Uiso   1.00
C63    C     0.48861   0.66599   0.43399   0.01267  Uiso   1.00
C64    C     0.56618   0.65582   0.48520   0.01267  Uiso   1.00
C65    C     0.37130   0.46598   0.43438   0.01267  Uiso   1.00
C66    C     0.45053   0.45179   0.48704   0.01267  Uiso   1.00
C67    C     0.21166   0.91032   0.13845   0.01267  Uiso   1.00
C68    C     0.11827   0.94063   0.09277   0.01267  Uiso   1.00
C69    C     0.14606   0.98536   0.03741   0.01267  Uiso   1.00
C70    C     0.05882   0.01050   0.99292   0.01267  Uiso   1.00
C71    C     0.00005   0.91941   0.10645   0.01267  Uiso   1.00
C72    C     0.91435   0.94353   0.06502   0.01267  Uiso   1.00
O1     O     0.60035   0.08687   0.72176   0.01267  Uiso   1.00
O2     O     0.40607   0.02089   0.71835   0.01267  Uiso   1.00
O3     O     0.67237   0.33121   0.82439   0.01267  Uiso   1.00
O4     O     0.50760   0.20340   0.84405   0.01267  Uiso   1.00
O5     O     0.85093   0.17607   0.68158   0.01267  Uiso   1.00
O6     O     0.94784   0.31786   0.62836   0.01267  Uiso   1.00
O7     O     0.91313   0.39965   0.77824   0.01267  Uiso   1.00
O8     O     0.97911   0.59393   0.78165   0.01267  Uiso   1.00
O9     O     0.66879   0.32763   0.67561   0.01267  Uiso   1.00
O10    O     0.79660   0.49240   0.65595   0.01267  Uiso   1.00
O11    O     0.82393   0.14907   0.81842   0.01267  Uiso   1.00
O12    O     0.68214   0.05216   0.87164   0.01267  Uiso   1.00
O13    O     0.39965   0.91313   0.27824   0.01267  Uiso   1.00
O14    O     0.59393   0.97911   0.28165   0.01267  Uiso   1.00
O15    O     0.32763   0.66879   0.17561   0.01267  Uiso   1.00
O16    O     0.49240   0.79660   0.15595   0.01267  Uiso   1.00
O17    O     0.14907   0.82393   0.31842   0.01267  Uiso   1.00
O18    O     0.05216   0.68214   0.37164   0.01267  Uiso   1.00
O19    O     0.08687   0.60035   0.22176   0.01267  Uiso   1.00
O20    O     0.02089   0.40607   0.21835   0.01267  Uiso   1.00
O21    O     0.33121   0.67237   0.32439   0.01267  Uiso   1.00
O22    O     0.20340   0.50760   0.34405   0.01267  Uiso   1.00
O23    O     0.17607   0.85093   0.18158   0.01267  Uiso   1.00
O24    O     0.31786   0.94784   0.12836   0.01267  Uiso   1.00
