data_image0
_cell_length_a       17.443
_cell_length_b       25.094
_cell_length_c       21.991
_cell_angle_alpha    90
_cell_angle_beta     90
_cell_angle_gamma    90

_symmetry_space_group_name_H-M    "P 1"
_symmetry_int_tables_number       1

loop_
  _symmetry_equiv_pos_as_xyz
  'x, y, z'

loop_
  _atom_site_label
  _atom_site_occupancy
  _atom_site_fract_x
  _atom_site_fract_y
  _atom_site_fract_z
  _atom_site_thermal_displace_type
  _atom_site_B_iso_or_equiv
  _atom_site_type_symbol
  O1       1.0000 0.88110  0.67980  0.56530  Biso   1.000  O
  O2       1.0000 0.93070  0.60920  0.52900  Biso   1.000  O
  O3       1.0000 0.50140  0.36248  0.15526  Biso   1.000  O
  O4       1.0000 0.43600  0.30931  0.21956  Biso   1.000  O
  C1       1.0000 0.43450  0.38930  0.30740  Biso   1.000  C
  H1       1.0000 0.40040  0.36110  0.31220  Biso   1.000  H
  C2       1.0000 0.53010  0.43340  0.25000  Biso   1.000  C
  H2       1.0000 0.56080  0.43610  0.21550  Biso   1.000  H
  C3       1.0000 0.53590  0.47110  0.29580  Biso   1.000  C
  H3       1.0000 0.57160  0.49840  0.29170  Biso   1.000  H
  C4       1.0000 0.43960  0.42750  0.35180  Biso   1.000  C
  H4       1.0000 0.40820  0.42500  0.38590  Biso   1.000  H
  C5       1.0000 0.47130  0.35130  0.20570  Biso   1.000  C
  C6       1.0000 0.47910  0.39200  0.25550  Biso   1.000  C
  Co1      1.0000 0.99852  0.67884  0.57610  Biso   1.000  Co
  C7       1.0000 0.43100  0.53110  0.42150  Biso   1.000  C
  H5       1.0000 0.38330  0.51830  0.40950  Biso   1.000  H
  C8       1.0000 0.23200  0.63900  0.54360  Biso   1.000  C
  C9       1.0000 0.57350  0.56860  0.45820  Biso   1.000  C
  C10      1.0000 0.49580  0.51090  0.39480  Biso   1.000  C
  C11      1.0000 0.16220  0.66540  0.57130  Biso   1.000  C
  C12      1.0000 0.36410  0.59350  0.49420  Biso   1.000  C
  C13      1.0000 0.43490  0.57030  0.46580  Biso   1.000  C
  C14      1.0000 0.36390  0.61440  0.55130  Biso   1.000  C
  H6       1.0000 0.40860  0.61320  0.57440  Biso   1.000  H
  C15      1.0000 0.56700  0.53030  0.41340  Biso   1.000  C
  H7       1.0000 0.61120  0.51700  0.39520  Biso   1.000  H
  C16      1.0000 0.78340  0.56720  0.49800  Biso   1.000  C
  H8       1.0000 0.82380  0.54310  0.49650  Biso   1.000  H
  C17      1.0000 0.29970  0.63720  0.57560  Biso   1.000  C
  H9       1.0000 0.30170  0.65160  0.61450  Biso   1.000  H
  C18      1.0000 0.50770  0.58910  0.48330  Biso   1.000  C
  H10      1.0000 0.51120  0.61590  0.51240  Biso   1.000  H
  C19      1.0000 0.79620  0.61790  0.51790  Biso   1.000  C
  C20      1.0000 0.65060  0.58630  0.47910  Biso   1.000  C
  C21      1.0000 0.29620  0.59540  0.46160  Biso   1.000  C
  H11      1.0000 0.29480  0.58230  0.42200  Biso   1.000  H
  C22      1.0000 0.73580  0.65240  0.51850  Biso   1.000  C
  H12      1.0000 0.74330  0.68690  0.53270  Biso   1.000  H
  C23      1.0000 0.23040  0.61670  0.48700  Biso   1.000  C
  H13      1.0000 0.18470  0.61570  0.46530  Biso   1.000  H
  C24      1.0000 0.71190  0.55130  0.48040  Biso   1.000  C
  H14      1.0000 0.70420  0.51600  0.46890  Biso   1.000  H
  C25      1.0000 0.49060  0.46960  0.34710  Biso   1.000  C
  C26      1.0000 0.66420  0.63760  0.49870  Biso   1.000  C
  H15      1.0000 0.62460  0.66240  0.49850  Biso   1.000  H
  C27      1.0000 0.87460  0.63900  0.53880  Biso   1.000  C
  O5       1.0000 0.17060  0.69256  0.61706  Biso   1.000  O
  O6       1.0000 0.09890  0.65743  0.54320  Biso   1.000  O
  O7       1.0000 0.61890  0.32020  0.06530  Biso   1.000  O
  O8       1.0000 0.56930  0.39080  0.02900  Biso   1.000  O
  O9       1.0000 0.99860  0.63752  0.65526  Biso   1.000  O
  O10      1.0000 0.06400  0.69069  0.71956  Biso   1.000  O
  C28      1.0000 0.06550  0.61070  0.80740  Biso   1.000  C
  H16      1.0000 0.09960  0.63890  0.81220  Biso   1.000  H
  C29      1.0000 0.96990  0.56660  0.75000  Biso   1.000  C
  H17      1.0000 0.93920  0.56390  0.71550  Biso   1.000  H
  C30      1.0000 0.96410  0.52890  0.79580  Biso   1.000  C
  H18      1.0000 0.92840  0.50160  0.79170  Biso   1.000  H
  C31      1.0000 0.06040  0.57250  0.85180  Biso   1.000  C
  H19      1.0000 0.09180  0.57500  0.88590  Biso   1.000  H
  C32      1.0000 0.02870  0.64870  0.70570  Biso   1.000  C
  C33      1.0000 0.02090  0.60800  0.75550  Biso   1.000  C
  Co2      1.0000 0.50148  0.32116  0.07610  Biso   1.000  Co
  C34      1.0000 0.06900  0.46890  0.92150  Biso   1.000  C
  H20      1.0000 0.11670  0.48170  0.90950  Biso   1.000  H
  C35      1.0000 0.26800  0.36100  0.04360  Biso   1.000  C
  C36      1.0000 0.92650  0.43140  0.95820  Biso   1.000  C
  C37      1.0000 0.00420  0.48910  0.89480  Biso   1.000  C
  C38      1.0000 0.33780  0.33460  0.07130  Biso   1.000  C
  C39      1.0000 0.13590  0.40650  0.99420  Biso   1.000  C
  C40      1.0000 0.06510  0.42970  0.96580  Biso   1.000  C
  C41      1.0000 0.13610  0.38560  0.05130  Biso   1.000  C
  H21      1.0000 0.09140  0.38680  0.07440  Biso   1.000  H
  C42      1.0000 0.93300  0.46970  0.91340  Biso   1.000  C
  H22      1.0000 0.88880  0.48300  0.89520  Biso   1.000  H
  C43      1.0000 0.71660  0.43280  0.99800  Biso   1.000  C
  H23      1.0000 0.67620  0.45690  0.99650  Biso   1.000  H
  C44      1.0000 0.20030  0.36280  0.07560  Biso   1.000  C
  H24      1.0000 0.19830  0.34840  0.11450  Biso   1.000  H
  C45      1.0000 0.99230  0.41090  0.98330  Biso   1.000  C
  H25      1.0000 0.98880  0.38410  0.01240  Biso   1.000  H
  C46      1.0000 0.70380  0.38210  0.01790  Biso   1.000  C
  C47      1.0000 0.84940  0.41370  0.97910  Biso   1.000  C
  C48      1.0000 0.20380  0.40460  0.96160  Biso   1.000  C
  H26      1.0000 0.20520  0.41770  0.92200  Biso   1.000  H
  C49      1.0000 0.76420  0.34760  0.01850  Biso   1.000  C
  H27      1.0000 0.75670  0.31310  0.03270  Biso   1.000  H
  C50      1.0000 0.26960  0.38330  0.98700  Biso   1.000  C
  H28      1.0000 0.31530  0.38430  0.96530  Biso   1.000  H
  C51      1.0000 0.78810  0.44870  0.98040  Biso   1.000  C
  H29      1.0000 0.79580  0.48400  0.96890  Biso   1.000  H
  C52      1.0000 0.00940  0.53040  0.84710  Biso   1.000  C
  C53      1.0000 0.83580  0.36240  0.99870  Biso   1.000  C
  H30      1.0000 0.87540  0.33760  0.99850  Biso   1.000  H
  C54      1.0000 0.62540  0.36100  0.03880  Biso   1.000  C
  O11      1.0000 0.32940  0.30744  0.11706  Biso   1.000  O
  O12      1.0000 0.40110  0.34257  0.04320  Biso   1.000  O
  O13      1.0000 0.88110  0.82020  0.56530  Biso   1.000  O
  O14      1.0000 0.93070  0.89080  0.52900  Biso   1.000  O
  O15      1.0000 0.50140  0.13752  0.15526  Biso   1.000  O
  O16      1.0000 0.43600  0.19069  0.21956  Biso   1.000  O
  C55      1.0000 0.43450  0.11070  0.30740  Biso   1.000  C
  H31      1.0000 0.40040  0.13890  0.31220  Biso   1.000  H
  C56      1.0000 0.53010  0.06660  0.25000  Biso   1.000  C
  H32      1.0000 0.56080  0.06390  0.21550  Biso   1.000  H
  C57      1.0000 0.53590  0.02890  0.29580  Biso   1.000  C
  H33      1.0000 0.57160  0.00160  0.29170  Biso   1.000  H
  C58      1.0000 0.43960  0.07250  0.35180  Biso   1.000  C
  H34      1.0000 0.40820  0.07500  0.38590  Biso   1.000  H
  C59      1.0000 0.47130  0.14870  0.20570  Biso   1.000  C
  C60      1.0000 0.47910  0.10800  0.25550  Biso   1.000  C
  Co3      1.0000 0.99852  0.82116  0.57610  Biso   1.000  Co
  C61      1.0000 0.43100  0.96890  0.42150  Biso   1.000  C
  H35      1.0000 0.38330  0.98170  0.40950  Biso   1.000  H
  C62      1.0000 0.23200  0.86100  0.54360  Biso   1.000  C
  C63      1.0000 0.57350  0.93140  0.45820  Biso   1.000  C
  C64      1.0000 0.49580  0.98910  0.39480  Biso   1.000  C
  C65      1.0000 0.16220  0.83460  0.57130  Biso   1.000  C
  C66      1.0000 0.36410  0.90650  0.49420  Biso   1.000  C
  C67      1.0000 0.43490  0.92970  0.46580  Biso   1.000  C
  C68      1.0000 0.36390  0.88560  0.55130  Biso   1.000  C
  H36      1.0000 0.40860  0.88680  0.57440  Biso   1.000  H
  C69      1.0000 0.56700  0.96970  0.41340  Biso   1.000  C
  H37      1.0000 0.61120  0.98300  0.39520  Biso   1.000  H
  C70      1.0000 0.78340  0.93280  0.49800  Biso   1.000  C
  H38      1.0000 0.82380  0.95690  0.49650  Biso   1.000  H
  C71      1.0000 0.29970  0.86280  0.57560  Biso   1.000  C
  H39      1.0000 0.30170  0.84840  0.61450  Biso   1.000  H
  C72      1.0000 0.50770  0.91090  0.48330  Biso   1.000  C
  H40      1.0000 0.51120  0.88410  0.51240  Biso   1.000  H
  C73      1.0000 0.79620  0.88210  0.51790  Biso   1.000  C
  C74      1.0000 0.65060  0.91370  0.47910  Biso   1.000  C
  C75      1.0000 0.29620  0.90460  0.46160  Biso   1.000  C
  H41      1.0000 0.29480  0.91770  0.42200  Biso   1.000  H
  C76      1.0000 0.73580  0.84760  0.51850  Biso   1.000  C
  H42      1.0000 0.74330  0.81310  0.53270  Biso   1.000  H
  C77      1.0000 0.23040  0.88330  0.48700  Biso   1.000  C
  H43      1.0000 0.18470  0.88430  0.46530  Biso   1.000  H
  C78      1.0000 0.71190  0.94870  0.48040  Biso   1.000  C
  H44      1.0000 0.70420  0.98400  0.46890  Biso   1.000  H
  C79      1.0000 0.49060  0.03040  0.34710  Biso   1.000  C
  C80      1.0000 0.66420  0.86240  0.49870  Biso   1.000  C
  H45      1.0000 0.62460  0.83760  0.49850  Biso   1.000  H
  C81      1.0000 0.87460  0.86100  0.53880  Biso   1.000  C
  O17      1.0000 0.17060  0.80744  0.61706  Biso   1.000  O
  O18      1.0000 0.09890  0.84257  0.54320  Biso   1.000  O
  O19      1.0000 0.61890  0.17980  0.06530  Biso   1.000  O
  O20      1.0000 0.56930  0.10920  0.02900  Biso   1.000  O
  O21      1.0000 0.99860  0.86248  0.65526  Biso   1.000  O
  O22      1.0000 0.06400  0.80931  0.71956  Biso   1.000  O
  C82      1.0000 0.06550  0.88930  0.80740  Biso   1.000  C
  H46      1.0000 0.09960  0.86110  0.81220  Biso   1.000  H
  C83      1.0000 0.96990  0.93340  0.75000  Biso   1.000  C
  H47      1.0000 0.93920  0.93610  0.71550  Biso   1.000  H
  C84      1.0000 0.96410  0.97110  0.79580  Biso   1.000  C
  H48      1.0000 0.92840  0.99840  0.79170  Biso   1.000  H
  C85      1.0000 0.06040  0.92750  0.85180  Biso   1.000  C
  H49      1.0000 0.09180  0.92500  0.88590  Biso   1.000  H
  C86      1.0000 0.02870  0.85130  0.70570  Biso   1.000  C
  C87      1.0000 0.02090  0.89200  0.75550  Biso   1.000  C
  Co4      1.0000 0.50148  0.17884  0.07610  Biso   1.000  Co
  C88      1.0000 0.06900  0.03110  0.92150  Biso   1.000  C
  H50      1.0000 0.11670  0.01830  0.90950  Biso   1.000  H
  C89      1.0000 0.26800  0.13900  0.04360  Biso   1.000  C
  C90      1.0000 0.92650  0.06860  0.95820  Biso   1.000  C
  C91      1.0000 0.00420  0.01090  0.89480  Biso   1.000  C
  C92      1.0000 0.33780  0.16540  0.07130  Biso   1.000  C
  C93      1.0000 0.13590  0.09350  0.99420  Biso   1.000  C
  C94      1.0000 0.06510  0.07030  0.96580  Biso   1.000  C
  C95      1.0000 0.13610  0.11440  0.05130  Biso   1.000  C
  H51      1.0000 0.09140  0.11320  0.07440  Biso   1.000  H
  C96      1.0000 0.93300  0.03030  0.91340  Biso   1.000  C
  H52      1.0000 0.88880  0.01700  0.89520  Biso   1.000  H
  C97      1.0000 0.71660  0.06720  0.99800  Biso   1.000  C
  H53      1.0000 0.67620  0.04310  0.99650  Biso   1.000  H
  C98      1.0000 0.20030  0.13720  0.07560  Biso   1.000  C
  H54      1.0000 0.19830  0.15160  0.11450  Biso   1.000  H
  C99      1.0000 0.99230  0.08910  0.98330  Biso   1.000  C
  H55      1.0000 0.98880  0.11590  0.01240  Biso   1.000  H
  C100     1.0000 0.70380  0.11790  0.01790  Biso   1.000  C
  C101     1.0000 0.84940  0.08630  0.97910  Biso   1.000  C
  C102     1.0000 0.20380  0.09540  0.96160  Biso   1.000  C
  H56      1.0000 0.20520  0.08230  0.92200  Biso   1.000  H
  C103     1.0000 0.76420  0.15240  0.01850  Biso   1.000  C
  H57      1.0000 0.75670  0.18690  0.03270  Biso   1.000  H
  C104     1.0000 0.26960  0.11670  0.98700  Biso   1.000  C
  H58      1.0000 0.31530  0.11570  0.96530  Biso   1.000  H
  C105     1.0000 0.78810  0.05130  0.98040  Biso   1.000  C
  H59      1.0000 0.79580  0.01600  0.96890  Biso   1.000  H
  C106     1.0000 0.00940  0.96960  0.84710  Biso   1.000  C
  C107     1.0000 0.83580  0.13760  0.99870  Biso   1.000  C
  H60      1.0000 0.87540  0.16240  0.99850  Biso   1.000  H
  C108     1.0000 0.62540  0.13900  0.03880  Biso   1.000  C
  O23      1.0000 0.32940  0.19256  0.11706  Biso   1.000  O
  O24      1.0000 0.40110  0.15743  0.04320  Biso   1.000  O
  Co5      1.0000 0.11287  0.75000  0.66593  Biso   1.000  Co
  O25      1.0000 0.00960  0.75000  0.61560  Biso   1.000  O
  Co6      1.0000 0.38713  0.25000  0.16593  Biso   1.000  Co
  O26      1.0000 0.49040  0.25000  0.11560  Biso   1.000  O
  O27      1.0000 0.11890  0.17980  0.43470  Biso   1.000  O
  O28      1.0000 0.06930  0.10920  0.47100  Biso   1.000  O
  O29      1.0000 0.49860  0.86248  0.84474  Biso   1.000  O
  O30      1.0000 0.56400  0.80931  0.78044  Biso   1.000  O
  C109     1.0000 0.56550  0.88930  0.69260  Biso   1.000  C
  H61      1.0000 0.59960  0.86110  0.68780  Biso   1.000  H
  C110     1.0000 0.46990  0.93340  0.75000  Biso   1.000  C
  H62      1.0000 0.43920  0.93610  0.78450  Biso   1.000  H
  C111     1.0000 0.46410  0.97110  0.70420  Biso   1.000  C
  H63      1.0000 0.42840  0.99840  0.70830  Biso   1.000  H
  C112     1.0000 0.56040  0.92750  0.64820  Biso   1.000  C
  H64      1.0000 0.59180  0.92500  0.61410  Biso   1.000  H
  C113     1.0000 0.52870  0.85130  0.79430  Biso   1.000  C
  C114     1.0000 0.52090  0.89200  0.74450  Biso   1.000  C
  Co7      1.0000 0.00148  0.17884  0.42390  Biso   1.000  Co
  C115     1.0000 0.56900  0.03110  0.57850  Biso   1.000  C
  H65      1.0000 0.61670  0.01830  0.59050  Biso   1.000  H
  C116     1.0000 0.76800  0.13900  0.45640  Biso   1.000  C
  C117     1.0000 0.42650  0.06860  0.54180  Biso   1.000  C
  C118     1.0000 0.50420  0.01090  0.60520  Biso   1.000  C
  C119     1.0000 0.83780  0.16540  0.42870  Biso   1.000  C
  C120     1.0000 0.63590  0.09350  0.50580  Biso   1.000  C
  C121     1.0000 0.56510  0.07030  0.53420  Biso   1.000  C
  C122     1.0000 0.63610  0.11440  0.44870  Biso   1.000  C
  H66      1.0000 0.59140  0.11320  0.42560  Biso   1.000  H
  C123     1.0000 0.43300  0.03030  0.58660  Biso   1.000  C
  H67      1.0000 0.38880  0.01700  0.60480  Biso   1.000  H
  C124     1.0000 0.21660  0.06720  0.50200  Biso   1.000  C
  H68      1.0000 0.17620  0.04310  0.50350  Biso   1.000  H
  C125     1.0000 0.70030  0.13720  0.42440  Biso   1.000  C
  H69      1.0000 0.69830  0.15160  0.38550  Biso   1.000  H
  C126     1.0000 0.49230  0.08910  0.51670  Biso   1.000  C
  H70      1.0000 0.48880  0.11590  0.48760  Biso   1.000  H
  C127     1.0000 0.20380  0.11790  0.48210  Biso   1.000  C
  C128     1.0000 0.34940  0.08630  0.52090  Biso   1.000  C
  C129     1.0000 0.70380  0.09540  0.53840  Biso   1.000  C
  H71      1.0000 0.70520  0.08230  0.57800  Biso   1.000  H
  C130     1.0000 0.26420  0.15240  0.48150  Biso   1.000  C
  H72      1.0000 0.25670  0.18690  0.46730  Biso   1.000  H
  C131     1.0000 0.76960  0.11670  0.51300  Biso   1.000  C
  H73      1.0000 0.81530  0.11570  0.53470  Biso   1.000  H
  C132     1.0000 0.28810  0.05130  0.51960  Biso   1.000  C
  H74      1.0000 0.29580  0.01600  0.53110  Biso   1.000  H
  C133     1.0000 0.50940  0.96960  0.65290  Biso   1.000  C
  C134     1.0000 0.33580  0.13760  0.50130  Biso   1.000  C
  H75      1.0000 0.37540  0.16240  0.50150  Biso   1.000  H
  C135     1.0000 0.12540  0.13900  0.46120  Biso   1.000  C
  O31      1.0000 0.82940  0.19256  0.38294  Biso   1.000  O
  O32      1.0000 0.90110  0.15743  0.45680  Biso   1.000  O
  O33      1.0000 0.38110  0.82020  0.93470  Biso   1.000  O
  O34      1.0000 0.43070  0.89080  0.97100  Biso   1.000  O
  O35      1.0000 0.00140  0.13752  0.34474  Biso   1.000  O
  O36      1.0000 0.93600  0.19069  0.28044  Biso   1.000  O
  C136     1.0000 0.93450  0.11070  0.19260  Biso   1.000  C
  H76      1.0000 0.90040  0.13890  0.18780  Biso   1.000  H
  C137     1.0000 0.03010  0.06660  0.25000  Biso   1.000  C
  H77      1.0000 0.06080  0.06390  0.28450  Biso   1.000  H
  C138     1.0000 0.03590  0.02890  0.20420  Biso   1.000  C
  H78      1.0000 0.07160  0.00160  0.20830  Biso   1.000  H
  C139     1.0000 0.93960  0.07250  0.14820  Biso   1.000  C
  H79      1.0000 0.90820  0.07500  0.11410  Biso   1.000  H
  C140     1.0000 0.97130  0.14870  0.29430  Biso   1.000  C
  C141     1.0000 0.97910  0.10800  0.24450  Biso   1.000  C
  Co8      1.0000 0.49852  0.82116  0.92390  Biso   1.000  Co
  C142     1.0000 0.93100  0.96890  0.07850  Biso   1.000  C
  H80      1.0000 0.88330  0.98170  0.09050  Biso   1.000  H
  C143     1.0000 0.73200  0.86100  0.95640  Biso   1.000  C
  C144     1.0000 0.07350  0.93140  0.04180  Biso   1.000  C
  C145     1.0000 0.99580  0.98910  0.10520  Biso   1.000  C
  C146     1.0000 0.66220  0.83460  0.92870  Biso   1.000  C
  C147     1.0000 0.86410  0.90650  0.00580  Biso   1.000  C
  C148     1.0000 0.93490  0.92970  0.03420  Biso   1.000  C
  C149     1.0000 0.86390  0.88560  0.94870  Biso   1.000  C
  H81      1.0000 0.90860  0.88680  0.92560  Biso   1.000  H
  C150     1.0000 0.06700  0.96970  0.08660  Biso   1.000  C
  H82      1.0000 0.11120  0.98300  0.10480  Biso   1.000  H
  C151     1.0000 0.28340  0.93280  0.00200  Biso   1.000  C
  H83      1.0000 0.32380  0.95690  0.00350  Biso   1.000  H
  C152     1.0000 0.79970  0.86280  0.92440  Biso   1.000  C
  H84      1.0000 0.80170  0.84840  0.88550  Biso   1.000  H
  C153     1.0000 0.00770  0.91090  0.01670  Biso   1.000  C
  H85      1.0000 0.01120  0.88410  0.98760  Biso   1.000  H
  C154     1.0000 0.29620  0.88210  0.98210  Biso   1.000  C
  C155     1.0000 0.15060  0.91370  0.02090  Biso   1.000  C
  C156     1.0000 0.79620  0.90460  0.03840  Biso   1.000  C
  H86      1.0000 0.79480  0.91770  0.07800  Biso   1.000  H
  C157     1.0000 0.23580  0.84760  0.98150  Biso   1.000  C
  H87      1.0000 0.24330  0.81310  0.96730  Biso   1.000  H
  C158     1.0000 0.73040  0.88330  0.01300  Biso   1.000  C
  H88      1.0000 0.68470  0.88430  0.03470  Biso   1.000  H
  C159     1.0000 0.21190  0.94870  0.01960  Biso   1.000  C
  H89      1.0000 0.20420  0.98400  0.03110  Biso   1.000  H
  C160     1.0000 0.99060  0.03040  0.15290  Biso   1.000  C
  C161     1.0000 0.16420  0.86240  0.00130  Biso   1.000  C
  H90      1.0000 0.12460  0.83760  0.00150  Biso   1.000  H
  C162     1.0000 0.37460  0.86100  0.96120  Biso   1.000  C
  O37      1.0000 0.67060  0.80744  0.88294  Biso   1.000  O
  O38      1.0000 0.59890  0.84257  0.95680  Biso   1.000  O
  O39      1.0000 0.11890  0.32020  0.43470  Biso   1.000  O
  O40      1.0000 0.06930  0.39080  0.47100  Biso   1.000  O
  O41      1.0000 0.49860  0.63752  0.84474  Biso   1.000  O
  O42      1.0000 0.56400  0.69069  0.78044  Biso   1.000  O
  C163     1.0000 0.56550  0.61070  0.69260  Biso   1.000  C
  H91      1.0000 0.59960  0.63890  0.68780  Biso   1.000  H
  C164     1.0000 0.46990  0.56660  0.75000  Biso   1.000  C
  H92      1.0000 0.43920  0.56390  0.78450  Biso   1.000  H
  C165     1.0000 0.46410  0.52890  0.70420  Biso   1.000  C
  H93      1.0000 0.42840  0.50160  0.70830  Biso   1.000  H
  C166     1.0000 0.56040  0.57250  0.64820  Biso   1.000  C
  H94      1.0000 0.59180  0.57500  0.61410  Biso   1.000  H
  C167     1.0000 0.52870  0.64870  0.79430  Biso   1.000  C
  C168     1.0000 0.52090  0.60800  0.74450  Biso   1.000  C
  Co9      1.0000 0.00148  0.32116  0.42390  Biso   1.000  Co
  C169     1.0000 0.56900  0.46890  0.57850  Biso   1.000  C
  H95      1.0000 0.61670  0.48170  0.59050  Biso   1.000  H
  C170     1.0000 0.76800  0.36100  0.45640  Biso   1.000  C
  C171     1.0000 0.42650  0.43140  0.54180  Biso   1.000  C
  C172     1.0000 0.50420  0.48910  0.60520  Biso   1.000  C
  C173     1.0000 0.83780  0.33460  0.42870  Biso   1.000  C
  C174     1.0000 0.63590  0.40650  0.50580  Biso   1.000  C
  C175     1.0000 0.56510  0.42970  0.53420  Biso   1.000  C
  C176     1.0000 0.63610  0.38560  0.44870  Biso   1.000  C
  H96      1.0000 0.59140  0.38680  0.42560  Biso   1.000  H
  C177     1.0000 0.43300  0.46970  0.58660  Biso   1.000  C
  H97      1.0000 0.38880  0.48300  0.60480  Biso   1.000  H
  C178     1.0000 0.21660  0.43280  0.50200  Biso   1.000  C
  H98      1.0000 0.17620  0.45690  0.50350  Biso   1.000  H
  C179     1.0000 0.70030  0.36280  0.42440  Biso   1.000  C
  H99      1.0000 0.69830  0.34840  0.38550  Biso   1.000  H
  C180     1.0000 0.49230  0.41090  0.51670  Biso   1.000  C
  H100     1.0000 0.48880  0.38410  0.48760  Biso   1.000  H
  C181     1.0000 0.20380  0.38210  0.48210  Biso   1.000  C
  C182     1.0000 0.34940  0.41370  0.52090  Biso   1.000  C
  C183     1.0000 0.70380  0.40460  0.53840  Biso   1.000  C
  H101     1.0000 0.70520  0.41770  0.57800  Biso   1.000  H
  C184     1.0000 0.26420  0.34760  0.48150  Biso   1.000  C
  H102     1.0000 0.25670  0.31310  0.46730  Biso   1.000  H
  C185     1.0000 0.76960  0.38330  0.51300  Biso   1.000  C
  H103     1.0000 0.81530  0.38430  0.53470  Biso   1.000  H
  C186     1.0000 0.28810  0.44870  0.51960  Biso   1.000  C
  H104     1.0000 0.29580  0.48400  0.53110  Biso   1.000  H
  C187     1.0000 0.50940  0.53040  0.65290  Biso   1.000  C
  C188     1.0000 0.33580  0.36240  0.50130  Biso   1.000  C
  H105     1.0000 0.37540  0.33760  0.50150  Biso   1.000  H
  C189     1.0000 0.12540  0.36100  0.46120  Biso   1.000  C
  O43      1.0000 0.82940  0.30744  0.38294  Biso   1.000  O
  O44      1.0000 0.90110  0.34257  0.45680  Biso   1.000  O
  O45      1.0000 0.38110  0.67980  0.93470  Biso   1.000  O
  O46      1.0000 0.43070  0.60920  0.97100  Biso   1.000  O
  O47      1.0000 0.00140  0.36248  0.34474  Biso   1.000  O
  O48      1.0000 0.93600  0.30931  0.28044  Biso   1.000  O
  C190     1.0000 0.93450  0.38930  0.19260  Biso   1.000  C
  H106     1.0000 0.90040  0.36110  0.18780  Biso   1.000  H
  C191     1.0000 0.03010  0.43340  0.25000  Biso   1.000  C
  H107     1.0000 0.06080  0.43610  0.28450  Biso   1.000  H
  C192     1.0000 0.03590  0.47110  0.20420  Biso   1.000  C
  H108     1.0000 0.07160  0.49840  0.20830  Biso   1.000  H
  C193     1.0000 0.93960  0.42750  0.14820  Biso   1.000  C
  H109     1.0000 0.90820  0.42500  0.11410  Biso   1.000  H
  C194     1.0000 0.97130  0.35130  0.29430  Biso   1.000  C
  C195     1.0000 0.97910  0.39200  0.24450  Biso   1.000  C
  Co10     1.0000 0.49852  0.67884  0.92390  Biso   1.000  Co
  C196     1.0000 0.93100  0.53110  0.07850  Biso   1.000  C
  H110     1.0000 0.88330  0.51830  0.09050  Biso   1.000  H
  C197     1.0000 0.73200  0.63900  0.95640  Biso   1.000  C
  C198     1.0000 0.07350  0.56860  0.04180  Biso   1.000  C
  C199     1.0000 0.99580  0.51090  0.10520  Biso   1.000  C
  C200     1.0000 0.66220  0.66540  0.92870  Biso   1.000  C
  C201     1.0000 0.86410  0.59350  0.00580  Biso   1.000  C
  C202     1.0000 0.93490  0.57030  0.03420  Biso   1.000  C
  C203     1.0000 0.86390  0.61440  0.94870  Biso   1.000  C
  H111     1.0000 0.90860  0.61320  0.92560  Biso   1.000  H
  C204     1.0000 0.06700  0.53030  0.08660  Biso   1.000  C
  H112     1.0000 0.11120  0.51700  0.10480  Biso   1.000  H
  C205     1.0000 0.28340  0.56720  0.00200  Biso   1.000  C
  H113     1.0000 0.32380  0.54310  0.00350  Biso   1.000  H
  C206     1.0000 0.79970  0.63720  0.92440  Biso   1.000  C
  H114     1.0000 0.80170  0.65160  0.88550  Biso   1.000  H
  C207     1.0000 0.00770  0.58910  0.01670  Biso   1.000  C
  H115     1.0000 0.01120  0.61590  0.98760  Biso   1.000  H
  C208     1.0000 0.29620  0.61790  0.98210  Biso   1.000  C
  C209     1.0000 0.15060  0.58630  0.02090  Biso   1.000  C
  C210     1.0000 0.79620  0.59540  0.03840  Biso   1.000  C
  H116     1.0000 0.79480  0.58230  0.07800  Biso   1.000  H
  C211     1.0000 0.23580  0.65240  0.98150  Biso   1.000  C
  H117     1.0000 0.24330  0.68690  0.96730  Biso   1.000  H
  C212     1.0000 0.73040  0.61670  0.01300  Biso   1.000  C
  H118     1.0000 0.68470  0.61570  0.03470  Biso   1.000  H
  C213     1.0000 0.21190  0.55130  0.01960  Biso   1.000  C
  H119     1.0000 0.20420  0.51600  0.03110  Biso   1.000  H
  C214     1.0000 0.99060  0.46960  0.15290  Biso   1.000  C
  C215     1.0000 0.16420  0.63760  0.00130  Biso   1.000  C
  H120     1.0000 0.12460  0.66240  0.00150  Biso   1.000  H
  C216     1.0000 0.37460  0.63900  0.96120  Biso   1.000  C
  O49      1.0000 0.67060  0.69256  0.88294  Biso   1.000  O
  O50      1.0000 0.59890  0.65743  0.95680  Biso   1.000  O
  Co11     1.0000 0.88713  0.25000  0.33407  Biso   1.000  Co
  O51      1.0000 0.99040  0.25000  0.38440  Biso   1.000  O
  Co12     1.0000 0.61287  0.75000  0.83407  Biso   1.000  Co
  O52      1.0000 0.50960  0.75000  0.88440  Biso   1.000  O
