data_CIGFAB_clean
_audit_creation_date              2014-07-02
_audit_creation_method            'Materials Studio'
_symmetry_space_group_name_H-M    'P1'
_symmetry_Int_Tables_number       1
_symmetry_cell_setting            triclinic
loop_
_symmetry_equiv_pos_as_xyz
  x,y,z
_cell_length_a                    12.8068
_cell_length_b                    14.5574
_cell_length_c                    19.1276
_cell_angle_alpha                 106.6600
_cell_angle_beta                  105.6210
_cell_angle_gamma                 93.6910
loop_
_atom_site_label
_atom_site_type_symbol
_atom_site_fract_x
_atom_site_fract_y
_atom_site_fract_z
_atom_site_U_iso_or_equiv
_atom_site_adp_type
_atom_site_occupancy
Tb1    Tb    0.66053   0.38318   0.28063   0.01267  Uiso   1.00
Tb2    Tb    0.90424   0.11818   0.78064   0.01267  Uiso   1.00
Tb3    Tb    0.39070   0.11350   0.26324   0.01267  Uiso   1.00
Tb4    Tb    0.15429   0.37477   0.76213   0.01267  Uiso   1.00
Tb5    Tb    0.33947   0.61682   0.71937   0.01267  Uiso   1.00
Tb6    Tb    0.09576   0.88182   0.21936   0.01267  Uiso   1.00
Tb7    Tb    0.60930   0.88650   0.73676   0.01267  Uiso   1.00
Tb8    Tb    0.84571   0.62523   0.23787   0.01267  Uiso   1.00
H1     H     0.35780   0.35490   0.94290   0.01267  Uiso   1.00
H2     H     0.47970   0.36140   0.06870   0.01267  Uiso   1.00
H3     H     0.64720   0.96910   0.94590   0.01267  Uiso   1.00
H4     H     0.61820   0.04140   0.07160   0.01267  Uiso   1.00
H5     H     0.12760   0.96550   0.42590   0.01267  Uiso   1.00
H6     H     0.10040   0.03790   0.55170   0.01267  Uiso   1.00
H7     H     0.69650   0.14470   0.60160   0.01267  Uiso   1.00
H8     H     0.56930   0.14370   0.47970   0.01267  Uiso   1.00
H9     H     0.77160   0.46410   0.81450   0.01267  Uiso   1.00
H10    H     0.59960   0.53540   0.80310   0.01267  Uiso   1.00
H11    H     0.72680   0.53660   0.67650   0.01267  Uiso   1.00
H12    H     0.89320   0.45900   0.67530   0.01267  Uiso   1.00
H13    H     0.56240   0.10670   0.19520   0.01267  Uiso   1.00
H14    H     0.96460   0.38220   0.80960   0.01267  Uiso   1.00
H15    H     0.64220   0.64510   0.05710   0.01267  Uiso   1.00
H16    H     0.52030   0.63860   0.93130   0.01267  Uiso   1.00
H17    H     0.35280   0.03090   0.05410   0.01267  Uiso   1.00
H18    H     0.38180   0.95860   0.92840   0.01267  Uiso   1.00
H19    H     0.87240   0.03450   0.57410   0.01267  Uiso   1.00
H20    H     0.89960   0.96210   0.44830   0.01267  Uiso   1.00
H21    H     0.30350   0.85530   0.39840   0.01267  Uiso   1.00
H22    H     0.43070   0.85630   0.52030   0.01267  Uiso   1.00
H23    H     0.22840   0.53590   0.18550   0.01267  Uiso   1.00
H24    H     0.40040   0.46460   0.19690   0.01267  Uiso   1.00
H25    H     0.27320   0.46340   0.32350   0.01267  Uiso   1.00
H26    H     0.10680   0.54100   0.32470   0.01267  Uiso   1.00
H27    H     0.43760   0.89330   0.80480   0.01267  Uiso   1.00
H28    H     0.03540   0.61780   0.19040   0.01267  Uiso   1.00
C1     C     0.76350   0.26200   0.79360   0.01267  Uiso   1.00
C2     C     0.14670   0.24170   0.88600   0.01267  Uiso   1.00
C3     C     0.24210   0.26100   0.95450   0.01267  Uiso   1.00
C4     C     0.33930   0.31990   0.97390   0.01267  Uiso   1.00
C5     C     0.40920   0.32280   0.04550   0.01267  Uiso   1.00
C6     C     0.36560   0.26510   0.07780   0.01267  Uiso   1.00
C7     C     0.77410   0.08270   0.89070   0.01267  Uiso   1.00
C8     C     0.73390   0.10030   0.95790   0.01267  Uiso   1.00
C9     C     0.67350   0.03460   0.97700   0.01267  Uiso   1.00
C10    C     0.65560   0.07650   0.04840   0.01267  Uiso   1.00
C11    C     0.69740   0.17190   0.08000   0.01267  Uiso   1.00
C12    C     0.68890   0.24090   0.15040   0.01267  Uiso   1.00
C13    C     0.26480   0.07370   0.37420   0.01267  Uiso   1.00
C14    C     0.22440   0.09200   0.44120   0.01267  Uiso   1.00
C15    C     0.15850   0.02970   0.45830   0.01267  Uiso   1.00
C16    C     0.14180   0.07160   0.52970   0.01267  Uiso   1.00
C17    C     0.19090   0.16530   0.56390   0.01267  Uiso   1.00
C18    C     0.74370   0.74100   0.71390   0.01267  Uiso   1.00
C19    C     0.91170   0.24850   0.65360   0.01267  Uiso   1.00
C20    C     0.81330   0.23310   0.58640   0.01267  Uiso   1.00
C21    C     0.71440   0.17870   0.56980   0.01267  Uiso   1.00
C22    C     0.64190   0.17840   0.50040   0.01267  Uiso   1.00
C23    C     0.68640   0.23320   0.46600   0.01267  Uiso   1.00
C24    C     0.68520   0.33100   0.79700   0.01267  Uiso   1.00
C25    C     0.70200   0.42840   0.80570   0.01267  Uiso   1.00
C26    C     0.60390   0.46950   0.80000   0.01267  Uiso   1.00
C27    C     0.51620   0.40320   0.78970   0.01267  Uiso   1.00
C28    C     0.40120   0.41740   0.78370   0.01267  Uiso   1.00
C29    C     0.18570   0.23330   0.63510   0.01267  Uiso   1.00
C30    C     0.63780   0.24680   0.39140   0.01267  Uiso   1.00
C31    C     0.41370   0.25090   0.15240   0.01267  Uiso   1.00
C32    C     0.81840   0.67000   0.70290   0.01267  Uiso   1.00
C33    C     0.98260   0.59380   0.70020   0.01267  Uiso   1.00
C34    C     0.09610   0.57780   0.70350   0.01267  Uiso   1.00
C35    C     0.79730   0.57130   0.68620   0.01267  Uiso   1.00
C36    C     0.89210   0.52670   0.68510   0.01267  Uiso   1.00
C37    C     0.23650   0.73800   0.20640   0.01267  Uiso   1.00
C38    C     0.85330   0.75830   0.11400   0.01267  Uiso   1.00
C39    C     0.75790   0.73900   0.04550   0.01267  Uiso   1.00
C40    C     0.66070   0.68010   0.02610   0.01267  Uiso   1.00
C41    C     0.59080   0.67720   0.95450   0.01267  Uiso   1.00
C42    C     0.63440   0.73490   0.92220   0.01267  Uiso   1.00
C43    C     0.22590   0.91730   0.10930   0.01267  Uiso   1.00
C44    C     0.26610   0.89970   0.04210   0.01267  Uiso   1.00
C45    C     0.32650   0.96540   0.02300   0.01267  Uiso   1.00
C46    C     0.34440   0.92350   0.95160   0.01267  Uiso   1.00
C47    C     0.30260   0.82810   0.92000   0.01267  Uiso   1.00
C48    C     0.31110   0.75910   0.84960   0.01267  Uiso   1.00
C49    C     0.73520   0.92630   0.62580   0.01267  Uiso   1.00
C50    C     0.77560   0.90800   0.55880   0.01267  Uiso   1.00
C51    C     0.84150   0.97030   0.54170   0.01267  Uiso   1.00
C52    C     0.85820   0.92840   0.47030   0.01267  Uiso   1.00
C53    C     0.80910   0.83470   0.43610   0.01267  Uiso   1.00
C54    C     0.25630   0.25900   0.28610   0.01267  Uiso   1.00
C55    C     0.08830   0.75150   0.34640   0.01267  Uiso   1.00
C56    C     0.18670   0.76690   0.41360   0.01267  Uiso   1.00
C57    C     0.28560   0.82130   0.43020   0.01267  Uiso   1.00
C58    C     0.35810   0.82160   0.49960   0.01267  Uiso   1.00
C59    C     0.31360   0.76680   0.53400   0.01267  Uiso   1.00
C60    C     0.31480   0.66900   0.20300   0.01267  Uiso   1.00
C61    C     0.29800   0.57160   0.19430   0.01267  Uiso   1.00
C62    C     0.39610   0.53050   0.20000   0.01267  Uiso   1.00
C63    C     0.48380   0.59680   0.21030   0.01267  Uiso   1.00
C64    C     0.59880   0.58260   0.21630   0.01267  Uiso   1.00
C65    C     0.81430   0.76670   0.36490   0.01267  Uiso   1.00
C66    C     0.36220   0.75320   0.60860   0.01267  Uiso   1.00
C67    C     0.58630   0.74910   0.84760   0.01267  Uiso   1.00
C68    C     0.18160   0.33000   0.29710   0.01267  Uiso   1.00
C69    C     0.01740   0.40620   0.29980   0.01267  Uiso   1.00
C70    C     0.90390   0.42220   0.29650   0.01267  Uiso   1.00
C71    C     0.20270   0.42870   0.31380   0.01267  Uiso   1.00
C72    C     0.10790   0.47330   0.31490   0.01267  Uiso   1.00
S1     S     0.55117   0.29084   0.78409   0.01267  Uiso   1.00
S2     S     0.23747   0.20633   0.02154   0.01267  Uiso   1.00
S3     S     0.81781   0.28609   0.51840   0.01267  Uiso   1.00
S4     S     0.76468   0.21211   0.02578   0.01267  Uiso   1.00
S5     S     0.26247   0.20272   0.51062   0.01267  Uiso   1.00
S6     S     0.95241   0.70862   0.71462   0.01267  Uiso   1.00
S7     S     0.44883   0.70916   0.21591   0.01267  Uiso   1.00
S8     S     0.76253   0.79367   0.97846   0.01267  Uiso   1.00
S9     S     0.18219   0.71391   0.48160   0.01267  Uiso   1.00
S10    S     0.23532   0.78789   0.97422   0.01267  Uiso   1.00
S11    S     0.73753   0.79728   0.48938   0.01267  Uiso   1.00
S12    S     0.04759   0.29138   0.28538   0.01267  Uiso   1.00
O1     O     0.06480   0.18480   0.87960   0.01267  Uiso   1.00
O2     O     0.15170   0.28610   0.83970   0.01267  Uiso   1.00
O3     O     0.98610   0.31540   0.66630   0.01267  Uiso   1.00
O4     O     0.91280   0.19240   0.69250   0.01267  Uiso   1.00
O5     O     0.34790   0.12850   0.37880   0.01267  Uiso   1.00
O6     O     0.72700   0.17300   0.75960   0.01267  Uiso   1.00
O7     O     0.86470   0.29040   0.82460   0.01267  Uiso   1.00
O8     O     0.85320   0.13990   0.89450   0.01267  Uiso   1.00
O9     O     0.72530   0.01140   0.83300   0.01267  Uiso   1.00
O10    O     0.66780   0.21000   0.20150   0.01267  Uiso   1.00
O11    O     0.70060   0.33010   0.15920   0.01267  Uiso   1.00
O12    O     0.21390   0.00410   0.31540   0.01267  Uiso   1.00
O13    O     0.78460   0.82970   0.74710   0.01267  Uiso   1.00
O14    O     0.64220   0.71440   0.69030   0.01267  Uiso   1.00
O15    O     0.52720   0.05870   0.19920   0.01267  Uiso   1.00
O16    O     0.37090   0.17800   0.16280   0.01267  Uiso   1.00
O17    O     0.49140   0.31200   0.19900   0.01267  Uiso   1.00
O18    O     0.36850   0.48900   0.76590   0.01267  Uiso   1.00
O19    O     0.34250   0.35590   0.79550   0.01267  Uiso   1.00
O20    O     0.15760   0.20300   0.68370   0.01267  Uiso   1.00
O21    O     0.20690   0.32350   0.64620   0.01267  Uiso   1.00
O22    O     0.01410   0.42920   0.82030   0.01267  Uiso   1.00
O23    O     0.12910   0.50470   0.71910   0.01267  Uiso   1.00
O24    O     0.15440   0.63890   0.69110   0.01267  Uiso   1.00
O25    O     0.55010   0.19240   0.34930   0.01267  Uiso   1.00
O26    O     0.68620   0.31100   0.37460   0.01267  Uiso   1.00
O27    O     0.93520   0.81520   0.12040   0.01267  Uiso   1.00
O28    O     0.84830   0.71390   0.16030   0.01267  Uiso   1.00
O29    O     0.01390   0.68460   0.33370   0.01267  Uiso   1.00
O30    O     0.08720   0.80760   0.30750   0.01267  Uiso   1.00
O31    O     0.65210   0.87150   0.62120   0.01267  Uiso   1.00
O32    O     0.27300   0.82700   0.24040   0.01267  Uiso   1.00
O33    O     0.13530   0.70960   0.17540   0.01267  Uiso   1.00
O34    O     0.14680   0.86010   0.10550   0.01267  Uiso   1.00
O35    O     0.27470   0.98860   0.16700   0.01267  Uiso   1.00
O36    O     0.33220   0.79000   0.79850   0.01267  Uiso   1.00
O37    O     0.29940   0.66990   0.84080   0.01267  Uiso   1.00
O38    O     0.78610   0.99590   0.68460   0.01267  Uiso   1.00
O39    O     0.21540   0.17030   0.25290   0.01267  Uiso   1.00
O40    O     0.35780   0.28560   0.30970   0.01267  Uiso   1.00
O41    O     0.47280   0.94130   0.80080   0.01267  Uiso   1.00
O42    O     0.62910   0.82200   0.83720   0.01267  Uiso   1.00
O43    O     0.50860   0.68800   0.80100   0.01267  Uiso   1.00
O44    O     0.63150   0.51100   0.23410   0.01267  Uiso   1.00
O45    O     0.65750   0.64410   0.20450   0.01267  Uiso   1.00
O46    O     0.84240   0.79700   0.31630   0.01267  Uiso   1.00
O47    O     0.79310   0.67650   0.35380   0.01267  Uiso   1.00
O48    O     0.98590   0.57080   0.17970   0.01267  Uiso   1.00
O49    O     0.87090   0.49530   0.28090   0.01267  Uiso   1.00
O50    O     0.84560   0.36110   0.30890   0.01267  Uiso   1.00
O51    O     0.44990   0.80760   0.65070   0.01267  Uiso   1.00
O52    O     0.31380   0.68900   0.62540   0.01267  Uiso   1.00
