data_CILDAD_clean
_audit_creation_date              2014-07-02
_audit_creation_method            'Materials Studio'
_symmetry_space_group_name_H-M    'P1'
_symmetry_Int_Tables_number       1
_symmetry_cell_setting            triclinic
loop_
_symmetry_equiv_pos_as_xyz
  x,y,z
_cell_length_a                    9.2761
_cell_length_b                    11.5506
_cell_length_c                    17.2671
_cell_angle_alpha                 104.8270
_cell_angle_beta                  90.0000
_cell_angle_gamma                 113.6750
loop_
_atom_site_label
_atom_site_type_symbol
_atom_site_fract_x
_atom_site_fract_y
_atom_site_fract_z
_atom_site_U_iso_or_equiv
_atom_site_adp_type
_atom_site_occupancy
Nd1    Nd    0.67054   0.97294   0.92694   0.01267  Uiso   1.00
Nd2    Nd    0.69760   0.02706   0.57306   0.01267  Uiso   1.00
Nd3    Nd    0.32946   0.02706   0.07306   0.01267  Uiso   1.00
Nd4    Nd    0.30240   0.97294   0.42694   0.01267  Uiso   1.00
Cu1    Cu    0.09411   0.32844   0.13452   0.01267  Uiso   1.00
Cu2    Cu    0.76567   0.67156   0.36548   0.01267  Uiso   1.00
Cu3    Cu    0.90589   0.67156   0.86548   0.01267  Uiso   1.00
Cu4    Cu    0.23433   0.32844   0.63452   0.01267  Uiso   1.00
H1     H     0.56210   0.19680   0.77930   0.01267  Uiso   1.00
H2     H     0.50320   0.29740   0.69260   0.01267  Uiso   1.00
H3     H     0.08890   0.22720   0.76560   0.01267  Uiso   1.00
H4     H     0.13910   0.13160   0.85740   0.01267  Uiso   1.00
H5     H     0.18250   0.71860   0.05460   0.01267  Uiso   1.00
H6     H     0.08140   0.56300   0.12310   0.01267  Uiso   1.00
H7     H     0.27950   0.35220   0.99630   0.01267  Uiso   1.00
H8     H     0.38990   0.50460   0.92560   0.01267  Uiso   1.00
H9     H     0.36530   0.80320   0.72070   0.01267  Uiso   1.00
H10    H     0.20580   0.70260   0.80740   0.01267  Uiso   1.00
H11    H     0.86170   0.77280   0.73440   0.01267  Uiso   1.00
H12    H     0.00750   0.86840   0.64260   0.01267  Uiso   1.00
H13    H     0.46390   0.28140   0.44540   0.01267  Uiso   1.00
H14    H     0.51840   0.43700   0.37690   0.01267  Uiso   1.00
H15    H     0.92730   0.64780   0.50370   0.01267  Uiso   1.00
H16    H     0.88530   0.49540   0.57440   0.01267  Uiso   1.00
H17    H     0.43790   0.80320   0.22070   0.01267  Uiso   1.00
H18    H     0.49680   0.70260   0.30740   0.01267  Uiso   1.00
H19    H     0.91110   0.77280   0.23440   0.01267  Uiso   1.00
H20    H     0.86090   0.86840   0.14260   0.01267  Uiso   1.00
H21    H     0.81750   0.28140   0.94540   0.01267  Uiso   1.00
H22    H     0.91860   0.43700   0.87690   0.01267  Uiso   1.00
H23    H     0.72050   0.64780   0.00370   0.01267  Uiso   1.00
H24    H     0.61010   0.49540   0.07440   0.01267  Uiso   1.00
H25    H     0.63470   0.19680   0.27930   0.01267  Uiso   1.00
H26    H     0.79420   0.29740   0.19260   0.01267  Uiso   1.00
H27    H     0.13830   0.22720   0.26560   0.01267  Uiso   1.00
H28    H     0.99250   0.13160   0.35740   0.01267  Uiso   1.00
H29    H     0.53610   0.71860   0.55460   0.01267  Uiso   1.00
H30    H     0.48160   0.56300   0.62310   0.01267  Uiso   1.00
H31    H     0.07270   0.35220   0.49630   0.01267  Uiso   1.00
H32    H     0.11470   0.50460   0.42560   0.01267  Uiso   1.00
C1     C     0.38944   0.08068   0.88290   0.01267  Uiso   1.00
C2     C     0.35464   0.14988   0.82688   0.01267  Uiso   1.00
C3     C     0.46450   0.20160   0.77740   0.01267  Uiso   1.00
C4     C     0.42760   0.26080   0.72500   0.01267  Uiso   1.00
C5     C     0.18530   0.22060   0.76820   0.01267  Uiso   1.00
C6     C     0.21400   0.16220   0.82320   0.01267  Uiso   1.00
C7     C     0.39389   0.74438   0.94961   0.01267  Uiso   1.00
C8     C     0.30578   0.63336   0.98580   0.01267  Uiso   1.00
C9     C     0.20780   0.64620   0.04300   0.01267  Uiso   1.00
C10    C     0.14660   0.55180   0.08360   0.01267  Uiso   1.00
C11    C     0.26280   0.42880   0.00970   0.01267  Uiso   1.00
C12    C     0.32960   0.52000   0.96680   0.01267  Uiso   1.00
C13    C     0.98031   0.92802   0.97648   0.01267  Uiso   1.00
C14    C     0.70660   0.92520   0.73212   0.01267  Uiso   1.00
C15    C     0.30876   0.91932   0.61710   0.01267  Uiso   1.00
C16    C     0.20476   0.85012   0.67312   0.01267  Uiso   1.00
C17    C     0.26290   0.79840   0.72260   0.01267  Uiso   1.00
C18    C     0.16680   0.73920   0.77500   0.01267  Uiso   1.00
C19    C     0.96470   0.77940   0.73180   0.01267  Uiso   1.00
C20    C     0.05180   0.83780   0.67680   0.01267  Uiso   1.00
C21    C     0.64951   0.25562   0.55039   0.01267  Uiso   1.00
C22    C     0.67242   0.36664   0.51420   0.01267  Uiso   1.00
C23    C     0.56160   0.35380   0.45700   0.01267  Uiso   1.00
C24    C     0.59480   0.44820   0.41640   0.01267  Uiso   1.00
C25    C     0.83400   0.57120   0.49030   0.01267  Uiso   1.00
C26    C     0.80960   0.48000   0.53320   0.01267  Uiso   1.00
C27    C     0.05229   0.07198   0.52352   0.01267  Uiso   1.00
C28    C     0.78140   0.07480   0.76788   0.01267  Uiso   1.00
C29    C     0.61056   0.91932   0.11710   0.01267  Uiso   1.00
C30    C     0.64536   0.85012   0.17312   0.01267  Uiso   1.00
C31    C     0.53550   0.79840   0.22260   0.01267  Uiso   1.00
C32    C     0.57240   0.73920   0.27500   0.01267  Uiso   1.00
C33    C     0.81470   0.77940   0.23180   0.01267  Uiso   1.00
C34    C     0.78600   0.83780   0.17680   0.01267  Uiso   1.00
C35    C     0.60611   0.25562   0.05039   0.01267  Uiso   1.00
C36    C     0.69422   0.36664   0.01420   0.01267  Uiso   1.00
C37    C     0.79220   0.35380   0.95700   0.01267  Uiso   1.00
C38    C     0.85340   0.44820   0.91640   0.01267  Uiso   1.00
C39    C     0.73720   0.57120   0.99030   0.01267  Uiso   1.00
C40    C     0.67040   0.48000   0.03320   0.01267  Uiso   1.00
C41    C     0.01969   0.07198   0.02352   0.01267  Uiso   1.00
C42    C     0.29340   0.07480   0.26788   0.01267  Uiso   1.00
C43    C     0.69124   0.08068   0.38290   0.01267  Uiso   1.00
C44    C     0.79524   0.14988   0.32688   0.01267  Uiso   1.00
C45    C     0.73710   0.20160   0.27740   0.01267  Uiso   1.00
C46    C     0.83320   0.26080   0.22500   0.01267  Uiso   1.00
C47    C     0.03530   0.22060   0.26820   0.01267  Uiso   1.00
C48    C     0.94820   0.16220   0.32320   0.01267  Uiso   1.00
C49    C     0.35049   0.74438   0.44961   0.01267  Uiso   1.00
C50    C     0.32758   0.63336   0.48580   0.01267  Uiso   1.00
C51    C     0.43840   0.64620   0.54300   0.01267  Uiso   1.00
C52    C     0.40520   0.55180   0.58360   0.01267  Uiso   1.00
C53    C     0.16600   0.42880   0.50970   0.01267  Uiso   1.00
C54    C     0.19040   0.52000   0.46680   0.01267  Uiso   1.00
C55    C     0.94771   0.92802   0.47648   0.01267  Uiso   1.00
C56    C     0.21860   0.92520   0.23212   0.01267  Uiso   1.00
N1     N     0.28848   0.26776   0.71880   0.01267  Uiso   1.00
N2     N     0.17650   0.44520   0.06880   0.01267  Uiso   1.00
N3     N     0.02072   0.73224   0.78120   0.01267  Uiso   1.00
N4     N     0.73130   0.55480   0.43120   0.01267  Uiso   1.00
N5     N     0.71152   0.73224   0.28120   0.01267  Uiso   1.00
N6     N     0.82350   0.55480   0.93120   0.01267  Uiso   1.00
N7     N     0.97928   0.26776   0.21880   0.01267  Uiso   1.00
N8     N     0.26870   0.44520   0.56880   0.01267  Uiso   1.00
O1     O     0.49051   0.03542   0.86444   0.01267  Uiso   1.00
O2     O     0.31593   0.07726   0.94360   0.01267  Uiso   1.00
O3     O     0.48982   0.73204   0.90114   0.01267  Uiso   1.00
O4     O     0.37545   0.85010   0.97312   0.01267  Uiso   1.00
O5     O     0.86335   0.87090   0.92316   0.01267  Uiso   1.00
O6     O     0.06628   0.87736   0.99582   0.01267  Uiso   1.00
O7     O     0.65502   0.85744   0.78060   0.01267  Uiso   1.00
O8     O     0.70662   0.88324   0.65770   0.01267  Uiso   1.00
O9     O     0.45509   0.96458   0.63556   0.01267  Uiso   1.00
O10    O     0.23867   0.92274   0.55640   0.01267  Uiso   1.00
O11    O     0.75778   0.26796   0.59886   0.01267  Uiso   1.00
O12    O     0.52535   0.14990   0.52688   0.01267  Uiso   1.00
O13    O     0.99245   0.12910   0.57684   0.01267  Uiso   1.00
O14    O     0.18892   0.12264   0.50418   0.01267  Uiso   1.00
O15    O     0.79758   0.14256   0.71940   0.01267  Uiso   1.00
O16    O     0.82338   0.11676   0.84230   0.01267  Uiso   1.00
O17    O     0.50949   0.96458   0.13556   0.01267  Uiso   1.00
O18    O     0.68407   0.92274   0.05640   0.01267  Uiso   1.00
O19    O     0.51018   0.26796   0.09886   0.01267  Uiso   1.00
O20    O     0.62455   0.14990   0.02688   0.01267  Uiso   1.00
O21    O     0.13665   0.12910   0.07684   0.01267  Uiso   1.00
O22    O     0.93372   0.12264   0.00418   0.01267  Uiso   1.00
O23    O     0.34498   0.14256   0.21940   0.01267  Uiso   1.00
O24    O     0.29338   0.11676   0.34230   0.01267  Uiso   1.00
O25    O     0.54491   0.03542   0.36444   0.01267  Uiso   1.00
O26    O     0.76133   0.07726   0.44360   0.01267  Uiso   1.00
O27    O     0.24222   0.73204   0.40114   0.01267  Uiso   1.00
O28    O     0.47465   0.85010   0.47312   0.01267  Uiso   1.00
O29    O     0.00755   0.87090   0.42316   0.01267  Uiso   1.00
O30    O     0.81108   0.87736   0.49582   0.01267  Uiso   1.00
O31    O     0.20242   0.85744   0.28060   0.01267  Uiso   1.00
O32    O     0.17662   0.88324   0.15770   0.01267  Uiso   1.00
