data_image0
_cell_length_a       12.9517
_cell_length_b       14.733
_cell_length_c       20.052
_cell_angle_alpha    90
_cell_angle_beta     129.256
_cell_angle_gamma    90

_symmetry_space_group_name_H-M    "P 1"
_symmetry_int_tables_number       1

loop_
  _symmetry_equiv_pos_as_xyz
  'x, y, z'

loop_
  _atom_site_label
  _atom_site_occupancy
  _atom_site_fract_x
  _atom_site_fract_y
  _atom_site_fract_z
  _atom_site_thermal_displace_type
  _atom_site_B_iso_or_equiv
  _atom_site_type_symbol
  Cu1      1.0000 0.61344  0.20816  0.59763  Biso   1.000  Cu
  N1       1.0000 0.55410  0.09580  0.45610  Biso   1.000  N
  N2       1.0000 0.60470  0.17510  0.49600  Biso   1.000  N
  N3       1.0000 0.62840  0.22650  0.45380  Biso   1.000  N
  N4       1.0000 0.54440  0.09270  0.38640  Biso   1.000  N
  N5       1.0000 0.60960  0.25520  0.19280  Biso   1.000  N
  N6       1.0000 0.75050  0.06750  0.66860  Biso   1.000  N
  N7       1.0000 0.68610  0.99780  0.61370  Biso   1.000  N
  N8       1.0000 0.76660  0.92670  0.63970  Biso   1.000  N
  N9       1.0000 0.87400  0.04120  0.73250  Biso   1.000  N
  N10      1.0000 0.46130  0.12640  0.55030  Biso   1.000  N
  N11      1.0000 0.37090  0.14330  0.54820  Biso   1.000  N
  N12      1.0000 0.22550  0.78760  0.84960  Biso   1.000  N
  N13      1.0000 0.28180  0.15790  0.54540  Biso   1.000  N
  C1       1.0000 0.59010  0.17400  0.38710  Biso   1.000  C
  C2       1.0000 0.59690  0.20120  0.31900  Biso   1.000  C
  C3       1.0000 0.63810  0.28940  0.31860  Biso   1.000  C
  H1       1.0000 0.66280  0.33080  0.36150  Biso   1.000  H
  C4       1.0000 0.56660  0.17130  0.19080  Biso   1.000  C
  H2       1.0000 0.54070  0.13190  0.14630  Biso   1.000  H
  C5       1.0000 0.88260  0.95620  0.71280  Biso   1.000  C
  C6       1.0000 0.00180  0.89920  0.76160  Biso   1.000  C
  C7       1.0000 0.11280  0.91820  0.84520  Biso   1.000  C
  H3       1.0000 0.11390  0.96890  0.87330  Biso   1.000  H
  C8       1.0000 0.64100  0.31320  0.25370  Biso   1.000  C
  H4       1.0000 0.66570  0.37200  0.25230  Biso   1.000  H
  C9       1.0000 0.56040  0.14260  0.25420  Biso   1.000  C
  H5       1.0000 0.53180  0.08410  0.25270  Biso   1.000  H
  C10      1.0000 0.00410  0.82160  0.72250  Biso   1.000  C
  H6       1.0000 0.93100  0.80690  0.66620  Biso   1.000  H
  C11      1.0000 0.11580  0.76710  0.76820  Biso   1.000  C
  H7       1.0000 0.11600  0.71470  0.74240  Biso   1.000  H
  C12      1.0000 0.22180  0.86160  0.88680  Biso   1.000  C
  H8       1.0000 0.29610  0.87540  0.94300  Biso   1.000  H
  Cu2      1.0000 0.38656  0.70816  0.90237  Biso   1.000  Cu
  N14      1.0000 0.44590  0.59580  0.04390  Biso   1.000  N
  N15      1.0000 0.39530  0.67510  0.00400  Biso   1.000  N
  N16      1.0000 0.37160  0.72650  0.04620  Biso   1.000  N
  N17      1.0000 0.45560  0.59270  0.11360  Biso   1.000  N
  N18      1.0000 0.39040  0.75520  0.30720  Biso   1.000  N
  N19      1.0000 0.24950  0.56750  0.83140  Biso   1.000  N
  N20      1.0000 0.31390  0.49780  0.88630  Biso   1.000  N
  N21      1.0000 0.23340  0.42670  0.86030  Biso   1.000  N
  N22      1.0000 0.12600  0.54120  0.76750  Biso   1.000  N
  N23      1.0000 0.53870  0.62640  0.94970  Biso   1.000  N
  N24      1.0000 0.62910  0.64330  0.95180  Biso   1.000  N
  N25      1.0000 0.77450  0.28760  0.65040  Biso   1.000  N
  N26      1.0000 0.71820  0.65790  0.95460  Biso   1.000  N
  C13      1.0000 0.40990  0.67400  0.11290  Biso   1.000  C
  C14      1.0000 0.40310  0.70120  0.18100  Biso   1.000  C
  C15      1.0000 0.36190  0.78940  0.18140  Biso   1.000  C
  H9       1.0000 0.33720  0.83080  0.13850  Biso   1.000  H
  C16      1.0000 0.43340  0.67130  0.30920  Biso   1.000  C
  H10      1.0000 0.45930  0.63190  0.35370  Biso   1.000  H
  C17      1.0000 0.11740  0.45620  0.78720  Biso   1.000  C
  C18      1.0000 0.99820  0.39920  0.73840  Biso   1.000  C
  C19      1.0000 0.88720  0.41820  0.65480  Biso   1.000  C
  H11      1.0000 0.88610  0.46890  0.62670  Biso   1.000  H
  C20      1.0000 0.35900  0.81320  0.24630  Biso   1.000  C
  H12      1.0000 0.33430  0.87200  0.24770  Biso   1.000  H
  C21      1.0000 0.43960  0.64260  0.24580  Biso   1.000  C
  H13      1.0000 0.46820  0.58410  0.24730  Biso   1.000  H
  C22      1.0000 0.99590  0.32160  0.77750  Biso   1.000  C
  H14      1.0000 0.06900  0.30690  0.83380  Biso   1.000  H
  C23      1.0000 0.88420  0.26710  0.73180  Biso   1.000  C
  H15      1.0000 0.88400  0.21470  0.75760  Biso   1.000  H
  C24      1.0000 0.77820  0.36160  0.61320  Biso   1.000  C
  H16      1.0000 0.70390  0.37540  0.55700  Biso   1.000  H
  Cu3      1.0000 0.38656  0.79184  0.40237  Biso   1.000  Cu
  N27      1.0000 0.44590  0.90420  0.54390  Biso   1.000  N
  N28      1.0000 0.39530  0.82490  0.50400  Biso   1.000  N
  N29      1.0000 0.37160  0.77350  0.54620  Biso   1.000  N
  N30      1.0000 0.45560  0.90730  0.61360  Biso   1.000  N
  N31      1.0000 0.39040  0.74480  0.80720  Biso   1.000  N
  N32      1.0000 0.24950  0.93250  0.33140  Biso   1.000  N
  N33      1.0000 0.31390  0.00220  0.38630  Biso   1.000  N
  N34      1.0000 0.23340  0.07330  0.36030  Biso   1.000  N
  N35      1.0000 0.12600  0.95880  0.26750  Biso   1.000  N
  N36      1.0000 0.53870  0.87360  0.44970  Biso   1.000  N
  N37      1.0000 0.62910  0.85670  0.45180  Biso   1.000  N
  N38      1.0000 0.77450  0.21240  0.15040  Biso   1.000  N
  N39      1.0000 0.71820  0.84210  0.45460  Biso   1.000  N
  C25      1.0000 0.40990  0.82600  0.61290  Biso   1.000  C
  C26      1.0000 0.40310  0.79880  0.68100  Biso   1.000  C
  C27      1.0000 0.36190  0.71060  0.68140  Biso   1.000  C
  H17      1.0000 0.33720  0.66920  0.63850  Biso   1.000  H
  C28      1.0000 0.43340  0.82870  0.80920  Biso   1.000  C
  H18      1.0000 0.45930  0.86810  0.85370  Biso   1.000  H
  C29      1.0000 0.11740  0.04380  0.28720  Biso   1.000  C
  C30      1.0000 0.99820  0.10080  0.23840  Biso   1.000  C
  C31      1.0000 0.88720  0.08180  0.15480  Biso   1.000  C
  H19      1.0000 0.88610  0.03110  0.12670  Biso   1.000  H
  C32      1.0000 0.35900  0.68680  0.74630  Biso   1.000  C
  H20      1.0000 0.33430  0.62800  0.74770  Biso   1.000  H
  C33      1.0000 0.43960  0.85740  0.74580  Biso   1.000  C
  H21      1.0000 0.46820  0.91590  0.74730  Biso   1.000  H
  C34      1.0000 0.99590  0.17840  0.27750  Biso   1.000  C
  H22      1.0000 0.06900  0.19310  0.33380  Biso   1.000  H
  C35      1.0000 0.88420  0.23290  0.23180  Biso   1.000  C
  H23      1.0000 0.88400  0.28530  0.25760  Biso   1.000  H
  C36      1.0000 0.77820  0.13840  0.11320  Biso   1.000  C
  H24      1.0000 0.70390  0.12460  0.05700  Biso   1.000  H
  Cu4      1.0000 0.61344  0.29184  0.09763  Biso   1.000  Cu
  N40      1.0000 0.55410  0.40420  0.95610  Biso   1.000  N
  N41      1.0000 0.60470  0.32490  0.99600  Biso   1.000  N
  N42      1.0000 0.62840  0.27350  0.95380  Biso   1.000  N
  N43      1.0000 0.54440  0.40730  0.88640  Biso   1.000  N
  N44      1.0000 0.60960  0.24480  0.69280  Biso   1.000  N
  N45      1.0000 0.75050  0.43250  0.16860  Biso   1.000  N
  N46      1.0000 0.68610  0.50220  0.11370  Biso   1.000  N
  N47      1.0000 0.76660  0.57330  0.13970  Biso   1.000  N
  N48      1.0000 0.87400  0.45880  0.23250  Biso   1.000  N
  N49      1.0000 0.46130  0.37360  0.05030  Biso   1.000  N
  N50      1.0000 0.37090  0.35670  0.04820  Biso   1.000  N
  N51      1.0000 0.22550  0.71240  0.34960  Biso   1.000  N
  N52      1.0000 0.28180  0.34210  0.04540  Biso   1.000  N
  C37      1.0000 0.59010  0.32600  0.88710  Biso   1.000  C
  C38      1.0000 0.59690  0.29880  0.81900  Biso   1.000  C
  C39      1.0000 0.63810  0.21060  0.81860  Biso   1.000  C
  H25      1.0000 0.66280  0.16920  0.86150  Biso   1.000  H
  C40      1.0000 0.56660  0.32870  0.69080  Biso   1.000  C
  H26      1.0000 0.54070  0.36810  0.64630  Biso   1.000  H
  C41      1.0000 0.88260  0.54380  0.21280  Biso   1.000  C
  C42      1.0000 0.00180  0.60080  0.26160  Biso   1.000  C
  C43      1.0000 0.11280  0.58180  0.34520  Biso   1.000  C
  H27      1.0000 0.11390  0.53110  0.37330  Biso   1.000  H
  C44      1.0000 0.64100  0.18680  0.75370  Biso   1.000  C
  H28      1.0000 0.66570  0.12800  0.75230  Biso   1.000  H
  C45      1.0000 0.56040  0.35740  0.75420  Biso   1.000  C
  H29      1.0000 0.53180  0.41590  0.75270  Biso   1.000  H
  C46      1.0000 0.00410  0.67840  0.22250  Biso   1.000  C
  H30      1.0000 0.93100  0.69310  0.16620  Biso   1.000  H
  C47      1.0000 0.11580  0.73290  0.26820  Biso   1.000  C
  H31      1.0000 0.11600  0.78530  0.24240  Biso   1.000  H
  C48      1.0000 0.22180  0.63840  0.38680  Biso   1.000  C
  H32      1.0000 0.29610  0.62460  0.44300  Biso   1.000  H
  Cu5      1.0000 0.50000  0.00000  0.50000  Biso   1.000  Cu
  Cu6      1.0000 0.50000  0.50000  0.00000  Biso   1.000  Cu
