data_image0
_cell_length_a       9.153
_cell_length_b       9.4866
_cell_length_c       11.1531
_cell_angle_alpha    90.929
_cell_angle_beta     99.746
_cell_angle_gamma    105.174

_symmetry_space_group_name_H-M    "P 1"
_symmetry_int_tables_number       1

loop_
  _symmetry_equiv_pos_as_xyz
  'x, y, z'

loop_
  _atom_site_label
  _atom_site_occupancy
  _atom_site_fract_x
  _atom_site_fract_y
  _atom_site_fract_z
  _atom_site_thermal_displace_type
  _atom_site_B_iso_or_equiv
  _atom_site_type_symbol
  Cd1      1.0000 0.33839  0.13384  0.46713  Biso   1.000  Cd
  Cd2      1.0000 0.49582  0.47679  0.64997  Biso   1.000  Cd
  C1       1.0000 0.57550  0.76450  0.80330  Biso   1.000  C
  C2       1.0000 0.63400  0.86250  0.91800  Biso   1.000  C
  C3       1.0000 0.64810  0.80380  0.03130  Biso   1.000  C
  H1       1.0000 0.62550  0.70280  0.03630  Biso   1.000  H
  C4       1.0000 0.69570  0.89490  0.13720  Biso   1.000  C
  C5       1.0000 0.70110  0.82950  0.25950  Biso   1.000  C
  C6       1.0000 0.66820  0.01410  0.91070  Biso   1.000  C
  H2       1.0000 0.65830  0.05430  0.83520  Biso   1.000  H
  C7       1.0000 0.73010  0.04630  0.13010  Biso   1.000  C
  H3       1.0000 0.76140  0.10790  0.20070  Biso   1.000  H
  C8       1.0000 0.71700  0.10380  0.01650  Biso   1.000  C
  C9       1.0000 0.85520  0.35260  0.07950  Biso   1.000  C
  C10      1.0000 0.99180  0.32520  0.13020  Biso   1.000  C
  H4       1.0000 0.00900  0.23460  0.11570  Biso   1.000  H
  C11      1.0000 0.10430  0.43490  0.20350  Biso   1.000  C
  H5       1.0000 0.19670  0.41670  0.23870  Biso   1.000  H
  C12      1.0000 0.08070  0.57110  0.22480  Biso   1.000  C
  C13      1.0000 0.94300  0.59640  0.17080  Biso   1.000  C
  H6       1.0000 0.92630  0.68780  0.18290  Biso   1.000  H
  C14      1.0000 0.82930  0.48690  0.09870  Biso   1.000  C
  H7       1.0000 0.73650  0.50430  0.06360  Biso   1.000  H
  C15      1.0000 0.19800  0.68740  0.30330  Biso   1.000  C
  H8       1.0000 0.28100  0.38300  0.46700  Biso   1.000  H
  N1       1.0000 0.34260  0.68420  0.34746  Biso   1.000  N
  N2       1.0000 0.40710  0.81150  0.41474  Biso   1.000  N
  N3       1.0000 0.30560  0.88660  0.41030  Biso   1.000  N
  N4       1.0000 0.17160  0.81160  0.34070  Biso   1.000  N
  O1       1.0000 0.53850  0.82070  0.70492  Biso   1.000  O
  O2       1.0000 0.56170  0.62949  0.81386  Biso   1.000  O
  O3       1.0000 0.65880  0.69300  0.25850  Biso   1.000  O
  O4       1.0000 0.74800  0.91610  0.35397  Biso   1.000  O
  O5       1.0000 0.73930  0.25259  0.00175  Biso   1.000  O
  O6       1.0000 0.36010  0.37373  0.46863  Biso   1.000  O
  Cd3      1.0000 0.66161  0.86616  0.53287  Biso   1.000  Cd
  Cd4      1.0000 0.50418  0.52321  0.35003  Biso   1.000  Cd
  C16      1.0000 0.42450  0.23550  0.19670  Biso   1.000  C
  C17      1.0000 0.36600  0.13750  0.08200  Biso   1.000  C
  C18      1.0000 0.35190  0.19620  0.96870  Biso   1.000  C
  H9       1.0000 0.37450  0.29720  0.96370  Biso   1.000  H
  C19      1.0000 0.30430  0.10510  0.86280  Biso   1.000  C
  C20      1.0000 0.29890  0.17050  0.74050  Biso   1.000  C
  C21      1.0000 0.33180  0.98590  0.08930  Biso   1.000  C
  H10      1.0000 0.34170  0.94570  0.16480  Biso   1.000  H
  C22      1.0000 0.26990  0.95370  0.86990  Biso   1.000  C
  H11      1.0000 0.23860  0.89210  0.79930  Biso   1.000  H
  C23      1.0000 0.28300  0.89620  0.98350  Biso   1.000  C
  C24      1.0000 0.14480  0.64740  0.92050  Biso   1.000  C
  C25      1.0000 0.00820  0.67480  0.86980  Biso   1.000  C
  H12      1.0000 0.99100  0.76540  0.88430  Biso   1.000  H
  C26      1.0000 0.89570  0.56510  0.79650  Biso   1.000  C
  H13      1.0000 0.80330  0.58330  0.76130  Biso   1.000  H
  C27      1.0000 0.91930  0.42890  0.77520  Biso   1.000  C
  C28      1.0000 0.05700  0.40360  0.82920  Biso   1.000  C
  H14      1.0000 0.07370  0.31220  0.81710  Biso   1.000  H
  C29      1.0000 0.17070  0.51310  0.90130  Biso   1.000  C
  H15      1.0000 0.26350  0.49570  0.93640  Biso   1.000  H
  C30      1.0000 0.80200  0.31260  0.69670  Biso   1.000  C
  H16      1.0000 0.71900  0.61700  0.53300  Biso   1.000  H
  N5       1.0000 0.65740  0.31580  0.65254  Biso   1.000  N
  N6       1.0000 0.59290  0.18850  0.58526  Biso   1.000  N
  N7       1.0000 0.69440  0.11340  0.58970  Biso   1.000  N
  N8       1.0000 0.82840  0.18840  0.65930  Biso   1.000  N
  O7       1.0000 0.46150  0.17930  0.29508  Biso   1.000  O
  O8       1.0000 0.43830  0.37051  0.18614  Biso   1.000  O
  O9       1.0000 0.34120  0.30700  0.74150  Biso   1.000  O
  O10      1.0000 0.25200  0.08390  0.64603  Biso   1.000  O
  O11      1.0000 0.26070  0.74741  0.99825  Biso   1.000  O
  O12      1.0000 0.63990  0.62627  0.53137  Biso   1.000  O
