data_image0
_cell_length_a       9.117
_cell_length_b       9.452
_cell_length_c       10.914
_cell_angle_alpha    97.53
_cell_angle_beta     92.11
_cell_angle_gamma    103.25

_symmetry_space_group_name_H-M    "P 1"
_symmetry_int_tables_number       1

loop_
  _symmetry_equiv_pos_as_xyz
  'x, y, z'

loop_
  _atom_site_label
  _atom_site_occupancy
  _atom_site_fract_x
  _atom_site_fract_y
  _atom_site_fract_z
  _atom_site_thermal_displace_type
  _atom_site_B_iso_or_equiv
  _atom_site_type_symbol
  C1       1.0000 0.69060  0.31610  0.23220  Biso   1.000  C
  C2       1.0000 0.61780  0.31170  0.35580  Biso   1.000  C
  C3       1.0000 0.45800  0.26740  0.35540  Biso   1.000  C
  H1       1.0000 0.39850  0.23350  0.28180  Biso   1.000  H
  C4       1.0000 0.39320  0.27650  0.46920  Biso   1.000  C
  C5       1.0000 0.47980  0.32680  0.58090  Biso   1.000  C
  H2       1.0000 0.43320  0.33340  0.65520  Biso   1.000  H
  C6       1.0000 0.63820  0.36760  0.58050  Biso   1.000  C
  C7       1.0000 0.70760  0.36270  0.46820  Biso   1.000  C
  H3       1.0000 0.81210  0.39270  0.46760  Biso   1.000  H
  C8       1.0000 0.73050  0.42340  0.70310  Biso   1.000  C
  C9       1.0000 0.13970  0.12930  0.40470  Biso   1.000  C
  C10      1.0000 0.17840  0.99920  0.35780  Biso   1.000  C
  H4       1.0000 0.27570  0.98790  0.37370  Biso   1.000  H
  C11      1.0000 0.07240  0.88750  0.28790  Biso   1.000  C
  H5       1.0000 0.09940  0.80120  0.25710  Biso   1.000  H
  C12      1.0000 0.92510  0.90080  0.26230  Biso   1.000  C
  C13      1.0000 0.88640  0.03040  0.31260  Biso   1.000  C
  H6       1.0000 0.78840  0.04080  0.29840  Biso   1.000  H
  C14      1.0000 0.99370  0.14510  0.38430  Biso   1.000  C
  H7       1.0000 0.96700  0.23060  0.41770  Biso   1.000  H
  C15      1.0000 0.81060  0.78190  0.18430  Biso   1.000  C
  Co1      1.0000 0.64360  0.36245  0.96621  Biso   1.000  Co
  Co2      1.0000 0.97779  0.49263  0.14119  Biso   1.000  Co
  N1       1.0000 0.67500  0.80230  0.14720  Biso   1.000  N
  N2       1.0000 0.60120  0.67260  0.07770  Biso   1.000  N
  N3       1.0000 0.68800  0.57910  0.07300  Biso   1.000  N
  N4       1.0000 0.82230  0.64350  0.14040  Biso   1.000  N
  O1       1.0000 0.87550  0.38070  0.97150  Biso   1.000  O
  O2       1.0000 0.83400  0.36520  0.24080  Biso   1.000  O
  O3       1.0000 0.60790  0.27490  0.13200  Biso   1.000  O
  O4       1.0000 0.87270  0.43580  0.70340  Biso   1.000  O
  O5       1.0000 0.66220  0.45980  0.79880  Biso   1.000  O
  O6       1.0000 0.23630  0.24880  0.47870  Biso   1.000  O
  C16      1.0000 0.30940  0.68390  0.76780  Biso   1.000  C
  C17      1.0000 0.38220  0.68830  0.64420  Biso   1.000  C
  C18      1.0000 0.54200  0.73260  0.64460  Biso   1.000  C
  H8       1.0000 0.60150  0.76650  0.71820  Biso   1.000  H
  C19      1.0000 0.60680  0.72350  0.53080  Biso   1.000  C
  C20      1.0000 0.52020  0.67320  0.41910  Biso   1.000  C
  H9       1.0000 0.56680  0.66660  0.34480  Biso   1.000  H
  C21      1.0000 0.36180  0.63240  0.41950  Biso   1.000  C
  C22      1.0000 0.29240  0.63730  0.53180  Biso   1.000  C
  H10      1.0000 0.18790  0.60730  0.53240  Biso   1.000  H
  C23      1.0000 0.26950  0.57660  0.29690  Biso   1.000  C
  C24      1.0000 0.86030  0.87070  0.59530  Biso   1.000  C
  C25      1.0000 0.82160  0.00080  0.64220  Biso   1.000  C
  H11      1.0000 0.72430  0.01210  0.62630  Biso   1.000  H
  C26      1.0000 0.92760  0.11250  0.71210  Biso   1.000  C
  H12      1.0000 0.90060  0.19880  0.74290  Biso   1.000  H
  C27      1.0000 0.07490  0.09920  0.73770  Biso   1.000  C
  C28      1.0000 0.11360  0.96960  0.68740  Biso   1.000  C
  H13      1.0000 0.21160  0.95920  0.70160  Biso   1.000  H
  C29      1.0000 0.00630  0.85490  0.61570  Biso   1.000  C
  H14      1.0000 0.03300  0.76940  0.58230  Biso   1.000  H
  C30      1.0000 0.18940  0.21810  0.81570  Biso   1.000  C
  Co3      1.0000 0.35640  0.63755  0.03379  Biso   1.000  Co
  Co4      1.0000 0.02221  0.50737  0.85881  Biso   1.000  Co
  N5       1.0000 0.32500  0.19770  0.85280  Biso   1.000  N
  N6       1.0000 0.39880  0.32740  0.92230  Biso   1.000  N
  N7       1.0000 0.31200  0.42090  0.92700  Biso   1.000  N
  N8       1.0000 0.17770  0.35650  0.85960  Biso   1.000  N
  O7       1.0000 0.12450  0.61930  0.02850  Biso   1.000  O
  O8       1.0000 0.16600  0.63480  0.75920  Biso   1.000  O
  O9       1.0000 0.39210  0.72510  0.86800  Biso   1.000  O
  O10      1.0000 0.12730  0.56420  0.29660  Biso   1.000  O
  O11      1.0000 0.33780  0.54020  0.20120  Biso   1.000  O
  O12      1.0000 0.76370  0.75120  0.52130  Biso   1.000  O
