data_image0
_cell_length_a       9.1794
_cell_length_b       9.46
_cell_length_c       11.1538
_cell_angle_alpha    90.726
_cell_angle_beta     100.252
_cell_angle_gamma    105.265

_symmetry_space_group_name_H-M    "P 1"
_symmetry_int_tables_number       1

loop_
  _symmetry_equiv_pos_as_xyz
  'x, y, z'

loop_
  _atom_site_label
  _atom_site_occupancy
  _atom_site_fract_x
  _atom_site_fract_y
  _atom_site_fract_z
  _atom_site_thermal_displace_type
  _atom_site_B_iso_or_equiv
  _atom_site_type_symbol
  C1       1.0000 0.07610  0.76430  0.30340  Biso   1.000  C
  C2       1.0000 0.13380  0.86250  0.41760  Biso   1.000  C
  C3       1.0000 0.14790  0.80480  0.53010  Biso   1.000  C
  H1       1.0000 0.12600  0.70360  0.53520  Biso   1.000  H
  C4       1.0000 0.19450  0.89610  0.63680  Biso   1.000  C
  C5       1.0000 0.22860  0.04710  0.62880  Biso   1.000  C
  H2       1.0000 0.25940  0.10920  0.69920  Biso   1.000  H
  C6       1.0000 0.21630  0.10460  0.51530  Biso   1.000  C
  C7       1.0000 0.16750  0.01430  0.40990  Biso   1.000  C
  H3       1.0000 0.15720  0.05430  0.33410  Biso   1.000  H
  C8       1.0000 0.19930  0.83090  0.75940  Biso   1.000  C
  C9       1.0000 0.35370  0.35360  0.57910  Biso   1.000  C
  C10      1.0000 0.32600  0.48550  0.60330  Biso   1.000  C
  H4       1.0000 0.23140  0.50170  0.57140  Biso   1.000  H
  C11      1.0000 0.44000  0.59440  0.67550  Biso   1.000  C
  H5       1.0000 0.42200  0.68460  0.69050  Biso   1.000  H
  C12      1.0000 0.57940  0.57130  0.72530  Biso   1.000  C
  C13      1.0000 0.60410  0.43720  0.69900  Biso   1.000  C
  H6       1.0000 0.69790  0.41980  0.73150  Biso   1.000  H
  C14      1.0000 0.49190  0.32810  0.62520  Biso   1.000  C
  H7       1.0000 0.51050  0.23880  0.60730  Biso   1.000  H
  C15      1.0000 0.69780  0.68690  0.80400  Biso   1.000  C
  Cd1      1.0000 0.16276  0.86615  0.03213  Biso   1.000  Cd
  Cd2      1.0000 0.99696  0.47709  0.15004  Biso   1.000  Cd
  N1       1.0000 0.67240  0.81150  0.84240  Biso   1.000  N
  N2       1.0000 0.80670  0.88720  0.91120  Biso   1.000  N
  N3       1.0000 0.90770  0.81170  0.91520  Biso   1.000  N
  N4       1.0000 0.84240  0.68440  0.84730  Biso   1.000  N
  O1       1.0000 0.04060  0.82050  0.20390  Biso   1.000  O
  O2       1.0000 0.06260  0.62910  0.31400  Biso   1.000  O
  O3       1.0000 0.15560  0.69390  0.75800  Biso   1.000  O
  O4       1.0000 0.24640  0.91770  0.85350  Biso   1.000  O
  O5       1.0000 0.23740  0.25360  0.50000  Biso   1.000  O
  O6       1.0000 0.14160  0.62510  0.03130  Biso   1.000  O
  C16      1.0000 0.92390  0.23570  0.69660  Biso   1.000  C
  C17      1.0000 0.86620  0.13750  0.58240  Biso   1.000  C
  C18      1.0000 0.85210  0.19520  0.46990  Biso   1.000  C
  H8       1.0000 0.87400  0.29640  0.46480  Biso   1.000  H
  C19      1.0000 0.80550  0.10390  0.36320  Biso   1.000  C
  C20      1.0000 0.77140  0.95290  0.37120  Biso   1.000  C
  H9       1.0000 0.74060  0.89080  0.30080  Biso   1.000  H
  C21      1.0000 0.78370  0.89540  0.48470  Biso   1.000  C
  C22      1.0000 0.83250  0.98570  0.59010  Biso   1.000  C
  H10      1.0000 0.84280  0.94570  0.66590  Biso   1.000  H
  C23      1.0000 0.80070  0.16910  0.24060  Biso   1.000  C
  C24      1.0000 0.64630  0.64640  0.42090  Biso   1.000  C
  C25      1.0000 0.67400  0.51450  0.39670  Biso   1.000  C
  H11      1.0000 0.76860  0.49830  0.42860  Biso   1.000  H
  C26      1.0000 0.56000  0.40560  0.32450  Biso   1.000  C
  H12      1.0000 0.57800  0.31540  0.30950  Biso   1.000  H
  C27      1.0000 0.42060  0.42870  0.27470  Biso   1.000  C
  C28      1.0000 0.39590  0.56280  0.30100  Biso   1.000  C
  H13      1.0000 0.30210  0.58020  0.26850  Biso   1.000  H
  C29      1.0000 0.50810  0.67190  0.37480  Biso   1.000  C
  H14      1.0000 0.48950  0.76120  0.39270  Biso   1.000  H
  C30      1.0000 0.30220  0.31310  0.19600  Biso   1.000  C
  Cd3      1.0000 0.83724  0.13385  0.96787  Biso   1.000  Cd
  Cd4      1.0000 0.00304  0.52291  0.84996  Biso   1.000  Cd
  N5       1.0000 0.32760  0.18850  0.15760  Biso   1.000  N
  N6       1.0000 0.19330  0.11280  0.08880  Biso   1.000  N
  N7       1.0000 0.09230  0.18830  0.08480  Biso   1.000  N
  N8       1.0000 0.15760  0.31560  0.15270  Biso   1.000  N
  O7       1.0000 0.95940  0.17950  0.79610  Biso   1.000  O
  O8       1.0000 0.93740  0.37090  0.68600  Biso   1.000  O
  O9       1.0000 0.84440  0.30610  0.24200  Biso   1.000  O
  O10      1.0000 0.75360  0.08230  0.14650  Biso   1.000  O
  O11      1.0000 0.76260  0.74640  0.50000  Biso   1.000  O
  O12      1.0000 0.85840  0.37490  0.96870  Biso   1.000  O
