data_image0
_cell_length_a       11.2213
_cell_length_b       39.8468
_cell_length_c       22.4948
_cell_angle_alpha    90
_cell_angle_beta     104.135
_cell_angle_gamma    90

_symmetry_space_group_name_H-M    "P 1"
_symmetry_int_tables_number       1

loop_
  _symmetry_equiv_pos_as_xyz
  'x, y, z'

loop_
  _atom_site_label
  _atom_site_occupancy
  _atom_site_fract_x
  _atom_site_fract_y
  _atom_site_fract_z
  _atom_site_thermal_displace_type
  _atom_site_B_iso_or_equiv
  _atom_site_type_symbol
  Pb1      1.0000 0.18604  0.48570  0.75442  Biso   1.000  Pb
  P1       1.0000 0.66656  0.49529  0.32151  Biso   1.000  P
  P2       1.0000 0.87259  0.40591  0.29365  Biso   1.000  P
  P3       1.0000 0.13570  0.20108  0.49647  Biso   1.000  P
  P4       1.0000 0.24429  0.25938  0.32488  Biso   1.000  P
  P5       1.0000 0.81763  0.78015  0.07283  Biso   1.000  P
  P6       1.0000 0.53380  0.80812  0.90918  Biso   1.000  P
  Na1      1.0000 0.49350  0.49631  0.74453  Biso   1.000  Na
  Na2      1.0000 0.91780  0.43089  0.65640  Biso   1.000  Na
  O1       1.0000 0.74880  0.47938  0.37610  Biso   1.000  O
  O2       1.0000 0.73820  0.41111  0.26860  Biso   1.000  O
  O3       1.0000 0.38600  0.48433  0.81870  Biso   1.000  O
  O4       1.0000 0.28830  0.44612  0.86150  Biso   1.000  O
  O5       1.0000 0.67230  0.54310  0.61610  Biso   1.000  O
  O6       1.0000 0.57960  0.50561  0.66170  Biso   1.000  O
  O7       1.0000 0.16070  0.18822  0.56090  Biso   1.000  O
  O8       1.0000 0.14150  0.26914  0.35260  Biso   1.000  O
  O9       1.0000 0.31040  0.45447  0.70090  Biso   1.000  O
  O10      1.0000 0.11840  0.44427  0.64970  Biso   1.000  O
  O11      1.0000 0.88310  0.03776  0.33200  Biso   1.000  O
  O12      1.0000 0.69650  0.02602  0.27920  Biso   1.000  O
  O13      1.0000 0.76120  0.81360  0.07470  Biso   1.000  O
  O14      1.0000 0.63960  0.78643  0.90570  Biso   1.000  O
  O15      1.0000 0.64350  0.53984  0.78580  Biso   1.000  O
  O16      1.0000 0.75480  0.57852  0.75410  Biso   1.000  O
  O17      1.0000 0.31070  0.96978  0.23150  Biso   1.000  O
  O18      1.0000 0.15810  0.94478  0.26080  Biso   1.000  O
  C1       1.0000 0.70740  0.48819  0.24910  Biso   1.000  C
  C2       1.0000 0.82530  0.47997  0.24650  Biso   1.000  C
  C3       1.0000 0.85170  0.47593  0.18690  Biso   1.000  C
  C4       1.0000 0.97650  0.47235  0.18220  Biso   1.000  C
  H1       1.0000 0.04170  0.47270  0.21820  Biso   1.000  H
  C5       1.0000 0.00150  0.46850  0.12710  Biso   1.000  C
  H2       1.0000 0.08470  0.46720  0.12460  Biso   1.000  H
  C6       1.0000 0.90890  0.46620  0.07410  Biso   1.000  C
  H3       1.0000 0.92900  0.46270  0.03600  Biso   1.000  H
  C7       1.0000 0.78780  0.46910  0.07600  Biso   1.000  C
  C8       1.0000 0.75790  0.47606  0.13440  Biso   1.000  C
  C9       1.0000 0.63780  0.48416  0.13820  Biso   1.000  C
  H4       1.0000 0.57310  0.48500  0.10200  Biso   1.000  H
  C10      1.0000 0.61380  0.49083  0.19400  Biso   1.000  C
  H5       1.0000 0.53330  0.49730  0.19580  Biso   1.000  H
  C11      1.0000 0.95820  0.44316  0.32600  Biso   1.000  C
  C12      1.0000 0.92850  0.47470  0.30260  Biso   1.000  C
  C13      1.0000 0.99670  0.50356  0.33020  Biso   1.000  C
  C14      1.0000 0.96840  0.53630  0.30630  Biso   1.000  C
  H6       1.0000 0.89950  0.53940  0.27260  Biso   1.000  H
  C15      1.0000 0.03570  0.56260  0.32990  Biso   1.000  C
  H7       1.0000 0.01780  0.58410  0.31180  Biso   1.000  H
  C16      1.0000 0.13470  0.55840  0.38250  Biso   1.000  C
  H8       1.0000 0.18070  0.57750  0.39990  Biso   1.000  H
  C17      1.0000 0.16540  0.52802  0.40840  Biso   1.000  C
  C18      1.0000 0.09810  0.49934  0.38250  Biso   1.000  C
  C19      1.0000 0.12690  0.46619  0.40360  Biso   1.000  C
  H9       1.0000 0.19440  0.46270  0.43790  Biso   1.000  H
  C20      1.0000 0.06250  0.43935  0.37700  Biso   1.000  C
  H10      1.0000 0.08660  0.41750  0.39240  Biso   1.000  H
  C21      1.0000 0.68560  0.46549  0.01930  Biso   1.000  C
  C22      1.0000 0.68950  0.48440  0.96690  Biso   1.000  C
  H11      1.0000 0.75870  0.49820  0.96710  Biso   1.000  H
  C23      1.0000 0.59390  0.48300  0.91560  Biso   1.000  C
  H12      1.0000 0.59580  0.49640  0.88090  Biso   1.000  H
  C24      1.0000 0.49350  0.46183  0.91430  Biso   1.000  C
  C25      1.0000 0.49390  0.44163  0.96510  Biso   1.000  C
  H13      1.0000 0.42840  0.42640  0.96430  Biso   1.000  H
  C26      1.0000 0.58970  0.44397  0.01620  Biso   1.000  C
  H14      1.0000 0.58930  0.43010  0.05060  Biso   1.000  H
  C27      1.0000 0.38100  0.46371  0.86170  Biso   1.000  C
  C28      1.0000 0.27040  0.52578  0.46230  Biso   1.000  C
  C29      1.0000 0.38300  0.54082  0.45940  Biso   1.000  C
  H15      1.0000 0.39030  0.55120  0.42250  Biso   1.000  H
  C30      1.0000 0.48170  0.54058  0.50930  Biso   1.000  C
  H16      1.0000 0.55590  0.55130  0.50680  Biso   1.000  H
  C31      1.0000 0.47470  0.52465  0.56410  Biso   1.000  C
  C32      1.0000 0.36400  0.50981  0.56700  Biso   1.000  C
  H17      1.0000 0.35720  0.49910  0.60380  Biso   1.000  H
  C33      1.0000 0.26400  0.51040  0.51720  Biso   1.000  C
  H18      1.0000 0.18930  0.50010  0.52030  Biso   1.000  H
  C34      1.0000 0.58370  0.52446  0.61720  Biso   1.000  C
  C35      1.0000 0.51020  0.48088  0.30660  Biso   1.000  C
  C36      1.0000 0.49180  0.44638  0.29760  Biso   1.000  C
  H19      1.0000 0.56010  0.43190  0.30000  Biso   1.000  H
  C37      1.0000 0.37430  0.43330  0.28500  Biso   1.000  C
  H20      1.0000 0.36100  0.40990  0.27870  Biso   1.000  H
  C38      1.0000 0.27560  0.45500  0.28190  Biso   1.000  C
  H21      1.0000 0.19500  0.44600  0.27490  Biso   1.000  H
  C39      1.0000 0.29140  0.48890  0.28840  Biso   1.000  C
  H22      1.0000 0.22270  0.50340  0.28450  Biso   1.000  H
  C40      1.0000 0.40910  0.50160  0.30080  Biso   1.000  C
  H23      1.0000 0.42100  0.52520  0.30540  Biso   1.000  H
  C41      1.0000 0.65620  0.53994  0.33000  Biso   1.000  C
  C42      1.0000 0.65080  0.56250  0.28330  Biso   1.000  C
  H24      1.0000 0.65370  0.55470  0.24380  Biso   1.000  H
  C43      1.0000 0.64100  0.59670  0.29380  Biso   1.000  C
  H25      1.0000 0.64140  0.61230  0.26200  Biso   1.000  H
  C44      1.0000 0.63080  0.60770  0.34960  Biso   1.000  C
  H26      1.0000 0.62280  0.63110  0.35610  Biso   1.000  H
  C45      1.0000 0.63190  0.58600  0.39610  Biso   1.000  C
  H27      1.0000 0.62350  0.59390  0.43470  Biso   1.000  H
  C46      1.0000 0.64590  0.55180  0.38580  Biso   1.000  C
  H28      1.0000 0.64830  0.53640  0.41830  Biso   1.000  H
  C47      1.0000 0.90690  0.37648  0.35580  Biso   1.000  C
  C48      1.0000 0.87200  0.38565  0.40900  Biso   1.000  C
  H29      1.0000 0.83510  0.40700  0.41090  Biso   1.000  H
  C49      1.0000 0.88980  0.36454  0.45830  Biso   1.000  C
  H30      1.0000 0.86570  0.37150  0.49400  Biso   1.000  H
  C50      1.0000 0.94340  0.33280  0.45680  Biso   1.000  C
  H31      1.0000 0.95490  0.31790  0.49080  Biso   1.000  H
  C51      1.0000 0.97830  0.32397  0.40450  Biso   1.000  C
  H32      1.0000 0.01590  0.30280  0.40260  Biso   1.000  H
  C52      1.0000 0.96020  0.34533  0.35420  Biso   1.000  C
  H33      1.0000 0.98450  0.33850  0.31850  Biso   1.000  H
  C53      1.0000 0.94580  0.39132  0.23500  Biso   1.000  C
  C54      1.0000 0.87280  0.39020  0.17600  Biso   1.000  C
  H34      1.0000 0.78820  0.39600  0.16790  Biso   1.000  H
  C55      1.0000 0.92540  0.38030  0.12770  Biso   1.000  C
  H35      1.0000 0.87640  0.37960  0.08680  Biso   1.000  H
  C56      1.0000 0.04510  0.37190  0.13970  Biso   1.000  C
  H36      1.0000 0.07930  0.36510  0.10700  Biso   1.000  H
  C57      1.0000 0.11950  0.37310  0.19870  Biso   1.000  C
  H37      1.0000 0.20390  0.36720  0.20610  Biso   1.000  H
  C58      1.0000 0.07020  0.38293  0.24700  Biso   1.000  C
  H38      1.0000 0.12050  0.38390  0.28760  Biso   1.000  H
  C59      1.0000 0.21990  0.23938  0.49300  Biso   1.000  C
  C60      1.0000 0.31660  0.24549  0.46760  Biso   1.000  C
  C61      1.0000 0.38700  0.27688  0.48220  Biso   1.000  C
  C62      1.0000 0.49860  0.28208  0.46540  Biso   1.000  C
  H39      1.0000 0.53010  0.26490  0.44420  Biso   1.000  H
  C63      1.0000 0.56160  0.31110  0.47890  Biso   1.000  C
  H40      1.0000 0.63730  0.31400  0.46770  Biso   1.000  H
  C64      1.0000 0.51590  0.33706  0.50930  Biso   1.000  C
  H41      1.0000 0.56090  0.35740  0.51840  Biso   1.000  H
  C65      1.0000 0.40670  0.33340  0.52630  Biso   1.000  C
  C66      1.0000 0.34080  0.30220  0.51560  Biso   1.000  C
  C67      1.0000 0.23640  0.29514  0.53670  Biso   1.000  C
  H42      1.0000 0.20420  0.31220  0.55790  Biso   1.000  H
  C68      1.0000 0.17950  0.26522  0.52810  Biso   1.000  C
  H43      1.0000 0.11170  0.26110  0.54540  Biso   1.000  H
  C69      1.0000 0.34020  0.22539  0.36520  Biso   1.000  C
  C70      1.0000 0.36330  0.22109  0.42750  Biso   1.000  C
  C71      1.0000 0.43880  0.19352  0.45640  Biso   1.000  C
  C72      1.0000 0.46750  0.18870  0.52040  Biso   1.000  C
  H44      1.0000 0.43880  0.20440  0.54560  Biso   1.000  H
  C73      1.0000 0.53580  0.16188  0.54660  Biso   1.000  C
  H45      1.0000 0.55360  0.15890  0.58980  Biso   1.000  H
  C74      1.0000 0.58000  0.13870  0.51070  Biso   1.000  C
  H46      1.0000 0.62600  0.11990  0.52990  Biso   1.000  H
  C75      1.0000 0.55890  0.14230  0.44900  Biso   1.000  C
  C76      1.0000 0.48520  0.17030  0.41950  Biso   1.000  C
  C77      1.0000 0.46380  0.17667  0.35590  Biso   1.000  C
  H47      1.0000 0.49920  0.16240  0.33100  Biso   1.000  H
  C78      1.0000 0.39270  0.20313  0.32990  Biso   1.000  C
  H48      1.0000 0.37810  0.20670  0.28700  Biso   1.000  H
  C79      1.0000 0.36290  0.36176  0.55950  Biso   1.000  C
  C80      1.0000 0.24310  0.37447  0.53870  Biso   1.000  C
  H49      1.0000 0.19040  0.36580  0.50230  Biso   1.000  H
  C81      1.0000 0.20180  0.39941  0.57070  Biso   1.000  C
  H50      1.0000 0.11980  0.40730  0.55690  Biso   1.000  H
  C82      1.0000 0.27800  0.41328  0.62310  Biso   1.000  C
  C83      1.0000 0.39860  0.40195  0.64140  Biso   1.000  C
  H51      1.0000 0.45320  0.41230  0.67540  Biso   1.000  H
  C84      1.0000 0.44040  0.37625  0.61160  Biso   1.000  C
  H52      1.0000 0.52200  0.36820  0.62630  Biso   1.000  H
  C85      1.0000 0.23000  0.43948  0.65930  Biso   1.000  C
  C86      1.0000 0.61210  0.11805  0.41240  Biso   1.000  C
  C87      1.0000 0.73910  0.11188  0.42990  Biso   1.000  C
  H53      1.0000 0.78930  0.12380  0.46340  Biso   1.000  H
  C88      1.0000 0.79150  0.08839  0.39850  Biso   1.000  C
  H54      1.0000 0.87760  0.08450  0.41040  Biso   1.000  H
  C89      1.0000 0.71860  0.07034  0.34940  Biso   1.000  C
  C90      1.0000 0.59270  0.07749  0.33180  Biso   1.000  C
  H55      1.0000 0.54220  0.06590  0.29800  Biso   1.000  H
  C91      1.0000 0.54100  0.10096  0.36240  Biso   1.000  C
  H56      1.0000 0.45560  0.10560  0.34930  Biso   1.000  H
  C92      1.0000 0.77170  0.04291  0.31950  Biso   1.000  C
  C93      1.0000 0.97700  0.21307  0.46590  Biso   1.000  C
  C94      1.0000 0.89050  0.19969  0.49470  Biso   1.000  C
  H57      1.0000 0.91490  0.18580  0.52990  Biso   1.000  H
  C95      1.0000 0.76660  0.20750  0.46980  Biso   1.000  C
  H58      1.0000 0.70530  0.19870  0.48800  Biso   1.000  H
  C96      1.0000 0.73330  0.22790  0.41920  Biso   1.000  C
  H59      1.0000 0.64880  0.23250  0.40200  Biso   1.000  H
  C97      1.0000 0.81960  0.24163  0.39340  Biso   1.000  C
  H60      1.0000 0.79580  0.25620  0.35920  Biso   1.000  H
  C98      1.0000 0.94170  0.23419  0.41720  Biso   1.000  C
  H61      1.0000 0.00220  0.24390  0.39950  Biso   1.000  H
  C99      1.0000 0.16340  0.16842  0.44580  Biso   1.000  C
  C100     1.0000 0.13210  0.17238  0.38280  Biso   1.000  C
  H62      1.0000 0.09650  0.19280  0.36530  Biso   1.000  H
  C101     1.0000 0.15240  0.14663  0.34520  Biso   1.000  C
  H63      1.0000 0.13070  0.14930  0.30190  Biso   1.000  H
  C102     1.0000 0.20490  0.11678  0.37140  Biso   1.000  C
  H64      1.0000 0.21980  0.09910  0.34580  Biso   1.000  H
  C103     1.0000 0.23540  0.11273  0.43370  Biso   1.000  C
  H65      1.0000 0.27070  0.09230  0.45130  Biso   1.000  H
  C104     1.0000 0.21420  0.13878  0.47110  Biso   1.000  C
  H66      1.0000 0.23500  0.13600  0.51430  Biso   1.000  H
  C105     1.0000 0.34890  0.29408  0.32310  Biso   1.000  C
  C106     1.0000 0.45840  0.28991  0.30500  Biso   1.000  C
  H67      1.0000 0.47830  0.26870  0.29070  Biso   1.000  H
  C107     1.0000 0.53880  0.31696  0.30780  Biso   1.000  C
  H68      1.0000 0.61310  0.31430  0.29520  Biso   1.000  H
  C108     1.0000 0.50920  0.34750  0.32890  Biso   1.000  C
  H69      1.0000 0.56450  0.36580  0.33210  Biso   1.000  H
  C109     1.0000 0.39720  0.35162  0.34590  Biso   1.000  C
  H70      1.0000 0.37550  0.37290  0.35910  Biso   1.000  H
  C110     1.0000 0.31950  0.32469  0.34330  Biso   1.000  C
  H71      1.0000 0.24480  0.32730  0.35550  Biso   1.000  H
  C111     1.0000 0.18720  0.24346  0.24820  Biso   1.000  C
  C112     1.0000 0.23280  0.25287  0.19820  Biso   1.000  C
  H72      1.0000 0.29510  0.26950  0.20280  Biso   1.000  H
  C113     1.0000 0.18670  0.23790  0.14230  Biso   1.000  C
  H73      1.0000 0.22060  0.24370  0.10890  Biso   1.000  H
  C114     1.0000 0.09310  0.21470  0.13320  Biso   1.000  C
  H74      1.0000 0.06120  0.20480  0.09410  Biso   1.000  H
  C115     1.0000 0.04720  0.20650  0.18330  Biso   1.000  C
  H75      1.0000 0.98260  0.19050  0.17840  Biso   1.000  H
  C116     1.0000 0.09210  0.22050  0.23860  Biso   1.000  C
  H76      1.0000 0.05770  0.21450  0.27180  Biso   1.000  H
  C117     1.0000 0.71700  0.74909  0.02850  Biso   1.000  C
  C118     1.0000 0.59170  0.75248  0.01170  Biso   1.000  C
  C119     1.0000 0.51520  0.72619  0.97750  Biso   1.000  C
  C120     1.0000 0.38790  0.72737  0.96610  Biso   1.000  C
  H77      1.0000 0.34990  0.74580  0.98100  Biso   1.000  H
  C121     1.0000 0.31680  0.70270  0.93420  Biso   1.000  C
  H78      1.0000 0.23010  0.70340  0.92830  Biso   1.000  H
  C122     1.0000 0.37280  0.67580  0.90960  Biso   1.000  C
  H79      1.0000 0.32260  0.65890  0.88630  Biso   1.000  H
  C123     1.0000 0.49600  0.67386  0.91870  Biso   1.000  C
  C124     1.0000 0.57320  0.69803  0.95700  Biso   1.000  C
  C125     1.0000 0.70220  0.69546  0.97320  Biso   1.000  C
  H80      1.0000 0.74140  0.67680  0.95970  Biso   1.000  H
  C126     1.0000 0.77190  0.72007  0.00880  Biso   1.000  C
  H81      1.0000 0.85870  0.71770  0.02050  Biso   1.000  H
  C127     1.0000 0.50100  0.80940  0.98470  Biso   1.000  C
  C128     1.0000 0.52830  0.78325  0.02650  Biso   1.000  C
  C129     1.0000 0.49680  0.78533  0.08380  Biso   1.000  C
  C130     1.0000 0.51440  0.75798  0.12480  Biso   1.000  C
  H82      1.0000 0.55130  0.73790  0.11490  Biso   1.000  H
  C131     1.0000 0.47890  0.76007  0.17850  Biso   1.000  C
  H83      1.0000 0.48530  0.74100  0.20450  Biso   1.000  H
  C132     1.0000 0.43260  0.79081  0.19530  Biso   1.000  C
  H84      1.0000 0.41180  0.79230  0.23370  Biso   1.000  H
  C133     1.0000 0.41700  0.81794  0.15840  Biso   1.000  C
  C134     1.0000 0.44570  0.81615  0.10110  Biso   1.000  C
  C135     1.0000 0.41780  0.84194  0.05560  Biso   1.000  C
  H85      1.0000 0.38080  0.86210  0.06500  Biso   1.000  H
  C136     1.0000 0.44180  0.83885  0.00040  Biso   1.000  C
  H86      1.0000 0.41920  0.85640  0.97120  Biso   1.000  H
  C137     1.0000 0.54930  0.64593  0.88730  Biso   1.000  C
  C138     1.0000 0.52270  0.61264  0.89610  Biso   1.000  C
  H87      1.0000 0.47560  0.60670  0.92440  Biso   1.000  H
  C139     1.0000 0.56710  0.58758  0.86230  Biso   1.000  C
  H88      1.0000 0.54980  0.56460  0.86790  Biso   1.000  H
  C140     1.0000 0.63400  0.59617  0.82180  Biso   1.000  C
  C141     1.0000 0.65870  0.63016  0.81340  Biso   1.000  C
  H89      1.0000 0.70350  0.63650  0.78440  Biso   1.000  H
  C142     1.0000 0.61840  0.65370  0.84670  Biso   1.000  C
  H90      1.0000 0.63860  0.67650  0.84190  Biso   1.000  H
  C143     1.0000 0.67950  0.56956  0.78420  Biso   1.000  C
  C144     1.0000 0.37150  0.85033  0.17970  Biso   1.000  C
  C145     1.0000 0.26940  0.85104  0.20410  Biso   1.000  C
  H91      1.0000 0.22610  0.83090  0.20730  Biso   1.000  H
  C146     1.0000 0.23020  0.88146  0.22380  Biso   1.000  C
  H92      1.0000 0.16040  0.88170  0.24070  Biso   1.000  H
  C147     1.0000 0.29140  0.91120  0.21920  Biso   1.000  C
  C148     1.0000 0.39660  0.90961  0.19560  Biso   1.000  C
  H93      1.0000 0.44110  0.92950  0.19250  Biso   1.000  H
  C149     1.0000 0.43500  0.87994  0.17710  Biso   1.000  C
  H94      1.0000 0.50710  0.87950  0.16210  Biso   1.000  H
  C150     1.0000 0.24860  0.94393  0.23830  Biso   1.000  C
  C151     1.0000 0.87490  0.76230  0.14730  Biso   1.000  C
  C152     1.0000 0.90130  0.73000  0.15840  Biso   1.000  C
  H95      1.0000 0.88070  0.71450  0.12540  Biso   1.000  H
  C153     1.0000 0.95850  0.71790  0.21720  Biso   1.000  C
  H96      1.0000 0.97680  0.69470  0.22260  Biso   1.000  H
  C154     1.0000 0.98700  0.73810  0.26510  Biso   1.000  C
  H97      1.0000 0.02230  0.72990  0.30530  Biso   1.000  H
  C155     1.0000 0.96300  0.77300  0.25330  Biso   1.000  C
  H98      1.0000 0.98420  0.78850  0.28630  Biso   1.000  H
  C156     1.0000 0.90950  0.78490  0.19510  Biso   1.000  C
  H99      1.0000 0.89670  0.80830  0.18810  Biso   1.000  H
  C157     1.0000 0.94850  0.78191  0.03980  Biso   1.000  C
  C158     1.0000 0.06540  0.77540  0.07320  Biso   1.000  C
  H100     1.0000 0.07950  0.76900  0.11500  Biso   1.000  H
  C159     1.0000 0.16690  0.77830  0.04490  Biso   1.000  C
  H101     1.0000 0.24810  0.77320  0.06740  Biso   1.000  H
  C160     1.0000 0.14450  0.78870  0.98500  Biso   1.000  C
  H102     1.0000 0.21120  0.79150  0.96630  Biso   1.000  H
  C161     1.0000 0.02820  0.79500  0.95220  Biso   1.000  C
  H103     1.0000 0.01420  0.80150  0.91040  Biso   1.000  H
  C162     1.0000 0.92760  0.79210  0.97930  Biso   1.000  C
  H104     1.0000 0.84670  0.79710  0.95630  Biso   1.000  H
  C163     1.0000 0.56230  0.85170  0.89490  Biso   1.000  C
  C164     1.0000 0.66030  0.86659  0.93500  Biso   1.000  C
  H105     1.0000 0.70800  0.85400  0.96830  Biso   1.000  H
  C165     1.0000 0.68980  0.89940  0.92730  Biso   1.000  C
  H106     1.0000 0.75950  0.90900  0.95450  Biso   1.000  H
  C166     1.0000 0.61930  0.91870  0.88020  Biso   1.000  C
  H107     1.0000 0.64000  0.94150  0.87520  Biso   1.000  H
  C167     1.0000 0.51750  0.90400  0.84040  Biso   1.000  C
  H108     1.0000 0.46640  0.91680  0.80860  Biso   1.000  H
  C168     1.0000 0.49180  0.87047  0.84780  Biso   1.000  C
  H109     1.0000 0.42430  0.86020  0.81990  Biso   1.000  H
  C169     1.0000 0.39430  0.79491  0.85700  Biso   1.000  C
  C170     1.0000 0.28260  0.81050  0.85070  Biso   1.000  C
  H110     1.0000 0.27640  0.82940  0.87550  Biso   1.000  H
  C171     1.0000 0.17780  0.79890  0.80810  Biso   1.000  C
  H111     1.0000 0.10150  0.81040  0.80220  Biso   1.000  H
  C172     1.0000 0.18880  0.77030  0.77500  Biso   1.000  C
  H112     1.0000 0.11800  0.76190  0.74670  Biso   1.000  H
  C173     1.0000 0.29230  0.75430  0.78130  Biso   1.000  C
  H113     1.0000 0.29550  0.73460  0.75780  Biso   1.000  H
  C174     1.0000 0.39770  0.76580  0.82170  Biso   1.000  C
  H114     1.0000 0.47290  0.75400  0.82590  Biso   1.000  H
  Pb2      1.0000 0.81396  0.98570  0.24558  Biso   1.000  Pb
  P7       1.0000 0.33344  0.99529  0.67849  Biso   1.000  P
  P8       1.0000 0.12741  0.90591  0.70635  Biso   1.000  P
  P9       1.0000 0.86430  0.70108  0.50353  Biso   1.000  P
  P10      1.0000 0.75571  0.75938  0.67512  Biso   1.000  P
  P11      1.0000 0.18237  0.28015  0.92717  Biso   1.000  P
  P12      1.0000 0.46620  0.30812  0.09082  Biso   1.000  P
  Na3      1.0000 0.50650  0.99631  0.25547  Biso   1.000  Na
  Na4      1.0000 0.08220  0.93089  0.34360  Biso   1.000  Na
  O19      1.0000 0.25120  0.97938  0.62390  Biso   1.000  O
  O20      1.0000 0.26180  0.91111  0.73140  Biso   1.000  O
  O21      1.0000 0.61400  0.98433  0.18130  Biso   1.000  O
  O22      1.0000 0.71170  0.94612  0.13850  Biso   1.000  O
  O23      1.0000 0.32770  0.04310  0.38390  Biso   1.000  O
  O24      1.0000 0.42040  0.00561  0.33830  Biso   1.000  O
  O25      1.0000 0.83930  0.68822  0.43910  Biso   1.000  O
  O26      1.0000 0.85850  0.76914  0.64740  Biso   1.000  O
  O27      1.0000 0.68960  0.95447  0.29910  Biso   1.000  O
  O28      1.0000 0.88160  0.94427  0.35030  Biso   1.000  O
  O29      1.0000 0.11690  0.53776  0.66800  Biso   1.000  O
  O30      1.0000 0.30350  0.52602  0.72080  Biso   1.000  O
  O31      1.0000 0.23880  0.31360  0.92530  Biso   1.000  O
  O32      1.0000 0.36040  0.28643  0.09430  Biso   1.000  O
  O33      1.0000 0.35650  0.03984  0.21420  Biso   1.000  O
  O34      1.0000 0.24520  0.07852  0.24590  Biso   1.000  O
  O35      1.0000 0.68930  0.46978  0.76850  Biso   1.000  O
  O36      1.0000 0.84190  0.44478  0.73920  Biso   1.000  O
  C175     1.0000 0.29260  0.98819  0.75090  Biso   1.000  C
  C176     1.0000 0.17470  0.97997  0.75350  Biso   1.000  C
  C177     1.0000 0.14830  0.97593  0.81310  Biso   1.000  C
  C178     1.0000 0.02350  0.97235  0.81780  Biso   1.000  C
  H115     1.0000 0.95830  0.97270  0.78180  Biso   1.000  H
  C179     1.0000 0.99850  0.96850  0.87290  Biso   1.000  C
  H116     1.0000 0.91530  0.96720  0.87540  Biso   1.000  H
  C180     1.0000 0.09110  0.96620  0.92590  Biso   1.000  C
  H117     1.0000 0.07100  0.96270  0.96400  Biso   1.000  H
  C181     1.0000 0.21220  0.96910  0.92400  Biso   1.000  C
  C182     1.0000 0.24210  0.97606  0.86560  Biso   1.000  C
  C183     1.0000 0.36220  0.98416  0.86180  Biso   1.000  C
  H118     1.0000 0.42690  0.98500  0.89800  Biso   1.000  H
  C184     1.0000 0.38620  0.99083  0.80600  Biso   1.000  C
  H119     1.0000 0.46670  0.99730  0.80420  Biso   1.000  H
  C185     1.0000 0.04180  0.94316  0.67400  Biso   1.000  C
  C186     1.0000 0.07150  0.97470  0.69740  Biso   1.000  C
  C187     1.0000 0.00330  0.00356  0.66980  Biso   1.000  C
  C188     1.0000 0.03160  0.03630  0.69370  Biso   1.000  C
  H120     1.0000 0.10050  0.03940  0.72740  Biso   1.000  H
  C189     1.0000 0.96430  0.06260  0.67010  Biso   1.000  C
  H121     1.0000 0.98220  0.08410  0.68820  Biso   1.000  H
  C190     1.0000 0.86530  0.05840  0.61750  Biso   1.000  C
  H122     1.0000 0.81930  0.07750  0.60010  Biso   1.000  H
  C191     1.0000 0.83460  0.02802  0.59160  Biso   1.000  C
  C192     1.0000 0.90190  0.99934  0.61750  Biso   1.000  C
  C193     1.0000 0.87310  0.96619  0.59640  Biso   1.000  C
  H123     1.0000 0.80560  0.96270  0.56210  Biso   1.000  H
  C194     1.0000 0.93750  0.93935  0.62300  Biso   1.000  C
  H124     1.0000 0.91340  0.91750  0.60760  Biso   1.000  H
  C195     1.0000 0.31440  0.96549  0.98070  Biso   1.000  C
  C196     1.0000 0.31050  0.98440  0.03310  Biso   1.000  C
  H125     1.0000 0.24130  0.99820  0.03290  Biso   1.000  H
  C197     1.0000 0.40610  0.98300  0.08440  Biso   1.000  C
  H126     1.0000 0.40420  0.99640  0.11910  Biso   1.000  H
  C198     1.0000 0.50650  0.96183  0.08570  Biso   1.000  C
  C199     1.0000 0.50610  0.94163  0.03490  Biso   1.000  C
  H127     1.0000 0.57160  0.92640  0.03570  Biso   1.000  H
  C200     1.0000 0.41030  0.94397  0.98380  Biso   1.000  C
  H128     1.0000 0.41070  0.93010  0.94940  Biso   1.000  H
  C201     1.0000 0.61900  0.96371  0.13830  Biso   1.000  C
  C202     1.0000 0.72960  0.02578  0.53770  Biso   1.000  C
  C203     1.0000 0.61700  0.04082  0.54060  Biso   1.000  C
  H129     1.0000 0.60970  0.05120  0.57750  Biso   1.000  H
  C204     1.0000 0.51830  0.04058  0.49070  Biso   1.000  C
  H130     1.0000 0.44410  0.05130  0.49320  Biso   1.000  H
  C205     1.0000 0.52530  0.02465  0.43590  Biso   1.000  C
  C206     1.0000 0.63600  0.00981  0.43300  Biso   1.000  C
  H131     1.0000 0.64280  0.99910  0.39620  Biso   1.000  H
  C207     1.0000 0.73600  0.01040  0.48280  Biso   1.000  C
  H132     1.0000 0.81070  0.00010  0.47970  Biso   1.000  H
  C208     1.0000 0.41630  0.02446  0.38280  Biso   1.000  C
  C209     1.0000 0.48980  0.98088  0.69340  Biso   1.000  C
  C210     1.0000 0.50820  0.94638  0.70240  Biso   1.000  C
  H133     1.0000 0.43990  0.93190  0.70000  Biso   1.000  H
  C211     1.0000 0.62570  0.93330  0.71500  Biso   1.000  C
  H134     1.0000 0.63900  0.90990  0.72130  Biso   1.000  H
  C212     1.0000 0.72440  0.95500  0.71810  Biso   1.000  C
  H135     1.0000 0.80500  0.94600  0.72510  Biso   1.000  H
  C213     1.0000 0.70860  0.98890  0.71160  Biso   1.000  C
  H136     1.0000 0.77730  0.00340  0.71550  Biso   1.000  H
  C214     1.0000 0.59090  0.00160  0.69920  Biso   1.000  C
  H137     1.0000 0.57900  0.02520  0.69460  Biso   1.000  H
  C215     1.0000 0.34380  0.03994  0.67000  Biso   1.000  C
  C216     1.0000 0.34920  0.06250  0.71670  Biso   1.000  C
  H138     1.0000 0.34630  0.05470  0.75620  Biso   1.000  H
  C217     1.0000 0.35900  0.09670  0.70620  Biso   1.000  C
  H139     1.0000 0.35860  0.11230  0.73800  Biso   1.000  H
  C218     1.0000 0.36920  0.10770  0.65040  Biso   1.000  C
  H140     1.0000 0.37720  0.13110  0.64390  Biso   1.000  H
  C219     1.0000 0.36810  0.08600  0.60390  Biso   1.000  C
  H141     1.0000 0.37650  0.09390  0.56530  Biso   1.000  H
  C220     1.0000 0.35410  0.05180  0.61420  Biso   1.000  C
  H142     1.0000 0.35170  0.03640  0.58170  Biso   1.000  H
  C221     1.0000 0.09310  0.87648  0.64420  Biso   1.000  C
  C222     1.0000 0.12800  0.88565  0.59100  Biso   1.000  C
  H143     1.0000 0.16490  0.90700  0.58910  Biso   1.000  H
  C223     1.0000 0.11020  0.86454  0.54170  Biso   1.000  C
  H144     1.0000 0.13430  0.87150  0.50600  Biso   1.000  H
  C224     1.0000 0.05660  0.83280  0.54320  Biso   1.000  C
  H145     1.0000 0.04510  0.81790  0.50920  Biso   1.000  H
  C225     1.0000 0.02170  0.82397  0.59550  Biso   1.000  C
  H146     1.0000 0.98410  0.80280  0.59740  Biso   1.000  H
  C226     1.0000 0.03980  0.84533  0.64580  Biso   1.000  C
  H147     1.0000 0.01550  0.83850  0.68150  Biso   1.000  H
  C227     1.0000 0.05420  0.89132  0.76500  Biso   1.000  C
  C228     1.0000 0.12720  0.89020  0.82400  Biso   1.000  C
  H148     1.0000 0.21180  0.89600  0.83210  Biso   1.000  H
  C229     1.0000 0.07460  0.88030  0.87230  Biso   1.000  C
  H149     1.0000 0.12360  0.87960  0.91320  Biso   1.000  H
  C230     1.0000 0.95490  0.87190  0.86030  Biso   1.000  C
  H150     1.0000 0.92070  0.86510  0.89300  Biso   1.000  H
  C231     1.0000 0.88050  0.87310  0.80130  Biso   1.000  C
  H151     1.0000 0.79610  0.86720  0.79390  Biso   1.000  H
  C232     1.0000 0.92980  0.88293  0.75300  Biso   1.000  C
  H152     1.0000 0.87950  0.88390  0.71240  Biso   1.000  H
  C233     1.0000 0.78010  0.73938  0.50700  Biso   1.000  C
  C234     1.0000 0.68340  0.74549  0.53240  Biso   1.000  C
  C235     1.0000 0.61300  0.77688  0.51780  Biso   1.000  C
  C236     1.0000 0.50140  0.78208  0.53460  Biso   1.000  C
  H153     1.0000 0.46990  0.76490  0.55580  Biso   1.000  H
  C237     1.0000 0.43840  0.81110  0.52110  Biso   1.000  C
  H154     1.0000 0.36270  0.81400  0.53230  Biso   1.000  H
  C238     1.0000 0.48410  0.83706  0.49070  Biso   1.000  C
  H155     1.0000 0.43910  0.85740  0.48160  Biso   1.000  H
  C239     1.0000 0.59330  0.83340  0.47370  Biso   1.000  C
  C240     1.0000 0.65920  0.80220  0.48440  Biso   1.000  C
  C241     1.0000 0.76360  0.79514  0.46330  Biso   1.000  C
  H156     1.0000 0.79580  0.81220  0.44210  Biso   1.000  H
  C242     1.0000 0.82050  0.76522  0.47190  Biso   1.000  C
  H157     1.0000 0.88830  0.76110  0.45460  Biso   1.000  H
  C243     1.0000 0.65980  0.72539  0.63480  Biso   1.000  C
  C244     1.0000 0.63670  0.72109  0.57250  Biso   1.000  C
  C245     1.0000 0.56120  0.69352  0.54360  Biso   1.000  C
  C246     1.0000 0.53250  0.68870  0.47960  Biso   1.000  C
  H158     1.0000 0.56120  0.70440  0.45440  Biso   1.000  H
  C247     1.0000 0.46420  0.66188  0.45340  Biso   1.000  C
  H159     1.0000 0.44640  0.65890  0.41020  Biso   1.000  H
  C248     1.0000 0.42000  0.63870  0.48930  Biso   1.000  C
  H160     1.0000 0.37400  0.61990  0.47010  Biso   1.000  H
  C249     1.0000 0.44110  0.64230  0.55100  Biso   1.000  C
  C250     1.0000 0.51480  0.67030  0.58050  Biso   1.000  C
  C251     1.0000 0.53620  0.67667  0.64410  Biso   1.000  C
  H161     1.0000 0.50080  0.66240  0.66900  Biso   1.000  H
  C252     1.0000 0.60730  0.70313  0.67010  Biso   1.000  C
  H162     1.0000 0.62190  0.70670  0.71300  Biso   1.000  H
  C253     1.0000 0.63710  0.86176  0.44050  Biso   1.000  C
  C254     1.0000 0.75690  0.87447  0.46130  Biso   1.000  C
  H163     1.0000 0.80960  0.86580  0.49770  Biso   1.000  H
  C255     1.0000 0.79820  0.89941  0.42930  Biso   1.000  C
  H164     1.0000 0.88020  0.90730  0.44310  Biso   1.000  H
  C256     1.0000 0.72200  0.91328  0.37690  Biso   1.000  C
  C257     1.0000 0.60140  0.90195  0.35860  Biso   1.000  C
  H165     1.0000 0.54680  0.91230  0.32460  Biso   1.000  H
  C258     1.0000 0.55960  0.87625  0.38840  Biso   1.000  C
  H166     1.0000 0.47800  0.86820  0.37370  Biso   1.000  H
  C259     1.0000 0.77000  0.93948  0.34070  Biso   1.000  C
  C260     1.0000 0.38790  0.61805  0.58760  Biso   1.000  C
  C261     1.0000 0.26090  0.61188  0.57010  Biso   1.000  C
  H167     1.0000 0.21070  0.62380  0.53660  Biso   1.000  H
  C262     1.0000 0.20850  0.58839  0.60150  Biso   1.000  C
  H168     1.0000 0.12240  0.58450  0.58960  Biso   1.000  H
  C263     1.0000 0.28140  0.57034  0.65060  Biso   1.000  C
  C264     1.0000 0.40730  0.57749  0.66820  Biso   1.000  C
  H169     1.0000 0.45780  0.56590  0.70200  Biso   1.000  H
  C265     1.0000 0.45900  0.60096  0.63760  Biso   1.000  C
  H170     1.0000 0.54440  0.60560  0.65070  Biso   1.000  H
  C266     1.0000 0.22830  0.54291  0.68050  Biso   1.000  C
  C267     1.0000 0.02300  0.71307  0.53410  Biso   1.000  C
  C268     1.0000 0.10950  0.69969  0.50530  Biso   1.000  C
  H171     1.0000 0.08510  0.68580  0.47010  Biso   1.000  H
  C269     1.0000 0.23340  0.70750  0.53020  Biso   1.000  C
  H172     1.0000 0.29470  0.69870  0.51200  Biso   1.000  H
  C270     1.0000 0.26670  0.72790  0.58080  Biso   1.000  C
  H173     1.0000 0.35120  0.73250  0.59800  Biso   1.000  H
  C271     1.0000 0.18040  0.74163  0.60660  Biso   1.000  C
  H174     1.0000 0.20420  0.75620  0.64080  Biso   1.000  H
  C272     1.0000 0.05830  0.73419  0.58280  Biso   1.000  C
  H175     1.0000 0.99780  0.74390  0.60050  Biso   1.000  H
  C273     1.0000 0.83660  0.66842  0.55420  Biso   1.000  C
  C274     1.0000 0.86790  0.67238  0.61720  Biso   1.000  C
  H176     1.0000 0.90350  0.69280  0.63470  Biso   1.000  H
  C275     1.0000 0.84760  0.64663  0.65480  Biso   1.000  C
  H177     1.0000 0.86930  0.64930  0.69810  Biso   1.000  H
  C276     1.0000 0.79510  0.61678  0.62860  Biso   1.000  C
  H178     1.0000 0.78020  0.59910  0.65420  Biso   1.000  H
  C277     1.0000 0.76460  0.61273  0.56630  Biso   1.000  C
  H179     1.0000 0.72930  0.59230  0.54870  Biso   1.000  H
  C278     1.0000 0.78580  0.63878  0.52890  Biso   1.000  C
  H180     1.0000 0.76500  0.63600  0.48570  Biso   1.000  H
  C279     1.0000 0.65110  0.79408  0.67690  Biso   1.000  C
  C280     1.0000 0.54160  0.78991  0.69500  Biso   1.000  C
  H181     1.0000 0.52170  0.76870  0.70930  Biso   1.000  H
  C281     1.0000 0.46120  0.81696  0.69220  Biso   1.000  C
  H182     1.0000 0.38690  0.81430  0.70480  Biso   1.000  H
  C282     1.0000 0.49080  0.84750  0.67110  Biso   1.000  C
  H183     1.0000 0.43550  0.86580  0.66790  Biso   1.000  H
  C283     1.0000 0.60280  0.85162  0.65410  Biso   1.000  C
  H184     1.0000 0.62450  0.87290  0.64090  Biso   1.000  H
  C284     1.0000 0.68050  0.82469  0.65670  Biso   1.000  C
  H185     1.0000 0.75520  0.82730  0.64450  Biso   1.000  H
  C285     1.0000 0.81280  0.74346  0.75180  Biso   1.000  C
  C286     1.0000 0.76720  0.75287  0.80180  Biso   1.000  C
  H186     1.0000 0.70490  0.76950  0.79720  Biso   1.000  H
  C287     1.0000 0.81330  0.73790  0.85770  Biso   1.000  C
  H187     1.0000 0.77940  0.74370  0.89110  Biso   1.000  H
  C288     1.0000 0.90690  0.71470  0.86680  Biso   1.000  C
  H188     1.0000 0.93880  0.70480  0.90590  Biso   1.000  H
  C289     1.0000 0.95280  0.70650  0.81670  Biso   1.000  C
  H189     1.0000 0.01740  0.69050  0.82160  Biso   1.000  H
  C290     1.0000 0.90790  0.72050  0.76140  Biso   1.000  C
  H190     1.0000 0.94230  0.71450  0.72820  Biso   1.000  H
  C291     1.0000 0.28300  0.24909  0.97150  Biso   1.000  C
  C292     1.0000 0.40830  0.25248  0.98830  Biso   1.000  C
  C293     1.0000 0.48480  0.22619  0.02250  Biso   1.000  C
  C294     1.0000 0.61210  0.22737  0.03390  Biso   1.000  C
  H191     1.0000 0.65010  0.24580  0.01900  Biso   1.000  H
  C295     1.0000 0.68320  0.20270  0.06580  Biso   1.000  C
  H192     1.0000 0.76990  0.20340  0.07170  Biso   1.000  H
  C296     1.0000 0.62720  0.17580  0.09040  Biso   1.000  C
  H193     1.0000 0.67740  0.15890  0.11370  Biso   1.000  H
  C297     1.0000 0.50400  0.17386  0.08130  Biso   1.000  C
  C298     1.0000 0.42680  0.19803  0.04300  Biso   1.000  C
  C299     1.0000 0.29780  0.19546  0.02680  Biso   1.000  C
  H194     1.0000 0.25860  0.17680  0.04030  Biso   1.000  H
  C300     1.0000 0.22810  0.22007  0.99120  Biso   1.000  C
  H195     1.0000 0.14130  0.21770  0.97950  Biso   1.000  H
  C301     1.0000 0.49900  0.30940  0.01530  Biso   1.000  C
  C302     1.0000 0.47170  0.28325  0.97350  Biso   1.000  C
  C303     1.0000 0.50320  0.28533  0.91620  Biso   1.000  C
  C304     1.0000 0.48560  0.25798  0.87520  Biso   1.000  C
  H196     1.0000 0.44870  0.23790  0.88510  Biso   1.000  H
  C305     1.0000 0.52110  0.26007  0.82150  Biso   1.000  C
  H197     1.0000 0.51470  0.24100  0.79550  Biso   1.000  H
  C306     1.0000 0.56740  0.29081  0.80470  Biso   1.000  C
  H198     1.0000 0.58820  0.29230  0.76630  Biso   1.000  H
  C307     1.0000 0.58300  0.31794  0.84160  Biso   1.000  C
  C308     1.0000 0.55430  0.31615  0.89890  Biso   1.000  C
  C309     1.0000 0.58220  0.34194  0.94440  Biso   1.000  C
  H199     1.0000 0.61920  0.36210  0.93500  Biso   1.000  H
  C310     1.0000 0.55820  0.33885  0.99960  Biso   1.000  C
  H200     1.0000 0.58080  0.35640  0.02880  Biso   1.000  H
  C311     1.0000 0.45070  0.14593  0.11270  Biso   1.000  C
  C312     1.0000 0.47730  0.11264  0.10390  Biso   1.000  C
  H201     1.0000 0.52440  0.10670  0.07560  Biso   1.000  H
  C313     1.0000 0.43290  0.08758  0.13770  Biso   1.000  C
  H202     1.0000 0.45020  0.06460  0.13210  Biso   1.000  H
  C314     1.0000 0.36600  0.09617  0.17820  Biso   1.000  C
  C315     1.0000 0.34130  0.13016  0.18660  Biso   1.000  C
  H203     1.0000 0.29650  0.13650  0.21560  Biso   1.000  H
  C316     1.0000 0.38160  0.15370  0.15330  Biso   1.000  C
  H204     1.0000 0.36140  0.17650  0.15810  Biso   1.000  H
  C317     1.0000 0.32050  0.06956  0.21580  Biso   1.000  C
  C318     1.0000 0.62850  0.35033  0.82030  Biso   1.000  C
  C319     1.0000 0.73060  0.35104  0.79590  Biso   1.000  C
  H205     1.0000 0.77390  0.33090  0.79270  Biso   1.000  H
  C320     1.0000 0.76980  0.38146  0.77620  Biso   1.000  C
  H206     1.0000 0.83960  0.38170  0.75930  Biso   1.000  H
  C321     1.0000 0.70860  0.41120  0.78080  Biso   1.000  C
  C322     1.0000 0.60340  0.40961  0.80440  Biso   1.000  C
  H207     1.0000 0.55890  0.42950  0.80750  Biso   1.000  H
  C323     1.0000 0.56500  0.37994  0.82290  Biso   1.000  C
  H208     1.0000 0.49290  0.37950  0.83790  Biso   1.000  H
  C324     1.0000 0.75140  0.44393  0.76170  Biso   1.000  C
  C325     1.0000 0.12510  0.26230  0.85270  Biso   1.000  C
  C326     1.0000 0.09870  0.23000  0.84160  Biso   1.000  C
  H209     1.0000 0.11930  0.21450  0.87460  Biso   1.000  H
  C327     1.0000 0.04150  0.21790  0.78280  Biso   1.000  C
  H210     1.0000 0.02320  0.19470  0.77740  Biso   1.000  H
  C328     1.0000 0.01300  0.23810  0.73490  Biso   1.000  C
  H211     1.0000 0.97770  0.22990  0.69470  Biso   1.000  H
  C329     1.0000 0.03700  0.27300  0.74670  Biso   1.000  C
  H212     1.0000 0.01580  0.28850  0.71370  Biso   1.000  H
  C330     1.0000 0.09050  0.28490  0.80490  Biso   1.000  C
  H213     1.0000 0.10330  0.30830  0.81190  Biso   1.000  H
  C331     1.0000 0.05150  0.28191  0.96020  Biso   1.000  C
  C332     1.0000 0.93460  0.27540  0.92680  Biso   1.000  C
  H214     1.0000 0.92050  0.26900  0.88500  Biso   1.000  H
  C333     1.0000 0.83310  0.27830  0.95510  Biso   1.000  C
  H215     1.0000 0.75190  0.27320  0.93260  Biso   1.000  H
  C334     1.0000 0.85550  0.28870  0.01500  Biso   1.000  C
  H216     1.0000 0.78880  0.29150  0.03370  Biso   1.000  H
  C335     1.0000 0.97180  0.29500  0.04780  Biso   1.000  C
  H217     1.0000 0.98580  0.30150  0.08960  Biso   1.000  H
  C336     1.0000 0.07240  0.29210  0.02070  Biso   1.000  C
  H218     1.0000 0.15330  0.29710  0.04370  Biso   1.000  H
  C337     1.0000 0.43770  0.35170  0.10510  Biso   1.000  C
  C338     1.0000 0.33970  0.36659  0.06500  Biso   1.000  C
  H219     1.0000 0.29200  0.35400  0.03170  Biso   1.000  H
  C339     1.0000 0.31020  0.39940  0.07270  Biso   1.000  C
  H220     1.0000 0.24050  0.40900  0.04550  Biso   1.000  H
  C340     1.0000 0.38070  0.41870  0.11980  Biso   1.000  C
  H221     1.0000 0.36000  0.44150  0.12480  Biso   1.000  H
  C341     1.0000 0.48250  0.40400  0.15960  Biso   1.000  C
  H222     1.0000 0.53360  0.41680  0.19140  Biso   1.000  H
  C342     1.0000 0.50820  0.37047  0.15220  Biso   1.000  C
  H223     1.0000 0.57570  0.36020  0.18010  Biso   1.000  H
  C343     1.0000 0.60570  0.29491  0.14300  Biso   1.000  C
  C344     1.0000 0.71740  0.31050  0.14930  Biso   1.000  C
  H224     1.0000 0.72360  0.32940  0.12450  Biso   1.000  H
  C345     1.0000 0.82220  0.29890  0.19190  Biso   1.000  C
  H225     1.0000 0.89850  0.31040  0.19780  Biso   1.000  H
  C346     1.0000 0.81120  0.27030  0.22500  Biso   1.000  C
  H226     1.0000 0.88200  0.26190  0.25330  Biso   1.000  H
  C347     1.0000 0.70770  0.25430  0.21870  Biso   1.000  C
  H227     1.0000 0.70450  0.23460  0.24220  Biso   1.000  H
  C348     1.0000 0.60230  0.26580  0.17830  Biso   1.000  C
  H228     1.0000 0.52710  0.25400  0.17410  Biso   1.000  H
