data_CITXUZ_clean
_audit_creation_date              2014-07-02
_audit_creation_method            'Materials Studio'
_symmetry_space_group_name_H-M    'P1'
_symmetry_Int_Tables_number       1
_symmetry_cell_setting            triclinic
loop_
_symmetry_equiv_pos_as_xyz
  x,y,z
_cell_length_a                    14.6690
_cell_length_b                    16.6639
_cell_length_c                    16.6639
_cell_angle_alpha                 60.6724
_cell_angle_beta                  63.8870
_cell_angle_gamma                 63.8871
loop_
_atom_site_label
_atom_site_type_symbol
_atom_site_fract_x
_atom_site_fract_y
_atom_site_fract_z
_atom_site_U_iso_or_equiv
_atom_site_adp_type
_atom_site_occupancy
Cu1    Cu    0.42720   0.04758   0.95242   0.01267  Uiso   1.00
Cu2    Cu    0.57280   0.95242   0.04758   0.01267  Uiso   1.00
Cu3    Cu    0.07280   0.54758   0.45242   0.01267  Uiso   1.00
Cu4    Cu    0.92720   0.45242   0.54758   0.01267  Uiso   1.00
Cu5    Cu    0.25000   0.55600   0.94400   0.01267  Uiso   1.00
Cu6    Cu    0.25000   0.94400   0.55600   0.01267  Uiso   1.00
Cu7    Cu    0.75000   0.44400   0.05600   0.01267  Uiso   1.00
Cu8    Cu    0.75000   0.05600   0.44400   0.01267  Uiso   1.00
H1     H     0.57350   0.44250   0.17730   0.01267  Uiso   1.00
H2     H     0.61800   0.49510   0.19210   0.01267  Uiso   1.00
H3     H     0.59660   0.66360   0.10320   0.01267  Uiso   1.00
H4     H     0.45640   0.51760   0.08520   0.01267  Uiso   1.00
H5     H     0.37150   0.80700   0.96760   0.01267  Uiso   1.00
H6     H     0.80670   0.17730   0.44250   0.01267  Uiso   1.00
H7     H     0.69480   0.19210   0.49510   0.01267  Uiso   1.00
H8     H     0.63660   0.10320   0.66360   0.01267  Uiso   1.00
H9     H     0.94080   0.08520   0.51760   0.01267  Uiso   1.00
H10    H     0.85390   0.96760   0.80700   0.01267  Uiso   1.00
H11    H     0.92650   0.32270   0.05750   0.01267  Uiso   1.00
H12    H     0.88200   0.30790   0.00490   0.01267  Uiso   1.00
H13    H     0.90340   0.39680   0.83640   0.01267  Uiso   1.00
H14    H     0.04360   0.41480   0.98240   0.01267  Uiso   1.00
H15    H     0.12850   0.53240   0.69300   0.01267  Uiso   1.00
H16    H     0.69330   0.05750   0.32270   0.01267  Uiso   1.00
H17    H     0.80520   0.00490   0.30790   0.01267  Uiso   1.00
H18    H     0.86340   0.83640   0.39680   0.01267  Uiso   1.00
H19    H     0.55920   0.98240   0.41480   0.01267  Uiso   1.00
H20    H     0.64610   0.69300   0.53240   0.01267  Uiso   1.00
H21    H     0.42650   0.55750   0.82270   0.01267  Uiso   1.00
H22    H     0.38200   0.50490   0.80790   0.01267  Uiso   1.00
H23    H     0.40340   0.33640   0.89680   0.01267  Uiso   1.00
H24    H     0.54360   0.48240   0.91480   0.01267  Uiso   1.00
H25    H     0.62850   0.19300   0.03240   0.01267  Uiso   1.00
H26    H     0.19330   0.82270   0.55750   0.01267  Uiso   1.00
H27    H     0.30520   0.80790   0.50490   0.01267  Uiso   1.00
H28    H     0.36340   0.89680   0.33640   0.01267  Uiso   1.00
H29    H     0.05920   0.91480   0.48240   0.01267  Uiso   1.00
H30    H     0.14610   0.03240   0.19300   0.01267  Uiso   1.00
H31    H     0.07350   0.67730   0.94250   0.01267  Uiso   1.00
H32    H     0.11800   0.69210   0.99510   0.01267  Uiso   1.00
H33    H     0.09660   0.60320   0.16360   0.01267  Uiso   1.00
H34    H     0.95640   0.58520   0.01760   0.01267  Uiso   1.00
H35    H     0.87150   0.46760   0.30700   0.01267  Uiso   1.00
H36    H     0.30670   0.94250   0.67730   0.01267  Uiso   1.00
H37    H     0.19480   0.99510   0.69210   0.01267  Uiso   1.00
H38    H     0.13660   0.16360   0.60320   0.01267  Uiso   1.00
H39    H     0.44080   0.01760   0.58520   0.01267  Uiso   1.00
H40    H     0.35390   0.30700   0.46760   0.01267  Uiso   1.00
H41    H     0.21980   0.04340   0.95660   0.01267  Uiso   1.00
H42    H     0.09520   0.12480   0.87520   0.01267  Uiso   1.00
H43    H     0.11890   0.26300   0.73700   0.01267  Uiso   1.00
H44    H     0.25900   0.31100   0.68900   0.01267  Uiso   1.00
H45    H     0.38110   0.22300   0.77700   0.01267  Uiso   1.00
H46    H     0.78020   0.95660   0.04340   0.01267  Uiso   1.00
H47    H     0.90480   0.87520   0.12480   0.01267  Uiso   1.00
H48    H     0.88110   0.73700   0.26300   0.01267  Uiso   1.00
H49    H     0.74100   0.68900   0.31100   0.01267  Uiso   1.00
H50    H     0.61890   0.77700   0.22300   0.01267  Uiso   1.00
H51    H     0.28020   0.54340   0.45660   0.01267  Uiso   1.00
H52    H     0.40480   0.62480   0.37520   0.01267  Uiso   1.00
H53    H     0.38110   0.76300   0.23700   0.01267  Uiso   1.00
H54    H     0.24100   0.81100   0.18900   0.01267  Uiso   1.00
H55    H     0.11890   0.72300   0.27700   0.01267  Uiso   1.00
H56    H     0.71980   0.45660   0.54340   0.01267  Uiso   1.00
H57    H     0.59520   0.37520   0.62480   0.01267  Uiso   1.00
H58    H     0.61890   0.23700   0.76300   0.01267  Uiso   1.00
H59    H     0.75900   0.18900   0.81100   0.01267  Uiso   1.00
H60    H     0.88110   0.27700   0.72300   0.01267  Uiso   1.00
C1     C     0.32590   0.66160   0.98380   0.01267  Uiso   1.00
C2     C     0.48690   0.75010   0.03190   0.01267  Uiso   1.00
C3     C     0.54810   0.66330   0.08170   0.01267  Uiso   1.00
C4     C     0.53890   0.57700   0.10000   0.01267  Uiso   1.00
C5     C     0.46500   0.57580   0.07060   0.01267  Uiso   1.00
C6     C     0.40340   0.66150   0.01950   0.01267  Uiso   1.00
C7     C     0.41360   0.74950   0.00070   0.01267  Uiso   1.00
C8     C     0.49470   0.84420   0.01520   0.01267  Uiso   1.00
C9     C     0.02870   0.98380   0.66160   0.01267  Uiso   1.00
C10    C     0.73110   0.03190   0.75010   0.01267  Uiso   1.00
C11    C     0.70690   0.08170   0.66330   0.01267  Uiso   1.00
C12    C     0.78410   0.10000   0.57700   0.01267  Uiso   1.00
C13    C     0.88860   0.07060   0.57580   0.01267  Uiso   1.00
C14    C     0.91560   0.01950   0.66150   0.01267  Uiso   1.00
C15    C     0.83620   0.00070   0.74950   0.01267  Uiso   1.00
C16    C     0.64590   0.01520   0.84420   0.01267  Uiso   1.00
C17    C     0.17410   0.51620   0.83840   0.01267  Uiso   1.00
C18    C     0.01310   0.46810   0.74990   0.01267  Uiso   1.00
C19    C     0.95190   0.41830   0.83670   0.01267  Uiso   1.00
C20    C     0.96110   0.40000   0.92300   0.01267  Uiso   1.00
C21    C     0.03500   0.42940   0.92420   0.01267  Uiso   1.00
C22    C     0.09660   0.48050   0.83850   0.01267  Uiso   1.00
C23    C     0.08640   0.49930   0.75050   0.01267  Uiso   1.00
C24    C     0.00530   0.48480   0.65580   0.01267  Uiso   1.00
C25    C     0.47130   0.83840   0.51620   0.01267  Uiso   1.00
C26    C     0.76890   0.74990   0.46810   0.01267  Uiso   1.00
C27    C     0.79310   0.83670   0.41830   0.01267  Uiso   1.00
C28    C     0.71590   0.92300   0.40000   0.01267  Uiso   1.00
C29    C     0.61140   0.92420   0.42940   0.01267  Uiso   1.00
C30    C     0.58440   0.83850   0.48050   0.01267  Uiso   1.00
C31    C     0.66380   0.75050   0.49930   0.01267  Uiso   1.00
C32    C     0.85410   0.65580   0.48480   0.01267  Uiso   1.00
C33    C     0.67410   0.33840   0.01620   0.01267  Uiso   1.00
C34    C     0.51310   0.24990   0.96810   0.01267  Uiso   1.00
C35    C     0.45190   0.33670   0.91830   0.01267  Uiso   1.00
C36    C     0.46110   0.42300   0.90000   0.01267  Uiso   1.00
C37    C     0.53500   0.42420   0.92940   0.01267  Uiso   1.00
C38    C     0.59660   0.33850   0.98050   0.01267  Uiso   1.00
C39    C     0.58640   0.25050   0.99930   0.01267  Uiso   1.00
C40    C     0.50530   0.15580   0.98480   0.01267  Uiso   1.00
C41    C     0.97130   0.01620   0.33840   0.01267  Uiso   1.00
C42    C     0.26890   0.96810   0.24990   0.01267  Uiso   1.00
C43    C     0.29310   0.91830   0.33670   0.01267  Uiso   1.00
C44    C     0.21590   0.90000   0.42300   0.01267  Uiso   1.00
C45    C     0.11140   0.92940   0.42420   0.01267  Uiso   1.00
C46    C     0.08440   0.98050   0.33850   0.01267  Uiso   1.00
C47    C     0.16380   0.99930   0.25050   0.01267  Uiso   1.00
C48    C     0.35410   0.98480   0.15580   0.01267  Uiso   1.00
C49    C     0.82590   0.48380   0.16160   0.01267  Uiso   1.00
C50    C     0.98690   0.53190   0.25010   0.01267  Uiso   1.00
C51    C     0.04810   0.58170   0.16330   0.01267  Uiso   1.00
C52    C     0.03890   0.60000   0.07700   0.01267  Uiso   1.00
C53    C     0.96500   0.57060   0.07580   0.01267  Uiso   1.00
C54    C     0.90340   0.51950   0.16150   0.01267  Uiso   1.00
C55    C     0.91360   0.50070   0.24950   0.01267  Uiso   1.00
C56    C     0.99470   0.51520   0.34420   0.01267  Uiso   1.00
C57    C     0.52870   0.16160   0.48380   0.01267  Uiso   1.00
C58    C     0.23110   0.25010   0.53190   0.01267  Uiso   1.00
C59    C     0.20690   0.16330   0.58170   0.01267  Uiso   1.00
C60    C     0.28410   0.07700   0.60000   0.01267  Uiso   1.00
C61    C     0.38860   0.07580   0.57060   0.01267  Uiso   1.00
C62    C     0.41560   0.16150   0.51950   0.01267  Uiso   1.00
C63    C     0.33620   0.24950   0.50070   0.01267  Uiso   1.00
C64    C     0.14590   0.34420   0.51520   0.01267  Uiso   1.00
C65    C     0.22840   0.09810   0.90190   0.01267  Uiso   1.00
C66    C     0.15380   0.14590   0.85410   0.01267  Uiso   1.00
C67    C     0.16850   0.22850   0.77150   0.01267  Uiso   1.00
C68    C     0.24880   0.25640   0.74360   0.01267  Uiso   1.00
C69    C     0.32230   0.20230   0.79770   0.01267  Uiso   1.00
C70    C     0.77160   0.90190   0.09810   0.01267  Uiso   1.00
C71    C     0.84620   0.85410   0.14590   0.01267  Uiso   1.00
C72    C     0.83150   0.77150   0.22850   0.01267  Uiso   1.00
C73    C     0.75120   0.74360   0.25640   0.01267  Uiso   1.00
C74    C     0.67770   0.79770   0.20230   0.01267  Uiso   1.00
C75    C     0.27160   0.59810   0.40190   0.01267  Uiso   1.00
C76    C     0.34620   0.64590   0.35410   0.01267  Uiso   1.00
C77    C     0.33150   0.72850   0.27150   0.01267  Uiso   1.00
C78    C     0.25120   0.75640   0.24360   0.01267  Uiso   1.00
C79    C     0.17770   0.70230   0.29770   0.01267  Uiso   1.00
C80    C     0.72840   0.40190   0.59810   0.01267  Uiso   1.00
C81    C     0.65380   0.35410   0.64590   0.01267  Uiso   1.00
C82    C     0.66850   0.27150   0.72850   0.01267  Uiso   1.00
C83    C     0.74880   0.24360   0.75640   0.01267  Uiso   1.00
C84    C     0.82230   0.29770   0.70230   0.01267  Uiso   1.00
N1     N     0.60660   0.48850   0.14710   0.01267  Uiso   1.00
N2     N     0.75780   0.14710   0.48850   0.01267  Uiso   1.00
N3     N     0.89340   0.35290   0.01150   0.01267  Uiso   1.00
N4     N     0.74220   0.01150   0.35290   0.01267  Uiso   1.00
N5     N     0.39340   0.51150   0.85290   0.01267  Uiso   1.00
N6     N     0.24220   0.85290   0.51150   0.01267  Uiso   1.00
N7     N     0.10660   0.64710   0.98850   0.01267  Uiso   1.00
N8     N     0.25780   0.98850   0.64710   0.01267  Uiso   1.00
N9     N     0.31350   0.12610   0.87390   0.01267  Uiso   1.00
N10    N     0.68650   0.87390   0.12610   0.01267  Uiso   1.00
N11    N     0.18650   0.62610   0.37390   0.01267  Uiso   1.00
N12    N     0.81350   0.37390   0.62610   0.01267  Uiso   1.00
O1     O     0.32280   0.58270   0.99730   0.01267  Uiso   1.00
O2     O     0.43780   0.91910   0.97130   0.01267  Uiso   1.00
O3     O     0.55840   0.83950   0.04970   0.01267  Uiso   1.00
O4     O     0.26800   0.73930   0.94270   0.01267  Uiso   1.00
O5     O     0.09720   0.99730   0.58270   0.01267  Uiso   1.00
O6     O     0.67180   0.97130   0.91910   0.01267  Uiso   1.00
O7     O     0.55240   0.04970   0.83950   0.01267  Uiso   1.00
O8     O     0.05000   0.94270   0.73930   0.01267  Uiso   1.00
O9     O     0.17720   0.50270   0.91730   0.01267  Uiso   1.00
O10    O     0.06220   0.52870   0.58090   0.01267  Uiso   1.00
O11    O     0.94160   0.45030   0.66050   0.01267  Uiso   1.00
O12    O     0.23200   0.55730   0.76070   0.01267  Uiso   1.00
O13    O     0.40280   0.91730   0.50270   0.01267  Uiso   1.00
O14    O     0.82820   0.58090   0.52870   0.01267  Uiso   1.00
O15    O     0.94760   0.66050   0.45030   0.01267  Uiso   1.00
O16    O     0.45000   0.76070   0.55730   0.01267  Uiso   1.00
O17    O     0.67720   0.41730   0.00270   0.01267  Uiso   1.00
O18    O     0.56220   0.08090   0.02870   0.01267  Uiso   1.00
O19    O     0.44160   0.16050   0.95030   0.01267  Uiso   1.00
O20    O     0.73200   0.26070   0.05730   0.01267  Uiso   1.00
O21    O     0.90280   0.00270   0.41730   0.01267  Uiso   1.00
O22    O     0.32820   0.02870   0.08090   0.01267  Uiso   1.00
O23    O     0.44760   0.95030   0.16050   0.01267  Uiso   1.00
O24    O     0.95000   0.05730   0.26070   0.01267  Uiso   1.00
O25    O     0.82280   0.49730   0.08270   0.01267  Uiso   1.00
O26    O     0.93780   0.47130   0.41910   0.01267  Uiso   1.00
O27    O     0.05840   0.54970   0.33950   0.01267  Uiso   1.00
O28    O     0.76800   0.44270   0.23930   0.01267  Uiso   1.00
O29    O     0.59720   0.08270   0.49730   0.01267  Uiso   1.00
O30    O     0.17180   0.41910   0.47130   0.01267  Uiso   1.00
O31    O     0.05240   0.33950   0.54970   0.01267  Uiso   1.00
O32    O     0.55000   0.23930   0.44270   0.01267  Uiso   1.00
