data_CIWYUD_clean
_audit_creation_date              2014-07-02
_audit_creation_method            'Materials Studio'
_symmetry_space_group_name_H-M    'P1'
_symmetry_Int_Tables_number       1
_symmetry_cell_setting            triclinic
loop_
_symmetry_equiv_pos_as_xyz
  x,y,z
_cell_length_a                    11.1389
_cell_length_b                    11.2652
_cell_length_c                    11.4139
_cell_angle_alpha                 76.3800
_cell_angle_beta                  66.3690
_cell_angle_gamma                 78.9640
loop_
_atom_site_label
_atom_site_type_symbol
_atom_site_fract_x
_atom_site_fract_y
_atom_site_fract_z
_atom_site_U_iso_or_equiv
_atom_site_adp_type
_atom_site_occupancy
Co1    Co    0.47058   0.42902   0.28981   0.01267  Uiso   1.00
Co2    Co    0.60624   0.39083   0.49959   0.01267  Uiso   1.00
Co3    Co    0.49522   0.35896   0.00924   0.01267  Uiso   1.00
Co4    Co    0.52942   0.57098   0.71019   0.01267  Uiso   1.00
Co5    Co    0.39376   0.60917   0.50041   0.01267  Uiso   1.00
Co6    Co    0.50478   0.64104   0.99076   0.01267  Uiso   1.00
H1     H     0.04490   0.41710   0.13950   0.01267  Uiso   1.00
H2     H     0.07710   0.35860   0.49130   0.01267  Uiso   1.00
H3     H     0.85340   0.33890   0.58810   0.01267  Uiso   1.00
H4     H     0.32420   0.87010   0.58850   0.01267  Uiso   1.00
H5     H     0.36140   0.07290   0.49190   0.01267  Uiso   1.00
H6     H     0.52890   0.96490   0.14260   0.01267  Uiso   1.00
H7     H     0.95510   0.58290   0.86050   0.01267  Uiso   1.00
H8     H     0.92290   0.64140   0.50870   0.01267  Uiso   1.00
H9     H     0.14660   0.66110   0.41190   0.01267  Uiso   1.00
H10    H     0.67580   0.12990   0.41150   0.01267  Uiso   1.00
H11    H     0.63860   0.92710   0.50810   0.01267  Uiso   1.00
H12    H     0.47110   0.03510   0.85740   0.01267  Uiso   1.00
C1     C     0.78070   0.41410   0.22580   0.01267  Uiso   1.00
C2     C     0.87340   0.39470   0.29690   0.01267  Uiso   1.00
C3     C     0.00740   0.40230   0.23170   0.01267  Uiso   1.00
C4     C     0.08630   0.38770   0.30470   0.01267  Uiso   1.00
C5     C     0.02660   0.36670   0.43910   0.01267  Uiso   1.00
C6     C     0.89270   0.35770   0.49610   0.01267  Uiso   1.00
C7     C     0.23130   0.40070   0.23890   0.01267  Uiso   1.00
C8     C     0.36630   0.88980   0.49670   0.01267  Uiso   1.00
C9     C     0.38910   0.01080   0.44000   0.01267  Uiso   1.00
C10    C     0.45280   0.03960   0.30680   0.01267  Uiso   1.00
C11    C     0.48540   0.16990   0.24240   0.01267  Uiso   1.00
C12    C     0.48730   0.94720   0.23450   0.01267  Uiso   1.00
C13    C     0.46040   0.82710   0.29810   0.01267  Uiso   1.00
C14    C     0.48950   0.72400   0.22640   0.01267  Uiso   1.00
C15    C     0.21930   0.58590   0.77420   0.01267  Uiso   1.00
C16    C     0.12660   0.60530   0.70310   0.01267  Uiso   1.00
C17    C     0.99260   0.59770   0.76830   0.01267  Uiso   1.00
C18    C     0.91370   0.61230   0.69530   0.01267  Uiso   1.00
C19    C     0.97340   0.63330   0.56090   0.01267  Uiso   1.00
C20    C     0.10730   0.64230   0.50390   0.01267  Uiso   1.00
C21    C     0.76870   0.59930   0.76110   0.01267  Uiso   1.00
C22    C     0.63370   0.11020   0.50330   0.01267  Uiso   1.00
C23    C     0.61090   0.98920   0.56000   0.01267  Uiso   1.00
C24    C     0.54720   0.96040   0.69320   0.01267  Uiso   1.00
C25    C     0.51460   0.83010   0.75760   0.01267  Uiso   1.00
C26    C     0.51270   0.05280   0.76550   0.01267  Uiso   1.00
C27    C     0.53960   0.17290   0.70190   0.01267  Uiso   1.00
C28    C     0.51050   0.27600   0.77360   0.01267  Uiso   1.00
N1     N     0.81590   0.37410   0.42750   0.01267  Uiso   1.00
N2     N     0.40130   0.80050   0.42740   0.01267  Uiso   1.00
N3     N     0.18410   0.62590   0.57250   0.01267  Uiso   1.00
N4     N     0.59870   0.19950   0.57260   0.01267  Uiso   1.00
O1     O     0.65950   0.40510   0.30120   0.01267  Uiso   1.00
O2     O     0.82150   0.43420   0.10750   0.01267  Uiso   1.00
O3     O     0.29300   0.36060   0.13480   0.01267  Uiso   1.00
O4     O     0.27680   0.45320   0.29590   0.01267  Uiso   1.00
O5     O     0.52900   0.19210   0.12120   0.01267  Uiso   1.00
O6     O     0.46320   0.24260   0.31750   0.01267  Uiso   1.00
O7     O     0.54250   0.74240   0.10510   0.01267  Uiso   1.00
O8     O     0.45450   0.62280   0.29860   0.01267  Uiso   1.00
O9     O     0.41830   0.42490   0.48830   0.01267  Uiso   1.00
O10    O     0.54940   0.47050   0.09470   0.01267  Uiso   1.00
O11    O     0.34050   0.59490   0.69880   0.01267  Uiso   1.00
O12    O     0.17850   0.56580   0.89250   0.01267  Uiso   1.00
O13    O     0.70700   0.63940   0.86520   0.01267  Uiso   1.00
O14    O     0.72320   0.54680   0.70410   0.01267  Uiso   1.00
O15    O     0.47100   0.80790   0.87880   0.01267  Uiso   1.00
O16    O     0.53680   0.75740   0.68250   0.01267  Uiso   1.00
O17    O     0.45750   0.25760   0.89490   0.01267  Uiso   1.00
O18    O     0.54550   0.37720   0.70140   0.01267  Uiso   1.00
O19    O     0.58170   0.57510   0.51170   0.01267  Uiso   1.00
O20    O     0.45060   0.52950   0.90530   0.01267  Uiso   1.00
