data_image0
_cell_length_a       6.595
_cell_length_b       9.1653
_cell_length_c       14.1958
_cell_angle_alpha    85.873
_cell_angle_beta     82.166
_cell_angle_gamma    74.734

_symmetry_space_group_name_H-M    "P 1"
_symmetry_int_tables_number       1

loop_
  _symmetry_equiv_pos_as_xyz
  'x, y, z'

loop_
  _atom_site_label
  _atom_site_occupancy
  _atom_site_fract_x
  _atom_site_fract_y
  _atom_site_fract_z
  _atom_site_thermal_displace_type
  _atom_site_B_iso_or_equiv
  _atom_site_type_symbol
  C1       1.0000 0.22460  0.75500  0.19290  Biso   1.000  C
  C2       1.0000 0.56500  0.07490  0.17170  Biso   1.000  C
  C3       1.0000 0.65330  0.90540  0.18760  Biso   1.000  C
  C4       1.0000 0.69240  0.83990  0.27720  Biso   1.000  C
  C5       1.0000 0.67370  0.92590  0.36420  Biso   1.000  C
  C6       1.0000 0.75750  0.68320  0.28620  Biso   1.000  C
  H1       1.0000 0.78890  0.63730  0.34650  Biso   1.000  H
  C7       1.0000 0.77790  0.59170  0.21040  Biso   1.000  C
  C8       1.0000 0.84450  0.42350  0.23480  Biso   1.000  C
  C9       1.0000 0.74010  0.65660  0.12080  Biso   1.000  C
  C10      1.0000 0.73500  0.56810  0.03610  Biso   1.000  C
  C11      1.0000 0.68160  0.81650  0.10970  Biso   1.000  C
  H2       1.0000 0.66170  0.86290  0.04840  Biso   1.000  H
  Cd1      1.0000 0.41306  0.38552  0.16468  Biso   1.000  Cd
  Cd2      1.0000 0.05851  0.11128  0.27540  Biso   1.000  Cd
  Cd3      1.0000 0.24604  0.87754  0.48855  Biso   1.000  Cd
  N1       1.0000 0.21010  0.79100  0.10110  Biso   1.000  N
  H3       1.0000 0.16960  0.88660  0.08200  Biso   1.000  H
  H4       1.0000 0.24100  0.71930  0.05950  Biso   1.000  H
  N2       1.0000 0.18170  0.85430  0.26310  Biso   1.000  N
  N3       1.0000 0.21470  0.76850  0.34480  Biso   1.000  N
  N4       1.0000 0.27300  0.62560  0.32570  Biso   1.000  N
  N5       1.0000 0.28180  0.61200  0.23110  Biso   1.000  N
  O1       1.0000 0.41200  0.14360  0.23140  Biso   1.000  O
  O2       1.0000 0.64080  0.14180  0.10160  Biso   1.000  O
  O3       1.0000 0.74430  0.04220  0.35930  Biso   1.000  O
  O4       1.0000 0.59440  0.87330  0.44120  Biso   1.000  O
  O5       1.0000 0.70500  0.34930  0.25190  Biso   1.000  O
  O6       1.0000 0.03400  0.36460  0.24610  Biso   1.000  O
  O7       1.0000 0.68690  0.44460  0.05090  Biso   1.000  O
  O8       1.0000 0.77670  0.62670  0.95390  Biso   1.000  O
  O9       1.0000 0.08390  0.10590  0.42990  Biso   1.000  O
  H5       1.0000 0.15830  0.16420  0.43860  Biso   1.000  H
  C12      1.0000 0.77540  0.24500  0.80710  Biso   1.000  C
  C13      1.0000 0.43500  0.92510  0.82830  Biso   1.000  C
  C14      1.0000 0.34670  0.09460  0.81240  Biso   1.000  C
  C15      1.0000 0.30760  0.16010  0.72280  Biso   1.000  C
  C16      1.0000 0.32630  0.07410  0.63580  Biso   1.000  C
  C17      1.0000 0.24250  0.31680  0.71380  Biso   1.000  C
  H6       1.0000 0.21110  0.36270  0.65350  Biso   1.000  H
  C18      1.0000 0.22210  0.40830  0.78960  Biso   1.000  C
  C19      1.0000 0.15550  0.57650  0.76520  Biso   1.000  C
  C20      1.0000 0.25990  0.34340  0.87920  Biso   1.000  C
  C21      1.0000 0.26500  0.43190  0.96390  Biso   1.000  C
  C22      1.0000 0.31840  0.18350  0.89030  Biso   1.000  C
  H7       1.0000 0.33830  0.13710  0.95160  Biso   1.000  H
  Cd4      1.0000 0.58694  0.61448  0.83532  Biso   1.000  Cd
  Cd5      1.0000 0.94149  0.88872  0.72460  Biso   1.000  Cd
  Cd6      1.0000 0.75396  0.12246  0.51145  Biso   1.000  Cd
  N6       1.0000 0.78990  0.20900  0.89890  Biso   1.000  N
  H8       1.0000 0.83040  0.11340  0.91800  Biso   1.000  H
  H9       1.0000 0.75900  0.28070  0.94050  Biso   1.000  H
  N7       1.0000 0.81830  0.14570  0.73690  Biso   1.000  N
  N8       1.0000 0.78530  0.23150  0.65520  Biso   1.000  N
  N9       1.0000 0.72700  0.37440  0.67430  Biso   1.000  N
  N10      1.0000 0.71820  0.38800  0.76890  Biso   1.000  N
  O10      1.0000 0.58800  0.85640  0.76860  Biso   1.000  O
  O11      1.0000 0.35920  0.85820  0.89840  Biso   1.000  O
  O12      1.0000 0.25570  0.95780  0.64070  Biso   1.000  O
  O13      1.0000 0.40560  0.12670  0.55880  Biso   1.000  O
  O14      1.0000 0.29500  0.65070  0.74810  Biso   1.000  O
  O15      1.0000 0.96600  0.63540  0.75390  Biso   1.000  O
  O16      1.0000 0.31310  0.55540  0.94910  Biso   1.000  O
  O17      1.0000 0.22330  0.37330  0.04610  Biso   1.000  O
  O18      1.0000 0.91610  0.89410  0.57010  Biso   1.000  O
  H10      1.0000 0.84170  0.83580  0.56140  Biso   1.000  H
