data_CIZMIJ_clean
_audit_creation_date              2015-10-16
_audit_creation_method            'Materials Studio'
_symmetry_space_group_name_H-M    'P1'
_symmetry_Int_Tables_number       1
_symmetry_cell_setting            triclinic
loop_
_symmetry_equiv_pos_as_xyz
  x,y,z
_cell_length_a                    7.5481
_cell_length_b                    10.8878
_cell_length_c                    19.0460
_cell_angle_alpha                 79.9480
_cell_angle_beta                  79.5700
_cell_angle_gamma                 73.0770
loop_
_atom_site_label
_atom_site_type_symbol
_atom_site_fract_x
_atom_site_fract_y
_atom_site_fract_z
_atom_site_U_iso_or_equiv
_atom_site_adp_type
_atom_site_occupancy
Zn1    Zn    0.39281   0.78440   0.45164   0.01267  Uiso   1.00
Zn2    Zn    0.71636   0.28664   0.96788   0.01267  Uiso   1.00
H1     H     0.05330   0.55740   0.65330   0.01267  Uiso   1.00
H2     H     0.22930   0.33270   0.18330   0.01267  Uiso   1.00
H3     H     0.35820   0.24650   0.55100   0.01267  Uiso   1.00
H4     H     0.45210   0.55300   0.02290   0.01267  Uiso   1.00
H5     H     0.82940   0.59730   0.47560   0.01267  Uiso   1.00
H6     H     0.45820   0.00360   0.85520   0.01267  Uiso   1.00
H7     H     0.11340   0.50600   0.24100   0.01267  Uiso   1.00
H8     H     0.08240   0.56690   0.37170   0.01267  Uiso   1.00
H9     H     0.60010   0.70950   0.58600   0.01267  Uiso   1.00
H10    H     0.21720   0.72540   0.05300   0.01267  Uiso   1.00
H11    H     0.28130   0.96960   0.05530   0.01267  Uiso   1.00
H12    H     0.36280   0.40260   0.72730   0.01267  Uiso   1.00
H13    H     0.61850   0.85520   0.66870   0.01267  Uiso   1.00
H14    H     0.49390   0.01410   0.73150   0.01267  Uiso   1.00
H15    H     0.57260   0.03880   0.95920   0.01267  Uiso   1.00
H16    H     0.13600   0.16720   0.98000   0.01267  Uiso   1.00
H17    H     0.61710   0.78670   0.30140   0.01267  Uiso   1.00
H18    H     0.74120   0.01510   0.08390   0.01267  Uiso   1.00
H19    H     0.86040   0.89040   0.21580   0.01267  Uiso   1.00
H20    H     0.56400   0.34330   0.81880   0.01267  Uiso   1.00
H21    H     0.50520   0.47730   0.51420   0.01267  Uiso   1.00
H22    H     0.33140   0.06090   0.51280   0.01267  Uiso   1.00
H23    H     0.45480   0.19340   0.10460   0.01267  Uiso   1.00
H24    H     0.05120   0.74380   0.55930   0.01267  Uiso   1.00
C1     C     0.18610   0.59810   0.14310   0.01267  Uiso   1.00
C2     C     0.39800   0.99110   0.54170   0.01267  Uiso   1.00
C3     C     0.95890   0.61530   0.37030   0.01267  Uiso   1.00
C4     C     0.55230   0.26240   0.84120   0.01267  Uiso   1.00
C5     C     0.42580   0.48090   0.05220   0.01267  Uiso   1.00
C6     C     0.45750   0.09700   0.70690   0.01267  Uiso   1.00
C7     C     0.97840   0.69600   0.24040   0.01267  Uiso   1.00
C8     C     0.81730   0.63050   0.42770   0.01267  Uiso   1.00
C9     C     0.30170   0.35910   0.14160   0.01267  Uiso   1.00
C10    C     0.15880   0.71850   0.10030   0.01267  Uiso   1.00
C11    C     0.35160   0.34110   0.63360   0.01267  Uiso   1.00
C12    C     0.42510   0.28340   0.09800   0.01267  Uiso   1.00
C13    C     0.42520   0.11410   0.63570   0.01267  Uiso   1.00
C14    C     0.54750   0.79860   0.58180   0.01267  Uiso   1.00
C15    C     0.55680   0.87840   0.62830   0.01267  Uiso   1.00
C16    C     0.69970   0.73560   0.33250   0.01267  Uiso   1.00
C17    C     0.14310   0.56260   0.61330   0.01267  Uiso   1.00
C18    C     0.04400   0.82670   0.12920   0.01267  Uiso   1.00
C19    C     0.94530   0.81800   0.19820   0.01267  Uiso   1.00
C20    C     0.49120   0.07710   0.86050   0.01267  Uiso   1.00
C21    C     0.37560   0.23530   0.59910   0.01267  Uiso   1.00
C22    C     0.38970   0.52110   0.53670   0.01267  Uiso   1.00
C23    C     0.09570   0.58640   0.21290   0.01267  Uiso   1.00
C24    C     0.07320   0.11260   0.01090   0.01267  Uiso   1.00
C25    C     0.15450   0.00190   0.05150   0.01267  Uiso   1.00
C26    C     0.14490   0.66630   0.56150   0.01267  Uiso   1.00
C27    C     0.37990   0.32990   0.70480   0.01267  Uiso   1.00
C28    C     0.55830   0.09590   0.91690   0.01267  Uiso   1.00
C29    C     0.85780   0.02970   0.06680   0.01267  Uiso   1.00
C30    C     0.43490   0.20520   0.74100   0.01267  Uiso   1.00
N1     N     0.01970   0.94850   0.08480   0.01267  Uiso   1.00
N2     N     0.45390   0.00250   0.60250   0.01267  Uiso   1.00
N3     N     0.60230   0.21030   0.90310   0.01267  Uiso   1.00
N4     N     0.65260   0.70450   0.40130   0.01267  Uiso   1.00
N5     N     0.50550   0.35870   0.03970   0.01267  Uiso   1.00
N6     N     0.30130   0.48570   0.11330   0.01267  Uiso   1.00
N7     N     0.88370   0.68380   0.31230   0.01267  Uiso   1.00
N8     N     0.44650   0.87220   0.52710   0.01267  Uiso   1.00
N9     N     0.30120   0.64020   0.51440   0.01267  Uiso   1.00
N10    N     0.48060   0.18480   0.81270   0.01267  Uiso   1.00
N11    N     0.29730   0.46990   0.59450   0.01267  Uiso   1.00
N12    N     0.88270   0.13060   0.02290   0.01267  Uiso   1.00
