data_image0
_cell_length_a       18.4898
_cell_length_b       18.4898
_cell_length_c       38.7266
_cell_angle_alpha    90
_cell_angle_beta     90
_cell_angle_gamma    120

_symmetry_space_group_name_H-M    "P 1"
_symmetry_int_tables_number       1

loop_
  _symmetry_equiv_pos_as_xyz
  'x, y, z'

loop_
  _atom_site_label
  _atom_site_occupancy
  _atom_site_fract_x
  _atom_site_fract_y
  _atom_site_fract_z
  _atom_site_thermal_displace_type
  _atom_site_B_iso_or_equiv
  _atom_site_type_symbol
  O1       1.0000 0.44360  0.14800  0.16927  Biso   1.000  O
  O2       1.0000 0.36250  0.10700  0.12210  Biso   1.000  O
  C1       1.0000 0.42490  0.11890  0.13910  Biso   1.000  C
  C2       1.0000 0.48380  0.09670  0.12229  Biso   1.000  C
  C3       1.0000 0.46850  0.06660  0.08830  Biso   1.000  C
  H1       1.0000 0.42020  0.05740  0.07700  Biso   1.000  H
  C4       1.0000 0.57690  0.06390  0.01090  Biso   1.000  C
  H2       1.0000 0.63200  0.11100  0.01300  Biso   1.000  H
  C5       1.0000 0.43850  0.96080  0.02390  Biso   1.000  C
  N1       1.0000 0.36100  0.90050  0.04790  Biso   1.000  N
  O3       1.0000 0.29480  0.88200  0.03910  Biso   1.000  O
  O4       1.0000 0.38000  0.88380  0.07420  Biso   1.000  O
  H3       1.0000 0.38170  0.92000  0.02910  Biso   1.000  H
  O5       1.0000 0.11027  0.48133  0.50260  Biso   1.000  O
  O6       1.0000 0.02917  0.44033  0.45543  Biso   1.000  O
  C6       1.0000 0.09157  0.45223  0.47243  Biso   1.000  C
  C7       1.0000 0.15047  0.43003  0.45562  Biso   1.000  C
  C8       1.0000 0.13517  0.39993  0.42163  Biso   1.000  C
  H4       1.0000 0.08687  0.39073  0.41033  Biso   1.000  H
  C9       1.0000 0.24357  0.39723  0.34423  Biso   1.000  C
  H5       1.0000 0.29867  0.44433  0.34633  Biso   1.000  H
  C10      1.0000 0.10517  0.29413  0.35723  Biso   1.000  C
  N2       1.0000 0.02767  0.23383  0.38123  Biso   1.000  N
  O7       1.0000 0.96147  0.21533  0.37243  Biso   1.000  O
  O8       1.0000 0.04667  0.21713  0.40753  Biso   1.000  O
  H6       1.0000 0.04837  0.25333  0.36243  Biso   1.000  H
  O9       1.0000 0.77693  0.81467  0.83594  Biso   1.000  O
  O10      1.0000 0.69583  0.77367  0.78877  Biso   1.000  O
  C11      1.0000 0.75823  0.78557  0.80577  Biso   1.000  C
  C12      1.0000 0.81713  0.76337  0.78896  Biso   1.000  C
  C13      1.0000 0.80183  0.73327  0.75497  Biso   1.000  C
  H7       1.0000 0.75353  0.72407  0.74367  Biso   1.000  H
  C14      1.0000 0.91023  0.73057  0.67757  Biso   1.000  C
  H8       1.0000 0.96533  0.77767  0.67967  Biso   1.000  H
  C15      1.0000 0.77183  0.62747  0.69057  Biso   1.000  C
  N3       1.0000 0.69433  0.56717  0.71457  Biso   1.000  N
  O11      1.0000 0.62813  0.54867  0.70577  Biso   1.000  O
  O12      1.0000 0.71333  0.55047  0.74087  Biso   1.000  O
  H9       1.0000 0.71503  0.58667  0.69577  Biso   1.000  H
  O13      1.0000 0.85200  0.29560  0.16927  Biso   1.000  O
  O14      1.0000 0.89300  0.25550  0.12210  Biso   1.000  O
  C16      1.0000 0.88110  0.30600  0.13910  Biso   1.000  C
  C17      1.0000 0.90330  0.38710  0.12229  Biso   1.000  C
  C18      1.0000 0.93340  0.40190  0.08830  Biso   1.000  C
  H10      1.0000 0.94260  0.36280  0.07700  Biso   1.000  H
  C19      1.0000 0.93610  0.51300  0.01090  Biso   1.000  C
  H11      1.0000 0.88900  0.52100  0.01300  Biso   1.000  H
  C20      1.0000 0.03920  0.47770  0.02390  Biso   1.000  C
  N4       1.0000 0.09950  0.46050  0.04790  Biso   1.000  N
  O15      1.0000 0.11800  0.41280  0.03910  Biso   1.000  O
  O16      1.0000 0.11620  0.49620  0.07420  Biso   1.000  O
  H12      1.0000 0.08000  0.46170  0.02910  Biso   1.000  H
  O17      1.0000 0.51867  0.62893  0.50260  Biso   1.000  O
  O18      1.0000 0.55967  0.58883  0.45543  Biso   1.000  O
  C21      1.0000 0.54777  0.63933  0.47243  Biso   1.000  C
  C22      1.0000 0.56997  0.72043  0.45562  Biso   1.000  C
  C23      1.0000 0.60007  0.73523  0.42163  Biso   1.000  C
  H13      1.0000 0.60927  0.69613  0.41033  Biso   1.000  H
  C24      1.0000 0.60277  0.84633  0.34423  Biso   1.000  C
  H14      1.0000 0.55567  0.85433  0.34633  Biso   1.000  H
  C25      1.0000 0.70587  0.81103  0.35723  Biso   1.000  C
  N5       1.0000 0.76617  0.79383  0.38123  Biso   1.000  N
  O19      1.0000 0.78467  0.74613  0.37243  Biso   1.000  O
  O20      1.0000 0.78287  0.82953  0.40753  Biso   1.000  O
  H15      1.0000 0.74667  0.79503  0.36243  Biso   1.000  H
  O21      1.0000 0.18533  0.96227  0.83594  Biso   1.000  O
  O22      1.0000 0.22633  0.92217  0.78877  Biso   1.000  O
  C26      1.0000 0.21443  0.97267  0.80577  Biso   1.000  C
  C27      1.0000 0.23663  0.05377  0.78896  Biso   1.000  C
  C28      1.0000 0.26673  0.06857  0.75497  Biso   1.000  C
  H16      1.0000 0.27593  0.02947  0.74367  Biso   1.000  H
  C29      1.0000 0.26943  0.17967  0.67757  Biso   1.000  C
  H17      1.0000 0.22233  0.18767  0.67967  Biso   1.000  H
  C30      1.0000 0.37253  0.14437  0.69057  Biso   1.000  C
  N6       1.0000 0.43283  0.12717  0.71457  Biso   1.000  N
  O23      1.0000 0.45133  0.07947  0.70577  Biso   1.000  O
  O24      1.0000 0.44953  0.16287  0.74087  Biso   1.000  O
  H18      1.0000 0.41333  0.12837  0.69577  Biso   1.000  H
  O25      1.0000 0.70440  0.55640  0.16927  Biso   1.000  O
  O26      1.0000 0.74450  0.63750  0.12210  Biso   1.000  O
  C31      1.0000 0.69400  0.57510  0.13910  Biso   1.000  C
  C32      1.0000 0.61290  0.51620  0.12229  Biso   1.000  C
  C33      1.0000 0.59810  0.53150  0.08830  Biso   1.000  C
  H19      1.0000 0.63720  0.57980  0.07700  Biso   1.000  H
  C34      1.0000 0.48700  0.42310  0.01090  Biso   1.000  C
  H20      1.0000 0.47900  0.36800  0.01300  Biso   1.000  H
  C35      1.0000 0.52230  0.56150  0.02390  Biso   1.000  C
  N7       1.0000 0.53950  0.63900  0.04790  Biso   1.000  N
  O27      1.0000 0.58720  0.70520  0.03910  Biso   1.000  O
  O28      1.0000 0.50380  0.62000  0.07420  Biso   1.000  O
  H21      1.0000 0.53830  0.61830  0.02910  Biso   1.000  H
  O29      1.0000 0.37107  0.88973  0.50260  Biso   1.000  O
  O30      1.0000 0.41117  0.97083  0.45543  Biso   1.000  O
  C36      1.0000 0.36067  0.90843  0.47243  Biso   1.000  C
  C37      1.0000 0.27957  0.84953  0.45562  Biso   1.000  C
  C38      1.0000 0.26477  0.86483  0.42163  Biso   1.000  C
  H22      1.0000 0.30387  0.91313  0.41033  Biso   1.000  H
  C39      1.0000 0.15367  0.75643  0.34423  Biso   1.000  C
  H23      1.0000 0.14567  0.70133  0.34633  Biso   1.000  H
  C40      1.0000 0.18897  0.89483  0.35723  Biso   1.000  C
  N8       1.0000 0.20617  0.97233  0.38123  Biso   1.000  N
  O31      1.0000 0.25387  0.03853  0.37243  Biso   1.000  O
  O32      1.0000 0.17047  0.95333  0.40753  Biso   1.000  O
  H24      1.0000 0.20497  0.95163  0.36243  Biso   1.000  H
  O33      1.0000 0.03773  0.22307  0.83594  Biso   1.000  O
  O34      1.0000 0.07783  0.30417  0.78877  Biso   1.000  O
  C41      1.0000 0.02733  0.24177  0.80577  Biso   1.000  C
  C42      1.0000 0.94623  0.18287  0.78896  Biso   1.000  C
  C43      1.0000 0.93143  0.19817  0.75497  Biso   1.000  C
  H25      1.0000 0.97053  0.24647  0.74367  Biso   1.000  H
  C44      1.0000 0.82033  0.08977  0.67757  Biso   1.000  C
  H26      1.0000 0.81233  0.03467  0.67967  Biso   1.000  H
  C45      1.0000 0.85563  0.22817  0.69057  Biso   1.000  C
  N9       1.0000 0.87283  0.30567  0.71457  Biso   1.000  N
  O35      1.0000 0.92053  0.37187  0.70577  Biso   1.000  O
  O36      1.0000 0.83713  0.28667  0.74087  Biso   1.000  O
  H27      1.0000 0.87163  0.28497  0.69577  Biso   1.000  H
  O37      1.0000 0.14800  0.44360  0.83073  Biso   1.000  O
  O38      1.0000 0.10700  0.36250  0.87790  Biso   1.000  O
  C46      1.0000 0.11890  0.42490  0.86090  Biso   1.000  C
  C47      1.0000 0.09670  0.48380  0.87771  Biso   1.000  C
  C48      1.0000 0.06660  0.46850  0.91170  Biso   1.000  C
  H28      1.0000 0.05740  0.42020  0.92300  Biso   1.000  H
  C49      1.0000 0.06390  0.57690  0.98910  Biso   1.000  C
  H29      1.0000 0.11100  0.63200  0.98700  Biso   1.000  H
  C50      1.0000 0.96080  0.43850  0.97610  Biso   1.000  C
  N10      1.0000 0.90050  0.36100  0.95210  Biso   1.000  N
  O39      1.0000 0.88200  0.29480  0.96090  Biso   1.000  O
  O40      1.0000 0.88380  0.38000  0.92580  Biso   1.000  O
  H30      1.0000 0.92000  0.38170  0.97090  Biso   1.000  H
  O41      1.0000 0.81467  0.77693  0.16406  Biso   1.000  O
  O42      1.0000 0.77367  0.69583  0.21123  Biso   1.000  O
  C51      1.0000 0.78557  0.75823  0.19423  Biso   1.000  C
  C52      1.0000 0.76337  0.81713  0.21104  Biso   1.000  C
  C53      1.0000 0.73327  0.80183  0.24503  Biso   1.000  C
  H31      1.0000 0.72407  0.75353  0.25633  Biso   1.000  H
  C54      1.0000 0.73057  0.91023  0.32243  Biso   1.000  C
  H32      1.0000 0.77767  0.96533  0.32033  Biso   1.000  H
  C55      1.0000 0.62747  0.77183  0.30943  Biso   1.000  C
  N11      1.0000 0.56717  0.69433  0.28543  Biso   1.000  N
  O43      1.0000 0.54867  0.62813  0.29423  Biso   1.000  O
  O44      1.0000 0.55047  0.71333  0.25913  Biso   1.000  O
  H33      1.0000 0.58667  0.71503  0.30423  Biso   1.000  H
  O45      1.0000 0.48133  0.11027  0.49740  Biso   1.000  O
  O46      1.0000 0.44033  0.02917  0.54457  Biso   1.000  O
  C56      1.0000 0.45223  0.09157  0.52757  Biso   1.000  C
  C57      1.0000 0.43003  0.15047  0.54438  Biso   1.000  C
  C58      1.0000 0.39993  0.13517  0.57837  Biso   1.000  C
  H34      1.0000 0.39073  0.08687  0.58967  Biso   1.000  H
  C59      1.0000 0.39723  0.24357  0.65577  Biso   1.000  C
  H35      1.0000 0.44433  0.29867  0.65367  Biso   1.000  H
  C60      1.0000 0.29413  0.10517  0.64277  Biso   1.000  C
  N12      1.0000 0.23383  0.02767  0.61877  Biso   1.000  N
  O47      1.0000 0.21533  0.96147  0.62757  Biso   1.000  O
  O48      1.0000 0.21713  0.04667  0.59247  Biso   1.000  O
  H36      1.0000 0.25333  0.04837  0.63757  Biso   1.000  H
  O49      1.0000 0.29560  0.85200  0.83073  Biso   1.000  O
  O50      1.0000 0.25550  0.89300  0.87790  Biso   1.000  O
  C61      1.0000 0.30600  0.88110  0.86090  Biso   1.000  C
  C62      1.0000 0.38710  0.90330  0.87771  Biso   1.000  C
  C63      1.0000 0.40190  0.93340  0.91170  Biso   1.000  C
  H37      1.0000 0.36280  0.94260  0.92300  Biso   1.000  H
  C64      1.0000 0.51300  0.93610  0.98910  Biso   1.000  C
  H38      1.0000 0.52100  0.88900  0.98700  Biso   1.000  H
  C65      1.0000 0.47770  0.03920  0.97610  Biso   1.000  C
  N13      1.0000 0.46050  0.09950  0.95210  Biso   1.000  N
  O51      1.0000 0.41280  0.11800  0.96090  Biso   1.000  O
  O52      1.0000 0.49620  0.11620  0.92580  Biso   1.000  O
  H39      1.0000 0.46170  0.08000  0.97090  Biso   1.000  H
  O53      1.0000 0.96227  0.18533  0.16406  Biso   1.000  O
  O54      1.0000 0.92217  0.22633  0.21123  Biso   1.000  O
  C66      1.0000 0.97267  0.21443  0.19423  Biso   1.000  C
  C67      1.0000 0.05377  0.23663  0.21104  Biso   1.000  C
  C68      1.0000 0.06857  0.26673  0.24503  Biso   1.000  C
  H40      1.0000 0.02947  0.27593  0.25633  Biso   1.000  H
  C69      1.0000 0.17967  0.26943  0.32243  Biso   1.000  C
  H41      1.0000 0.18767  0.22233  0.32033  Biso   1.000  H
  C70      1.0000 0.14437  0.37253  0.30943  Biso   1.000  C
  N14      1.0000 0.12717  0.43283  0.28543  Biso   1.000  N
  O55      1.0000 0.07947  0.45133  0.29423  Biso   1.000  O
  O56      1.0000 0.16287  0.44953  0.25913  Biso   1.000  O
  H42      1.0000 0.12837  0.41333  0.30423  Biso   1.000  H
  O57      1.0000 0.62893  0.51867  0.49740  Biso   1.000  O
  O58      1.0000 0.58883  0.55967  0.54457  Biso   1.000  O
  C71      1.0000 0.63933  0.54777  0.52757  Biso   1.000  C
  C72      1.0000 0.72043  0.56997  0.54438  Biso   1.000  C
  C73      1.0000 0.73523  0.60007  0.57837  Biso   1.000  C
  H43      1.0000 0.69613  0.60927  0.58967  Biso   1.000  H
  C74      1.0000 0.84633  0.60277  0.65577  Biso   1.000  C
  H44      1.0000 0.85433  0.55567  0.65367  Biso   1.000  H
  C75      1.0000 0.81103  0.70587  0.64277  Biso   1.000  C
  N15      1.0000 0.79383  0.76617  0.61877  Biso   1.000  N
  O59      1.0000 0.74613  0.78467  0.62757  Biso   1.000  O
  O60      1.0000 0.82953  0.78287  0.59247  Biso   1.000  O
  H45      1.0000 0.79503  0.74667  0.63757  Biso   1.000  H
  O61      1.0000 0.55640  0.70440  0.83073  Biso   1.000  O
  O62      1.0000 0.63750  0.74450  0.87790  Biso   1.000  O
  C76      1.0000 0.57510  0.69400  0.86090  Biso   1.000  C
  C77      1.0000 0.51620  0.61290  0.87771  Biso   1.000  C
  C78      1.0000 0.53150  0.59810  0.91170  Biso   1.000  C
  H46      1.0000 0.57980  0.63720  0.92300  Biso   1.000  H
  C79      1.0000 0.42310  0.48700  0.98910  Biso   1.000  C
  H47      1.0000 0.36800  0.47900  0.98700  Biso   1.000  H
  C80      1.0000 0.56150  0.52230  0.97610  Biso   1.000  C
  N16      1.0000 0.63900  0.53950  0.95210  Biso   1.000  N
  O63      1.0000 0.70520  0.58720  0.96090  Biso   1.000  O
  O64      1.0000 0.62000  0.50380  0.92580  Biso   1.000  O
  H48      1.0000 0.61830  0.53830  0.97090  Biso   1.000  H
  O65      1.0000 0.22307  0.03773  0.16406  Biso   1.000  O
  O66      1.0000 0.30417  0.07783  0.21123  Biso   1.000  O
  C81      1.0000 0.24177  0.02733  0.19423  Biso   1.000  C
  C82      1.0000 0.18287  0.94623  0.21104  Biso   1.000  C
  C83      1.0000 0.19817  0.93143  0.24503  Biso   1.000  C
  H49      1.0000 0.24647  0.97053  0.25633  Biso   1.000  H
  C84      1.0000 0.08977  0.82033  0.32243  Biso   1.000  C
  H50      1.0000 0.03467  0.81233  0.32033  Biso   1.000  H
  C85      1.0000 0.22817  0.85563  0.30943  Biso   1.000  C
  N17      1.0000 0.30567  0.87283  0.28543  Biso   1.000  N
  O67      1.0000 0.37187  0.92053  0.29423  Biso   1.000  O
  O68      1.0000 0.28667  0.83713  0.25913  Biso   1.000  O
  H51      1.0000 0.28497  0.87163  0.30423  Biso   1.000  H
  O69      1.0000 0.88973  0.37107  0.49740  Biso   1.000  O
  O70      1.0000 0.97083  0.41117  0.54457  Biso   1.000  O
  C86      1.0000 0.90843  0.36067  0.52757  Biso   1.000  C
  C87      1.0000 0.84953  0.27957  0.54438  Biso   1.000  C
  C88      1.0000 0.86483  0.26477  0.57837  Biso   1.000  C
  H52      1.0000 0.91313  0.30387  0.58967  Biso   1.000  H
  C89      1.0000 0.75643  0.15367  0.65577  Biso   1.000  C
  H53      1.0000 0.70133  0.14567  0.65367  Biso   1.000  H
  C90      1.0000 0.89483  0.18897  0.64277  Biso   1.000  C
  N18      1.0000 0.97233  0.20617  0.61877  Biso   1.000  N
  O71      1.0000 0.03853  0.25387  0.62757  Biso   1.000  O
  O72      1.0000 0.95333  0.17047  0.59247  Biso   1.000  O
  H54      1.0000 0.95163  0.20497  0.63757  Biso   1.000  H
  O73      1.0000 0.55640  0.85200  0.83073  Biso   1.000  O
  O74      1.0000 0.63750  0.89300  0.87790  Biso   1.000  O
  C91      1.0000 0.57510  0.88110  0.86090  Biso   1.000  C
  C92      1.0000 0.51620  0.90330  0.87771  Biso   1.000  C
  C93      1.0000 0.53150  0.93340  0.91170  Biso   1.000  C
  H55      1.0000 0.57980  0.94260  0.92300  Biso   1.000  H
  C94      1.0000 0.42310  0.93610  0.98910  Biso   1.000  C
  H56      1.0000 0.36800  0.88900  0.98700  Biso   1.000  H
  C95      1.0000 0.56150  0.03920  0.97610  Biso   1.000  C
  N19      1.0000 0.63900  0.09950  0.95210  Biso   1.000  N
  O75      1.0000 0.70520  0.11800  0.96090  Biso   1.000  O
  O76      1.0000 0.62000  0.11620  0.92580  Biso   1.000  O
  H57      1.0000 0.61830  0.08000  0.97090  Biso   1.000  H
  O77      1.0000 0.22307  0.18533  0.16406  Biso   1.000  O
  O78      1.0000 0.30417  0.22633  0.21123  Biso   1.000  O
  C96      1.0000 0.24177  0.21443  0.19423  Biso   1.000  C
  C97      1.0000 0.18287  0.23663  0.21104  Biso   1.000  C
  C98      1.0000 0.19817  0.26673  0.24503  Biso   1.000  C
  H58      1.0000 0.24647  0.27593  0.25633  Biso   1.000  H
  C99      1.0000 0.08977  0.26943  0.32243  Biso   1.000  C
  H59      1.0000 0.03467  0.22233  0.32033  Biso   1.000  H
  C100     1.0000 0.22817  0.37253  0.30943  Biso   1.000  C
  N20      1.0000 0.30567  0.43283  0.28543  Biso   1.000  N
  O79      1.0000 0.37187  0.45133  0.29423  Biso   1.000  O
  O80      1.0000 0.28667  0.44953  0.25913  Biso   1.000  O
  H60      1.0000 0.28497  0.41333  0.30423  Biso   1.000  H
  O81      1.0000 0.88973  0.51867  0.49740  Biso   1.000  O
  O82      1.0000 0.97083  0.55967  0.54457  Biso   1.000  O
  C101     1.0000 0.90843  0.54777  0.52757  Biso   1.000  C
  C102     1.0000 0.84953  0.56997  0.54438  Biso   1.000  C
  C103     1.0000 0.86483  0.60007  0.57837  Biso   1.000  C
  H61      1.0000 0.91313  0.60927  0.58967  Biso   1.000  H
  C104     1.0000 0.75643  0.60277  0.65577  Biso   1.000  C
  H62      1.0000 0.70133  0.55567  0.65367  Biso   1.000  H
  C105     1.0000 0.89483  0.70587  0.64277  Biso   1.000  C
  N21      1.0000 0.97233  0.76617  0.61877  Biso   1.000  N
  O83      1.0000 0.03853  0.78467  0.62757  Biso   1.000  O
  O84      1.0000 0.95333  0.78287  0.59247  Biso   1.000  O
  H63      1.0000 0.95163  0.74667  0.63757  Biso   1.000  H
  O85      1.0000 0.14800  0.70440  0.83073  Biso   1.000  O
  O86      1.0000 0.10700  0.74450  0.87790  Biso   1.000  O
  C106     1.0000 0.11890  0.69400  0.86090  Biso   1.000  C
  C107     1.0000 0.09670  0.61290  0.87771  Biso   1.000  C
  C108     1.0000 0.06660  0.59810  0.91170  Biso   1.000  C
  H64      1.0000 0.05740  0.63720  0.92300  Biso   1.000  H
  C109     1.0000 0.06390  0.48700  0.98910  Biso   1.000  C
  H65      1.0000 0.11100  0.47900  0.98700  Biso   1.000  H
  C110     1.0000 0.96080  0.52230  0.97610  Biso   1.000  C
  N22      1.0000 0.90050  0.53950  0.95210  Biso   1.000  N
  O87      1.0000 0.88200  0.58720  0.96090  Biso   1.000  O
  O88      1.0000 0.88380  0.50380  0.92580  Biso   1.000  O
  H66      1.0000 0.92000  0.53830  0.97090  Biso   1.000  H
  O89      1.0000 0.81467  0.03773  0.16406  Biso   1.000  O
  O90      1.0000 0.77367  0.07783  0.21123  Biso   1.000  O
  C111     1.0000 0.78557  0.02733  0.19423  Biso   1.000  C
  C112     1.0000 0.76337  0.94623  0.21104  Biso   1.000  C
  C113     1.0000 0.73327  0.93143  0.24503  Biso   1.000  C
  H67      1.0000 0.72407  0.97053  0.25633  Biso   1.000  H
  C114     1.0000 0.73057  0.82033  0.32243  Biso   1.000  C
  H68      1.0000 0.77767  0.81233  0.32033  Biso   1.000  H
  C115     1.0000 0.62747  0.85563  0.30943  Biso   1.000  C
  N23      1.0000 0.56717  0.87283  0.28543  Biso   1.000  N
  O91      1.0000 0.54867  0.92053  0.29423  Biso   1.000  O
  O92      1.0000 0.55047  0.83713  0.25913  Biso   1.000  O
  H69      1.0000 0.58667  0.87163  0.30423  Biso   1.000  H
  O93      1.0000 0.48133  0.37107  0.49740  Biso   1.000  O
  O94      1.0000 0.44033  0.41117  0.54457  Biso   1.000  O
  C116     1.0000 0.45223  0.36067  0.52757  Biso   1.000  C
  C117     1.0000 0.43003  0.27957  0.54438  Biso   1.000  C
  C118     1.0000 0.39993  0.26477  0.57837  Biso   1.000  C
  H70      1.0000 0.39073  0.30387  0.58967  Biso   1.000  H
  C119     1.0000 0.39723  0.15367  0.65577  Biso   1.000  C
  H71      1.0000 0.44433  0.14567  0.65367  Biso   1.000  H
  C120     1.0000 0.29413  0.18897  0.64277  Biso   1.000  C
  N24      1.0000 0.23383  0.20617  0.61877  Biso   1.000  N
  O95      1.0000 0.21533  0.25387  0.62757  Biso   1.000  O
  O96      1.0000 0.21713  0.17047  0.59247  Biso   1.000  O
  H72      1.0000 0.25333  0.20497  0.63757  Biso   1.000  H
  O97      1.0000 0.29560  0.44360  0.83073  Biso   1.000  O
  O98      1.0000 0.25550  0.36250  0.87790  Biso   1.000  O
  C121     1.0000 0.30600  0.42490  0.86090  Biso   1.000  C
  C122     1.0000 0.38710  0.48380  0.87771  Biso   1.000  C
  C123     1.0000 0.40190  0.46850  0.91170  Biso   1.000  C
  H73      1.0000 0.36280  0.42020  0.92300  Biso   1.000  H
  C124     1.0000 0.51300  0.57690  0.98910  Biso   1.000  C
  H74      1.0000 0.52100  0.63200  0.98700  Biso   1.000  H
  C125     1.0000 0.47770  0.43850  0.97610  Biso   1.000  C
  N25      1.0000 0.46050  0.36100  0.95210  Biso   1.000  N
  O99      1.0000 0.41280  0.29480  0.96090  Biso   1.000  O
  O100     1.0000 0.49620  0.38000  0.92580  Biso   1.000  O
  H75      1.0000 0.46170  0.38170  0.97090  Biso   1.000  H
  O101     1.0000 0.96227  0.77693  0.16406  Biso   1.000  O
  O102     1.0000 0.92217  0.69583  0.21123  Biso   1.000  O
  C126     1.0000 0.97267  0.75823  0.19423  Biso   1.000  C
  C127     1.0000 0.05377  0.81713  0.21104  Biso   1.000  C
  C128     1.0000 0.06857  0.80183  0.24503  Biso   1.000  C
  H76      1.0000 0.02947  0.75353  0.25633  Biso   1.000  H
  C129     1.0000 0.17967  0.91023  0.32243  Biso   1.000  C
  H77      1.0000 0.18767  0.96533  0.32033  Biso   1.000  H
  C130     1.0000 0.14437  0.77183  0.30943  Biso   1.000  C
  N26      1.0000 0.12717  0.69433  0.28543  Biso   1.000  N
  O103     1.0000 0.07947  0.62813  0.29423  Biso   1.000  O
  O104     1.0000 0.16287  0.71333  0.25913  Biso   1.000  O
  H78      1.0000 0.12837  0.71503  0.30423  Biso   1.000  H
  O105     1.0000 0.62893  0.11027  0.49740  Biso   1.000  O
  O106     1.0000 0.58883  0.02917  0.54457  Biso   1.000  O
  C131     1.0000 0.63933  0.09157  0.52757  Biso   1.000  C
  C132     1.0000 0.72043  0.15047  0.54438  Biso   1.000  C
  C133     1.0000 0.73523  0.13517  0.57837  Biso   1.000  C
  H79      1.0000 0.69613  0.08687  0.58967  Biso   1.000  H
  C134     1.0000 0.84633  0.24357  0.65577  Biso   1.000  C
  H80      1.0000 0.85433  0.29867  0.65367  Biso   1.000  H
  C135     1.0000 0.81103  0.10517  0.64277  Biso   1.000  C
  N27      1.0000 0.79383  0.02767  0.61877  Biso   1.000  N
  O107     1.0000 0.74613  0.96147  0.62757  Biso   1.000  O
  O108     1.0000 0.82953  0.04667  0.59247  Biso   1.000  O
  H81      1.0000 0.79503  0.04837  0.63757  Biso   1.000  H
  O109     1.0000 0.85200  0.55640  0.16927  Biso   1.000  O
  O110     1.0000 0.89300  0.63750  0.12210  Biso   1.000  O
  C136     1.0000 0.88110  0.57510  0.13910  Biso   1.000  C
  C137     1.0000 0.90330  0.51620  0.12229  Biso   1.000  C
  C138     1.0000 0.93340  0.53150  0.08830  Biso   1.000  C
  H82      1.0000 0.94260  0.57980  0.07700  Biso   1.000  H
  C139     1.0000 0.93610  0.42310  0.01090  Biso   1.000  C
  H83      1.0000 0.88900  0.36800  0.01300  Biso   1.000  H
  C140     1.0000 0.03920  0.56150  0.02390  Biso   1.000  C
  N28      1.0000 0.09950  0.63900  0.04790  Biso   1.000  N
  O111     1.0000 0.11800  0.70520  0.03910  Biso   1.000  O
  O112     1.0000 0.11620  0.62000  0.07420  Biso   1.000  O
  H84      1.0000 0.08000  0.61830  0.02910  Biso   1.000  H
  O113     1.0000 0.51867  0.88973  0.50260  Biso   1.000  O
  O114     1.0000 0.55967  0.97083  0.45543  Biso   1.000  O
  C141     1.0000 0.54777  0.90843  0.47243  Biso   1.000  C
  C142     1.0000 0.56997  0.84953  0.45562  Biso   1.000  C
  C143     1.0000 0.60007  0.86483  0.42163  Biso   1.000  C
  H85      1.0000 0.60927  0.91313  0.41033  Biso   1.000  H
  C144     1.0000 0.60277  0.75643  0.34423  Biso   1.000  C
  H86      1.0000 0.55567  0.70133  0.34633  Biso   1.000  H
  C145     1.0000 0.70587  0.89483  0.35723  Biso   1.000  C
  N29      1.0000 0.76617  0.97233  0.38123  Biso   1.000  N
  O115     1.0000 0.78467  0.03853  0.37243  Biso   1.000  O
  O116     1.0000 0.78287  0.95333  0.40753  Biso   1.000  O
  H87      1.0000 0.74667  0.95163  0.36243  Biso   1.000  H
  O117     1.0000 0.18533  0.22307  0.83594  Biso   1.000  O
  O118     1.0000 0.22633  0.30417  0.78877  Biso   1.000  O
  C146     1.0000 0.21443  0.24177  0.80577  Biso   1.000  C
  C147     1.0000 0.23663  0.18287  0.78896  Biso   1.000  C
  C148     1.0000 0.26673  0.19817  0.75497  Biso   1.000  C
  H88      1.0000 0.27593  0.24647  0.74367  Biso   1.000  H
  C149     1.0000 0.26943  0.08977  0.67757  Biso   1.000  C
  H89      1.0000 0.22233  0.03467  0.67967  Biso   1.000  H
  C150     1.0000 0.37253  0.22817  0.69057  Biso   1.000  C
  N30      1.0000 0.43283  0.30567  0.71457  Biso   1.000  N
  O119     1.0000 0.45133  0.37187  0.70577  Biso   1.000  O
  O120     1.0000 0.44953  0.28667  0.74087  Biso   1.000  O
  H90      1.0000 0.41333  0.28497  0.69577  Biso   1.000  H
  O121     1.0000 0.70440  0.14800  0.16927  Biso   1.000  O
  O122     1.0000 0.74450  0.10700  0.12210  Biso   1.000  O
  C151     1.0000 0.69400  0.11890  0.13910  Biso   1.000  C
  C152     1.0000 0.61290  0.09670  0.12229  Biso   1.000  C
  C153     1.0000 0.59810  0.06660  0.08830  Biso   1.000  C
  H91      1.0000 0.63720  0.05740  0.07700  Biso   1.000  H
  C154     1.0000 0.48700  0.06390  0.01090  Biso   1.000  C
  H92      1.0000 0.47900  0.11100  0.01300  Biso   1.000  H
  C155     1.0000 0.52230  0.96080  0.02390  Biso   1.000  C
  N31      1.0000 0.53950  0.90050  0.04790  Biso   1.000  N
  O123     1.0000 0.58720  0.88200  0.03910  Biso   1.000  O
  O124     1.0000 0.50380  0.88380  0.07420  Biso   1.000  O
  H93      1.0000 0.53830  0.92000  0.02910  Biso   1.000  H
  O125     1.0000 0.37107  0.48133  0.50260  Biso   1.000  O
  O126     1.0000 0.41117  0.44033  0.45543  Biso   1.000  O
  C156     1.0000 0.36067  0.45223  0.47243  Biso   1.000  C
  C157     1.0000 0.27957  0.43003  0.45562  Biso   1.000  C
  C158     1.0000 0.26477  0.39993  0.42163  Biso   1.000  C
  H94      1.0000 0.30387  0.39073  0.41033  Biso   1.000  H
  C159     1.0000 0.15367  0.39723  0.34423  Biso   1.000  C
  H95      1.0000 0.14567  0.44433  0.34633  Biso   1.000  H
  C160     1.0000 0.18897  0.29413  0.35723  Biso   1.000  C
  N32      1.0000 0.20617  0.23383  0.38123  Biso   1.000  N
  O127     1.0000 0.25387  0.21533  0.37243  Biso   1.000  O
  O128     1.0000 0.17047  0.21713  0.40753  Biso   1.000  O
  H96      1.0000 0.20497  0.25333  0.36243  Biso   1.000  H
  O129     1.0000 0.03773  0.81467  0.83594  Biso   1.000  O
  O130     1.0000 0.07783  0.77367  0.78877  Biso   1.000  O
  C161     1.0000 0.02733  0.78557  0.80577  Biso   1.000  C
  C162     1.0000 0.94623  0.76337  0.78896  Biso   1.000  C
  C163     1.0000 0.93143  0.73327  0.75497  Biso   1.000  C
  H97      1.0000 0.97053  0.72407  0.74367  Biso   1.000  H
  C164     1.0000 0.82033  0.73057  0.67757  Biso   1.000  C
  H98      1.0000 0.81233  0.77767  0.67967  Biso   1.000  H
  C165     1.0000 0.85563  0.62747  0.69057  Biso   1.000  C
  N33      1.0000 0.87283  0.56717  0.71457  Biso   1.000  N
  O131     1.0000 0.92053  0.54867  0.70577  Biso   1.000  O
  O132     1.0000 0.83713  0.55047  0.74087  Biso   1.000  O
  H99      1.0000 0.87163  0.58667  0.69577  Biso   1.000  H
  O133     1.0000 0.44360  0.29560  0.16927  Biso   1.000  O
  O134     1.0000 0.36250  0.25550  0.12210  Biso   1.000  O
  C166     1.0000 0.42490  0.30600  0.13910  Biso   1.000  C
  C167     1.0000 0.48380  0.38710  0.12229  Biso   1.000  C
  C168     1.0000 0.46850  0.40190  0.08830  Biso   1.000  C
  H100     1.0000 0.42020  0.36280  0.07700  Biso   1.000  H
  C169     1.0000 0.57690  0.51300  0.01090  Biso   1.000  C
  H101     1.0000 0.63200  0.52100  0.01300  Biso   1.000  H
  C170     1.0000 0.43850  0.47770  0.02390  Biso   1.000  C
  N34      1.0000 0.36100  0.46050  0.04790  Biso   1.000  N
  O135     1.0000 0.29480  0.41280  0.03910  Biso   1.000  O
  O136     1.0000 0.38000  0.49620  0.07420  Biso   1.000  O
  H102     1.0000 0.38170  0.46170  0.02910  Biso   1.000  H
  O137     1.0000 0.11027  0.62893  0.50260  Biso   1.000  O
  O138     1.0000 0.02917  0.58883  0.45543  Biso   1.000  O
  C171     1.0000 0.09157  0.63933  0.47243  Biso   1.000  C
  C172     1.0000 0.15047  0.72043  0.45562  Biso   1.000  C
  C173     1.0000 0.13517  0.73523  0.42163  Biso   1.000  C
  H103     1.0000 0.08687  0.69613  0.41033  Biso   1.000  H
  C174     1.0000 0.24357  0.84633  0.34423  Biso   1.000  C
  H104     1.0000 0.29867  0.85433  0.34633  Biso   1.000  H
  C175     1.0000 0.10517  0.81103  0.35723  Biso   1.000  C
  N35      1.0000 0.02767  0.79383  0.38123  Biso   1.000  N
  O139     1.0000 0.96147  0.74613  0.37243  Biso   1.000  O
  O140     1.0000 0.04667  0.82953  0.40753  Biso   1.000  O
  H105     1.0000 0.04837  0.79503  0.36243  Biso   1.000  H
  O141     1.0000 0.77693  0.96227  0.83594  Biso   1.000  O
  O142     1.0000 0.69583  0.92217  0.78877  Biso   1.000  O
  C176     1.0000 0.75823  0.97267  0.80577  Biso   1.000  C
  C177     1.0000 0.81713  0.05377  0.78896  Biso   1.000  C
  C178     1.0000 0.80183  0.06857  0.75497  Biso   1.000  C
  H106     1.0000 0.75353  0.02947  0.74367  Biso   1.000  H
  C179     1.0000 0.91023  0.17967  0.67757  Biso   1.000  C
  H107     1.0000 0.96533  0.18767  0.67967  Biso   1.000  H
  C180     1.0000 0.77183  0.14437  0.69057  Biso   1.000  C
  N36      1.0000 0.69433  0.12717  0.71457  Biso   1.000  N
  O143     1.0000 0.62813  0.07947  0.70577  Biso   1.000  O
  O144     1.0000 0.71333  0.16287  0.74087  Biso   1.000  O
  H108     1.0000 0.71503  0.12837  0.69577  Biso   1.000  H
  Cu1      1.0000 0.38169  0.19084  0.19456  Biso   1.000  Cu
  Cu2      1.0000 0.04836  0.52418  0.52790  Biso   1.000  Cu
  Cu3      1.0000 0.71502  0.85751  0.86123  Biso   1.000  Cu
  Cu4      1.0000 0.80916  0.19084  0.19456  Biso   1.000  Cu
  Cu5      1.0000 0.47582  0.52418  0.52790  Biso   1.000  Cu
  Cu6      1.0000 0.14249  0.85751  0.86123  Biso   1.000  Cu
  Cu7      1.0000 0.80916  0.61831  0.19456  Biso   1.000  Cu
  Cu8      1.0000 0.47582  0.95164  0.52790  Biso   1.000  Cu
  Cu9      1.0000 0.14249  0.28498  0.86123  Biso   1.000  Cu
  Cu10     1.0000 0.19084  0.38169  0.80544  Biso   1.000  Cu
  Cu11     1.0000 0.85751  0.71502  0.13877  Biso   1.000  Cu
  Cu12     1.0000 0.52418  0.04836  0.47210  Biso   1.000  Cu
  Cu13     1.0000 0.19084  0.80915  0.80544  Biso   1.000  Cu
  Cu14     1.0000 0.85751  0.14249  0.13877  Biso   1.000  Cu
  Cu15     1.0000 0.52418  0.47582  0.47210  Biso   1.000  Cu
  Cu16     1.0000 0.61831  0.80915  0.80544  Biso   1.000  Cu
  Cu17     1.0000 0.28498  0.14249  0.13877  Biso   1.000  Cu
  Cu18     1.0000 0.95164  0.47582  0.47210  Biso   1.000  Cu
  C181     1.0000 0.55585  0.11170  0.13890  Biso   1.000  C
  H109     1.0000 0.56600  0.13200  0.16140  Biso   1.000  H
  C182     1.0000 0.52535  0.05070  0.07170  Biso   1.000  C
  C183     1.0000 0.51050  0.02100  0.03510  Biso   1.000  C
  C184     1.0000 0.22252  0.44503  0.47223  Biso   1.000  C
  H110     1.0000 0.23267  0.46533  0.49473  Biso   1.000  H
  C185     1.0000 0.19202  0.38403  0.40503  Biso   1.000  C
  C186     1.0000 0.17717  0.35433  0.36843  Biso   1.000  C
  C187     1.0000 0.88918  0.77837  0.80557  Biso   1.000  C
  H111     1.0000 0.89933  0.79867  0.82807  Biso   1.000  H
  C188     1.0000 0.85868  0.71737  0.73837  Biso   1.000  C
  C189     1.0000 0.84383  0.68767  0.70177  Biso   1.000  C
  C190     1.0000 0.88830  0.44415  0.13890  Biso   1.000  C
  H112     1.0000 0.86800  0.43400  0.16140  Biso   1.000  H
  C191     1.0000 0.94930  0.47465  0.07170  Biso   1.000  C
  C192     1.0000 0.97900  0.48950  0.03510  Biso   1.000  C
  C193     1.0000 0.55497  0.77748  0.47223  Biso   1.000  C
  H113     1.0000 0.53467  0.76733  0.49473  Biso   1.000  H
  C194     1.0000 0.61597  0.80798  0.40503  Biso   1.000  C
  C195     1.0000 0.64567  0.82283  0.36843  Biso   1.000  C
  C196     1.0000 0.22163  0.11082  0.80557  Biso   1.000  C
  H114     1.0000 0.20133  0.10067  0.82807  Biso   1.000  H
  C197     1.0000 0.28263  0.14132  0.73837  Biso   1.000  C
  C198     1.0000 0.31233  0.15617  0.70177  Biso   1.000  C
  C199     1.0000 0.55585  0.44415  0.13890  Biso   1.000  C
  H115     1.0000 0.56600  0.43400  0.16140  Biso   1.000  H
  C200     1.0000 0.52535  0.47465  0.07170  Biso   1.000  C
  C201     1.0000 0.51050  0.48950  0.03510  Biso   1.000  C
  C202     1.0000 0.22252  0.77748  0.47223  Biso   1.000  C
  H116     1.0000 0.23267  0.76733  0.49473  Biso   1.000  H
  C203     1.0000 0.19202  0.80798  0.40503  Biso   1.000  C
  C204     1.0000 0.17717  0.82283  0.36843  Biso   1.000  C
  C205     1.0000 0.88918  0.11082  0.80557  Biso   1.000  C
  H117     1.0000 0.89933  0.10067  0.82807  Biso   1.000  H
  C206     1.0000 0.85868  0.14132  0.73837  Biso   1.000  C
  C207     1.0000 0.84383  0.15617  0.70177  Biso   1.000  C
  C208     1.0000 0.11170  0.55585  0.86110  Biso   1.000  C
  H118     1.0000 0.13200  0.56600  0.83860  Biso   1.000  H
  C209     1.0000 0.05070  0.52535  0.92830  Biso   1.000  C
  C210     1.0000 0.02100  0.51050  0.96490  Biso   1.000  C
  C211     1.0000 0.77837  0.88918  0.19443  Biso   1.000  C
  H119     1.0000 0.79867  0.89933  0.17193  Biso   1.000  H
  C212     1.0000 0.71737  0.85868  0.26163  Biso   1.000  C
  C213     1.0000 0.68767  0.84383  0.29823  Biso   1.000  C
  C214     1.0000 0.44503  0.22252  0.52777  Biso   1.000  C
  H120     1.0000 0.46533  0.23267  0.50527  Biso   1.000  H
  C215     1.0000 0.38403  0.19202  0.59497  Biso   1.000  C
  C216     1.0000 0.35433  0.17717  0.63157  Biso   1.000  C
  C217     1.0000 0.44415  0.88830  0.86110  Biso   1.000  C
  H121     1.0000 0.43400  0.86800  0.83860  Biso   1.000  H
  C218     1.0000 0.47465  0.94930  0.92830  Biso   1.000  C
  C219     1.0000 0.48950  0.97900  0.96490  Biso   1.000  C
  C220     1.0000 0.11082  0.22163  0.19443  Biso   1.000  C
  H122     1.0000 0.10067  0.20133  0.17193  Biso   1.000  H
  C221     1.0000 0.14132  0.28263  0.26163  Biso   1.000  C
  C222     1.0000 0.15617  0.31233  0.29823  Biso   1.000  C
  C223     1.0000 0.77748  0.55497  0.52777  Biso   1.000  C
  H123     1.0000 0.76733  0.53467  0.50527  Biso   1.000  H
  C224     1.0000 0.80798  0.61597  0.59497  Biso   1.000  C
  C225     1.0000 0.82283  0.64567  0.63157  Biso   1.000  C
  C226     1.0000 0.44415  0.55585  0.86110  Biso   1.000  C
  H124     1.0000 0.43400  0.56600  0.83860  Biso   1.000  H
  C227     1.0000 0.47465  0.52535  0.92830  Biso   1.000  C
  C228     1.0000 0.48950  0.51050  0.96490  Biso   1.000  C
  C229     1.0000 0.11082  0.88918  0.19443  Biso   1.000  C
  H125     1.0000 0.10067  0.89933  0.17193  Biso   1.000  H
  C230     1.0000 0.14132  0.85868  0.26163  Biso   1.000  C
  C231     1.0000 0.15617  0.84383  0.29823  Biso   1.000  C
  C232     1.0000 0.77748  0.22252  0.52777  Biso   1.000  C
  H126     1.0000 0.76733  0.23267  0.50527  Biso   1.000  H
  C233     1.0000 0.80798  0.19202  0.59497  Biso   1.000  C
  C234     1.0000 0.82283  0.17717  0.63157  Biso   1.000  C
