data_cm301726k_si_004_clean
_audit_creation_date              2015-10-29
_audit_creation_method            'Materials Studio'
_symmetry_space_group_name_H-M    'P1'
_symmetry_Int_Tables_number       1
_symmetry_cell_setting            triclinic
loop_
_symmetry_equiv_pos_as_xyz
  x,y,z
_cell_length_a                    12.5738
_cell_length_b                    12.5738
_cell_length_c                    14.3340
_cell_angle_alpha                 90.0000
_cell_angle_beta                  90.0000
_cell_angle_gamma                 120.0000
loop_
_atom_site_label
_atom_site_type_symbol
_atom_site_fract_x
_atom_site_fract_y
_atom_site_fract_z
_atom_site_U_iso_or_equiv
_atom_site_adp_type
_atom_site_occupancy
Mg1    Mg    0.20610   0.48650   0.50000   0.01267  Uiso   1.00
Mg2    Mg    0.48650   0.28040   0.50000   0.01267  Uiso   1.00
Mg3    Mg    0.28040   0.79390   0.50000   0.01267  Uiso   1.00
Mg4    Mg    0.79390   0.51350   0.50000   0.01267  Uiso   1.00
Mg5    Mg    0.71960   0.20610   0.50000   0.01267  Uiso   1.00
Mg6    Mg    0.51350   0.71960   0.50000   0.01267  Uiso   1.00
C7     C     0.48990   0.88040   0.64710   0.01267  Uiso   1.00
C8     C     0.39350   0.48190   0.94850   0.01267  Uiso   1.00
C9     C     0.91160   0.39380   0.94860   0.01267  Uiso   1.00
C10    C     0.48940   0.88030   0.35300   0.01267  Uiso   1.00
C11    C     0.70800   0.53460   0.10200   0.01267  Uiso   1.00
C12    C     0.51010   0.11960   0.35290   0.01267  Uiso   1.00
C13    C     0.50010   0.49990   0.10210   0.01267  Uiso   1.00
C14    C     0.90770   0.39360   0.75000   0.01267  Uiso   1.00
C15    C     0.60620   0.51780   0.94860   0.01267  Uiso   1.00
C16    C     0.91160   0.39350   0.05150   0.01267  Uiso   1.00
C17    C     0.48590   0.09220   0.25040   0.01267  Uiso   1.00
C18    C     0.39090   0.51060   0.35300   0.01267  Uiso   1.00
C19    C     0.49990   0.99980   0.89790   0.01267  Uiso   1.00
C20    C     0.99980   0.49990   0.10210   0.01267  Uiso   1.00
C21    C     0.08840   0.60620   0.05140   0.01267  Uiso   1.00
C22    C     0.88040   0.39050   0.35290   0.01267  Uiso   1.00
C23    C     0.70810   0.53330   0.80040   0.01267  Uiso   1.00
C24    C     0.60910   0.48940   0.64700   0.01267  Uiso   1.00
C25    C     0.17350   0.70800   0.10180   0.01267  Uiso   1.00
C26    C     0.17440   0.70750   0.80050   0.01267  Uiso   1.00
C27    C     0.08840   0.60650   0.94850   0.01267  Uiso   1.00
C28    C     0.50020   0.00000   0.79740   0.01267  Uiso   1.00
C29    C     0.51060   0.11970   0.64700   0.01267  Uiso   1.00
C30    C     0.17480   0.70810   0.19960   0.01267  Uiso   1.00
C31    C     0.49980   0.49980   0.79740   0.01267  Uiso   1.00
C32    C     0.51780   0.91160   0.05140   0.01267  Uiso   1.00
C33    C     0.09230   0.60640   0.25000   0.01267  Uiso   1.00
C34    C     0.00020   0.50010   0.89790   0.01267  Uiso   1.00
C35    C     0.50010   0.00020   0.10210   0.01267  Uiso   1.00
C36    C     0.60650   0.51810   0.05150   0.01267  Uiso   1.00
C37    C     0.39370   0.48590   0.74960   0.01267  Uiso   1.00
C38    C     0.51410   0.90780   0.74960   0.01267  Uiso   1.00
C39    C     0.60950   0.48990   0.35290   0.01267  Uiso   1.00
C40    C     0.00000   0.50020   0.79740   0.01267  Uiso   1.00
C41    C     0.82560   0.29250   0.19950   0.01267  Uiso   1.00
C42    C     0.50020   0.50020   0.20260   0.01267  Uiso   1.00
C43    C     0.46540   0.17340   0.10200   0.01267  Uiso   1.00
C44    C     0.70750   0.53310   0.19950   0.01267  Uiso   1.00
C45    C     0.60630   0.51410   0.25040   0.01267  Uiso   1.00
C46    C     0.39360   0.48590   0.25000   0.01267  Uiso   1.00
C47    C     0.29200   0.46540   0.89800   0.01267  Uiso   1.00
C48    C     0.53310   0.82560   0.80050   0.01267  Uiso   1.00
C49    C     0.48590   0.09230   0.75000   0.01267  Uiso   1.00
C50    C     0.82660   0.29200   0.10200   0.01267  Uiso   1.00
C51    C     0.29200   0.46550   0.10180   0.01267  Uiso   1.00
C52    C     0.48220   0.08840   0.94860   0.01267  Uiso   1.00
C53    C     0.09220   0.60630   0.74960   0.01267  Uiso   1.00
C54    C     0.53330   0.82520   0.19960   0.01267  Uiso   1.00
C55    C     0.46670   0.17480   0.80040   0.01267  Uiso   1.00
C56    C     0.82520   0.29190   0.80040   0.01267  Uiso   1.00
C57    C     0.51410   0.90770   0.25000   0.01267  Uiso   1.00
C58    C     0.53460   0.82660   0.89800   0.01267  Uiso   1.00
C59    C     0.90780   0.39370   0.25040   0.01267  Uiso   1.00
C60    C     0.53450   0.82650   0.10180   0.01267  Uiso   1.00
C61    C     0.11960   0.60950   0.64710   0.01267  Uiso   1.00
C62    C     0.46690   0.17440   0.19950   0.01267  Uiso   1.00
C63    C     0.60640   0.51410   0.75000   0.01267  Uiso   1.00
C64    C     0.82650   0.29200   0.89820   0.01267  Uiso   1.00
C65    C     0.46550   0.17350   0.89820   0.01267  Uiso   1.00
C66    C     0.49990   0.50010   0.89790   0.01267  Uiso   1.00
C67    C     0.51810   0.91160   0.94850   0.01267  Uiso   1.00
C68    C     0.29250   0.46690   0.80050   0.01267  Uiso   1.00
C69    C     0.11970   0.60910   0.35300   0.01267  Uiso   1.00
C70    C     0.39380   0.48220   0.05140   0.01267  Uiso   1.00
C71    C     0.29190   0.46670   0.19960   0.01267  Uiso   1.00
C72    C     0.39050   0.51010   0.64710   0.01267  Uiso   1.00
C73    C     0.88030   0.39090   0.64700   0.01267  Uiso   1.00
C74    C     0.00000   0.49980   0.20260   0.01267  Uiso   1.00
C75    C     0.49980  -0.00000   0.20260   0.01267  Uiso   1.00
C76    C     0.70800   0.53450   0.89820   0.01267  Uiso   1.00
C77    C     0.17340   0.70800   0.89800   0.01267  Uiso   1.00
C78    C     0.48190   0.08840   0.05150   0.01267  Uiso   1.00
O79    O     0.48210   0.60440   0.38630   0.01267  Uiso   1.00
O80    O     0.60410   0.12220   0.38620   0.01267  Uiso   1.00
O81    O     0.87780   0.48190   0.38620   0.01267  Uiso   1.00
O82    O     0.14560   0.70690   0.60350   0.01267  Uiso   1.00
O83    O     0.14560   0.70700   0.39660   0.01267  Uiso   1.00
O84    O     0.70700   0.56140   0.60340   0.01267  Uiso   1.00
O85    O     0.70690   0.56130   0.39650   0.01267  Uiso   1.00
O86    O     0.85440   0.29300   0.60340   0.01267  Uiso   1.00
O87    O     0.56130   0.85440   0.60350   0.01267  Uiso   1.00
O88    O     0.12220   0.51810   0.61380   0.01267  Uiso   1.00
O89    O     0.43870   0.14560   0.39650   0.01267  Uiso   1.00
O90    O     0.12230   0.51790   0.38630   0.01267  Uiso   1.00
O91    O     0.33333   0.66666   0.50010   0.01267  Uiso   1.00
O92    O     0.51790   0.39560   0.61370   0.01267  Uiso   1.00
O93    O     0.56140   0.85440   0.39660   0.01267  Uiso   1.00
O94    O     0.66667   0.33334   0.49990   0.01267  Uiso   1.00
O95    O     0.60440   0.12230   0.61370   0.01267  Uiso   1.00
O96    O     0.29310   0.43870   0.60350   0.01267  Uiso   1.00
O97    O     0.51810   0.39590   0.38620   0.01267  Uiso   1.00
O98    O     0.43860   0.14560   0.60340   0.01267  Uiso   1.00
O99    O     0.39590   0.87780   0.61380   0.01267  Uiso   1.00
O100   O     0.85440   0.29310   0.39650   0.01267  Uiso   1.00
O101   O     0.29300   0.43860   0.39660   0.01267  Uiso   1.00
O102   O     0.39560   0.87770   0.38630   0.01267  Uiso   1.00
O103   O     0.87770   0.48210   0.61370   0.01267  Uiso   1.00
O104   O     0.48190   0.60410   0.61380   0.01267  Uiso   1.00
H105   H     0.79409   0.54977   0.06393   0.00000  Uiso   1.00
H106   H     0.79435   0.54858   0.76251   0.00000  Uiso   1.00
H107   H     0.24438   0.79399   0.06359   0.00000  Uiso   1.00
H108   H     0.24579   0.79395   0.76306   0.00000  Uiso   1.00
H109   H     0.24491   0.79327   0.23905   0.00000  Uiso   1.00
H110   H     0.75548   0.20764   0.23925   0.00000  Uiso   1.00
H111   H     0.45040   0.24332   0.06221   0.00000  Uiso   1.00
H112   H     0.79236   0.54784   0.23925   0.00000  Uiso   1.00
H113   H     0.20591   0.45023   0.93607   0.00000  Uiso   1.00
H114   H     0.54816   0.75421   0.76306   0.00000  Uiso   1.00
H115   H     0.75568   0.20591   0.06393   0.00000  Uiso   1.00
H116   H     0.20601   0.45039   0.06359   0.00000  Uiso   1.00
H117   H     0.54858   0.75423   0.23749   0.00000  Uiso   1.00
H118   H     0.45142   0.24577   0.76251   0.00000  Uiso   1.00
H119   H     0.75423   0.20565   0.76251   0.00000  Uiso   1.00
H120   H     0.54960   0.75668   0.93779   0.00000  Uiso   1.00
H121   H     0.54961   0.75562   0.06359   0.00000  Uiso   1.00
H122   H     0.45216   0.24452   0.23925   0.00000  Uiso   1.00
H123   H     0.75562   0.20601   0.93641   0.00000  Uiso   1.00
H124   H     0.45039   0.24438   0.93641   0.00000  Uiso   1.00
H125   H     0.20673   0.45164   0.23905   0.00000  Uiso   1.00
H126   H     0.79399   0.54961   0.93641   0.00000  Uiso   1.00
H127   H     0.24432   0.79409   0.93607   0.00000  Uiso   1.00
H128   H     0.20605   0.45184   0.76306   0.00000  Uiso   1.00
loop_
_geom_bond_atom_site_label_1
_geom_bond_atom_site_label_2
_geom_bond_distance
_geom_bond_site_symmetry_2
_ccdc_geom_bond_type
Mg1    O88     2.086   .     S
Mg1    O90     2.083   .     S
Mg1    O91     2.017   .     S
Mg1    O96     2.102   .     S
Mg1    O101    2.100   .     S
Mg2    O89     2.102   .     S
Mg2    O92     2.083   .     S
Mg2    O94     2.017   .     S
Mg2    O97     2.086   .     S
Mg2    O98     2.100   .     S
Mg3    O82     2.102   .     S
Mg3    O83     2.100   .     S
Mg3    O91     2.017   .     S
Mg3    O99     2.086   .     S
Mg3    O102    2.083   .     S
Mg4    O81     2.086   .     S
Mg4    O84     2.100   .     S
Mg4    O85     2.102   .     S
Mg4    O94     2.017   .     S
Mg4    O103    2.083   .     S
Mg5    O80     2.086   .     S
Mg5    O86     2.100   .     S
Mg5    O94     2.017   .     S
Mg5    O95     2.083   .     S
Mg5    O100    2.102   .     S
Mg6    O79     2.083   .     S
Mg6    O87     2.102   .     S
Mg6    O91     2.017   .     S
Mg6    O93     2.100   .     S
Mg6    O104    2.086   .     S
C7     C38     1.505   .     S
C7     O87     1.264   .     A
C7     O99     1.260   .     A
C8     C47     1.390   .     A
C8     C66     1.436   .     A
C8     C70     1.475   1_556 S
C9     C16     1.475   1_556 S
C9     C34     1.438   1_655 A
C9     C64     1.391   .     A
C10    C57     1.513   .     S
C10    O93     1.269   .     A
C10    O102    1.258   .     A
C11    C36     1.390   .     A
C11    C44     1.398   .     A
C11    H105    1.140   .     S
C12    C17     1.505   .     S
C12    O80     1.260   .     A
C12    O89     1.264   .     A
C13    C36     1.436   .     A
C13    C42     1.441   .     A
C13    C70     1.438   .     A
C14    C40     1.432   1_655 A
C14    C56     1.381   .     A
C14    C73     1.513   .     S
C15    C36     1.475   1_556 S
C15    C66     1.438   .     A
C15    C76     1.391   .     A
C16    C9      1.475   1_554 S
C16    C20     1.436   .     A
C16    C50     1.390   .     A
C17    C62     1.380   .     A
C17    C75     1.431   .     A
C18    C46     1.513   .     S
C18    O79     1.258   .     A
C18    O101    1.269   .     A
C19    C28     1.441   1_565 A
C19    C52     1.438   1_565 A
C19    C67     1.436   .     A
C20    C21     1.438   1_655 A
C20    C74     1.441   1_655 A
C21    C20     1.438   1_455 A
C21    C25     1.391   .     A
C21    C27     1.475   1_554 S
C22    C59     1.505   .     S
C22    O81     1.260   .     A
C22    O100    1.264   .     A
C23    C63     1.381   .     A
C23    C76     1.402   .     A
C23    H106    1.140   .     S
C24    C63     1.513   .     S
C24    O84     1.269   .     A
C24    O92     1.258   .     A
C25    C30     1.402   .     A
C25    H107    1.140   .     S
C26    C53     1.380   .     A
C26    C77     1.398   .     A
C26    H108    1.140   .     S
C27    C21     1.475   1_556 S
C27    C34     1.436   .     A
C27    C77     1.390   .     A
C28    C19     1.441   1_545 A
C28    C38     1.431   1_545 A
C28    C49     1.432   .     A
C29    C49     1.513   .     S
C29    O95     1.258   .     A
C29    O98     1.269   .     A
C30    C33     1.381   .     A
C30    H109    1.140   .     S
C31    C37     1.431   .     A
C31    C63     1.432   .     A
C31    C66     1.441   .     A
C32    C35     1.438   1_565 A
C32    C60     1.391   .     A
C32    C67     1.475   1_554 S
C33    C69     1.513   .     S
C33    C74     1.432   .     A
C34    C9      1.438   1_455 A
C34    C40     1.441   .     A
C35    C32     1.438   1_545 A
C35    C75     1.441   .     A
C35    C78     1.436   .     A
C36    C15     1.475   1_554 S
C37    C68     1.380   .     A
C37    C72     1.505   .     S
C38    C28     1.431   1_565 A
C38    C48     1.380   .     A
C39    C45     1.505   .     S
C39    O85     1.264   .     A
C39    O97     1.260   .     A
C40    C14     1.432   1_455 A
C40    C53     1.431   .     A
C41    C50     1.398   .     A
C41    C59     1.380   .     A
C41    H110    1.140   .     S
C42    C45     1.431   .     A
C42    C46     1.432   .     A
C43    C62     1.398   .     A
C43    C78     1.390   .     A
C43    H111    1.140   .     S
C44    C45     1.380   .     A
C44    H112    1.140   .     S
C46    C71     1.381   .     A
C47    C68     1.398   .     A
C47    H113    1.140   .     S
C48    C58     1.398   .     A
C48    H114    1.140   .     S
C49    C55     1.381   .     A
C50    H115    1.140   .     S
C51    C70     1.391   .     A
C51    C71     1.402   .     A
C51    H116    1.140   .     S
C52    C19     1.438   1_545 A
C52    C65     1.391   .     A
C52    C78     1.475   1_556 S
C53    C61     1.505   .     S
C54    C57     1.381   .     A
C54    C60     1.402   .     A
C54    H117    1.140   .     S
C55    C65     1.402   .     A
C55    H118    1.140   .     S
C56    C64     1.402   .     A
C56    H119    1.140   .     S
C57    C75     1.432   1_565 A
C58    C67     1.390   .     A
C58    H120    1.140   .     S
C59    C74     1.431   1_655 A
C60    H121    1.140   .     S
C61    O82     1.264   .     A
C61    O88     1.260   .     A
C62    H122    1.140   .     S
C64    H123    1.140   .     S
C65    H124    1.140   .     S
C67    C32     1.475   1_556 S
C68    H128    1.140   .     S
C69    O83     1.269   .     A
C69    O90     1.258   .     A
C70    C8      1.475   1_554 S
C71    H125    1.140   .     S
C72    O96     1.264   .     A
C72    O104    1.260   .     A
C73    O86     1.269   .     A
C73    O103    1.258   .     A
C74    C20     1.441   1_455 A
C74    C59     1.431   1_455 A
C75    C57     1.432   1_545 A
C76    H126    1.140   .     S
C77    H127    1.140   .     S
C78    C52     1.475   1_554 S
