data_image0
_cell_length_a       11.6425
_cell_length_b       13.8569
_cell_length_c       15.5738
_cell_angle_alpha    90
_cell_angle_beta     90
_cell_angle_gamma    90

_symmetry_space_group_name_H-M    "P 1"
_symmetry_int_tables_number       1

loop_
  _symmetry_equiv_pos_as_xyz
  'x, y, z'

loop_
  _atom_site_label
  _atom_site_occupancy
  _atom_site_fract_x
  _atom_site_fract_y
  _atom_site_fract_z
  _atom_site_thermal_displace_type
  _atom_site_B_iso_or_equiv
  _atom_site_type_symbol
  O1       1.0000 0.39260  0.07934  0.08222  Biso   1.000  O
  C1       1.0000 0.16545  0.08675  0.29965  Biso   1.000  C
  H1       1.0000 0.14007  0.15484  0.32760  Biso   1.000  H
  C2       1.0000 0.23574  0.08682  0.22595  Biso   1.000  C
  H2       1.0000 0.26245  0.15531  0.19953  Biso   1.000  H
  O2       1.0000 0.60740  0.92066  0.08222  Biso   1.000  O
  C3       1.0000 0.83455  0.91325  0.29965  Biso   1.000  C
  H3       1.0000 0.85993  0.84516  0.32760  Biso   1.000  H
  C4       1.0000 0.76426  0.91318  0.22595  Biso   1.000  C
  H4       1.0000 0.73755  0.84469  0.19953  Biso   1.000  H
  O3       1.0000 0.60740  0.07934  0.91778  Biso   1.000  O
  C5       1.0000 0.83455  0.08675  0.70035  Biso   1.000  C
  H5       1.0000 0.85993  0.15484  0.67240  Biso   1.000  H
  C6       1.0000 0.76426  0.08682  0.77405  Biso   1.000  C
  H6       1.0000 0.73755  0.15531  0.80047  Biso   1.000  H
  O4       1.0000 0.39260  0.92066  0.91778  Biso   1.000  O
  C7       1.0000 0.16545  0.91325  0.70035  Biso   1.000  C
  H7       1.0000 0.14007  0.84516  0.67240  Biso   1.000  H
  C8       1.0000 0.23574  0.91318  0.77405  Biso   1.000  C
  H8       1.0000 0.26245  0.84469  0.80047  Biso   1.000  H
  O5       1.0000 0.60740  0.92066  0.91778  Biso   1.000  O
  C9       1.0000 0.83455  0.91325  0.70035  Biso   1.000  C
  H9       1.0000 0.85993  0.84516  0.67240  Biso   1.000  H
  C10      1.0000 0.76426  0.91318  0.77405  Biso   1.000  C
  H10      1.0000 0.73755  0.84469  0.80047  Biso   1.000  H
  O6       1.0000 0.39260  0.07934  0.91778  Biso   1.000  O
  C11      1.0000 0.16545  0.08675  0.70035  Biso   1.000  C
  H11      1.0000 0.14007  0.15484  0.67240  Biso   1.000  H
  C12      1.0000 0.23574  0.08682  0.77405  Biso   1.000  C
  H12      1.0000 0.26245  0.15531  0.80047  Biso   1.000  H
  O7       1.0000 0.39260  0.92066  0.08222  Biso   1.000  O
  C13      1.0000 0.16545  0.91325  0.29965  Biso   1.000  C
  H13      1.0000 0.14007  0.84516  0.32760  Biso   1.000  H
  C14      1.0000 0.23574  0.91318  0.22595  Biso   1.000  C
  H14      1.0000 0.26245  0.84469  0.19953  Biso   1.000  H
  O8       1.0000 0.60740  0.07934  0.08222  Biso   1.000  O
  C15      1.0000 0.83455  0.08675  0.29965  Biso   1.000  C
  H15      1.0000 0.85993  0.15484  0.32760  Biso   1.000  H
  C16      1.0000 0.76426  0.08682  0.22595  Biso   1.000  C
  H16      1.0000 0.73755  0.15531  0.19953  Biso   1.000  H
  Zn1      1.0000 0.50000  0.11118  0.00000  Biso   1.000  Zn
  N1       1.0000 0.50000  0.24480  0.00000  Biso   1.000  N
  C17      1.0000 0.50000  0.44568  0.00000  Biso   1.000  C
  Zn2      1.0000 0.50000  0.88882  0.00000  Biso   1.000  Zn
  N2       1.0000 0.50000  0.75520  0.00000  Biso   1.000  N
  C18      1.0000 0.50000  0.55432  0.00000  Biso   1.000  C
  C19      1.0000 0.11963  0.00000  0.50000  Biso   1.000  C
  H17      1.0000 0.78739  0.00000  0.50000  Biso   1.000  H
  C20      1.0000 0.88037  0.00000  0.50000  Biso   1.000  C
  H18      1.0000 0.21261  0.00000  0.50000  Biso   1.000  H
  C21      1.0000 0.06111  0.00000  0.42009  Biso   1.000  C
  C22      1.0000 0.12996  0.00000  0.33805  Biso   1.000  C
  C23      1.0000 0.27330  0.00000  0.18797  Biso   1.000  C
  C24      1.0000 0.35595  0.00000  0.11291  Biso   1.000  C
  C25      1.0000 0.93889  0.00000  0.42009  Biso   1.000  C
  C26      1.0000 0.87004  0.00000  0.33805  Biso   1.000  C
  C27      1.0000 0.72670  0.00000  0.18797  Biso   1.000  C
  C28      1.0000 0.64405  0.00000  0.11291  Biso   1.000  C
  C29      1.0000 0.93889  0.00000  0.57991  Biso   1.000  C
  C30      1.0000 0.87004  0.00000  0.66195  Biso   1.000  C
  C31      1.0000 0.72670  0.00000  0.81203  Biso   1.000  C
  C32      1.0000 0.64405  0.00000  0.88709  Biso   1.000  C
  C33      1.0000 0.06111  0.00000  0.57991  Biso   1.000  C
  C34      1.0000 0.12996  0.00000  0.66195  Biso   1.000  C
  C35      1.0000 0.27330  0.00000  0.81203  Biso   1.000  C
  C36      1.0000 0.35595  0.00000  0.88709  Biso   1.000  C
  C37      1.0000 0.39855  0.29229  0.00000  Biso   1.000  C
  H19      1.0000 0.31902  0.25206  0.00000  Biso   1.000  H
  C38      1.0000 0.39638  0.39249  0.00000  Biso   1.000  C
  H20      1.0000 0.31285  0.42543  0.00000  Biso   1.000  H
  C39      1.0000 0.60145  0.70771  0.00000  Biso   1.000  C
  H21      1.0000 0.68098  0.74794  0.00000  Biso   1.000  H
  C40      1.0000 0.60362  0.60751  0.00000  Biso   1.000  C
  H22      1.0000 0.68715  0.57457  0.00000  Biso   1.000  H
  C41      1.0000 0.60145  0.29229  0.00000  Biso   1.000  C
  H23      1.0000 0.68098  0.25206  0.00000  Biso   1.000  H
  C42      1.0000 0.60362  0.39249  0.00000  Biso   1.000  C
  H24      1.0000 0.68715  0.42543  0.00000  Biso   1.000  H
  C43      1.0000 0.39855  0.70771  0.00000  Biso   1.000  C
  H25      1.0000 0.31902  0.74794  0.00000  Biso   1.000  H
  C44      1.0000 0.39638  0.60751  0.00000  Biso   1.000  C
  H26      1.0000 0.31285  0.57457  0.00000  Biso   1.000  H
