data_image0
_cell_length_a       6.6289
_cell_length_b       16.7338
_cell_length_c       12.8254
_cell_angle_alpha    90
_cell_angle_beta     90
_cell_angle_gamma    90

_symmetry_space_group_name_H-M    "P 1"
_symmetry_int_tables_number       1

loop_
  _symmetry_equiv_pos_as_xyz
  'x, y, z'

loop_
  _atom_site_label
  _atom_site_occupancy
  _atom_site_fract_x
  _atom_site_fract_y
  _atom_site_fract_z
  _atom_site_thermal_displace_type
  _atom_site_B_iso_or_equiv
  _atom_site_type_symbol
  O1       1.0000 0.16557  0.16805  0.84296  Biso   1.000  O
  C1       1.0000 0.80890  0.03585  0.96800  Biso   1.000  C
  O2       1.0000 0.66557  0.66805  0.34296  Biso   1.000  O
  C2       1.0000 0.30890  0.53585  0.46800  Biso   1.000  C
  O3       1.0000 0.83443  0.33195  0.84296  Biso   1.000  O
  C3       1.0000 0.19110  0.46415  0.96800  Biso   1.000  C
  O4       1.0000 0.33443  0.83195  0.34296  Biso   1.000  O
  C4       1.0000 0.69110  0.96415  0.46800  Biso   1.000  C
  O5       1.0000 0.83443  0.66805  0.15704  Biso   1.000  O
  C5       1.0000 0.19110  0.53585  0.03200  Biso   1.000  C
  O6       1.0000 0.33443  0.16805  0.65704  Biso   1.000  O
  C6       1.0000 0.69110  0.03585  0.53200  Biso   1.000  C
  O7       1.0000 0.16557  0.83195  0.15704  Biso   1.000  O
  C7       1.0000 0.80890  0.96415  0.03200  Biso   1.000  C
  O8       1.0000 0.66557  0.33195  0.65704  Biso   1.000  O
  C8       1.0000 0.30890  0.46415  0.53200  Biso   1.000  C
  O9       1.0000 0.83443  0.83195  0.15704  Biso   1.000  O
  C9       1.0000 0.19110  0.96415  0.03200  Biso   1.000  C
  O10      1.0000 0.33443  0.33195  0.65704  Biso   1.000  O
  C10      1.0000 0.69110  0.46415  0.53200  Biso   1.000  C
  O11      1.0000 0.16557  0.66805  0.15704  Biso   1.000  O
  C11      1.0000 0.80890  0.53585  0.03200  Biso   1.000  C
  O12      1.0000 0.66557  0.16805  0.65704  Biso   1.000  O
  C12      1.0000 0.30890  0.03585  0.53200  Biso   1.000  C
  O13      1.0000 0.16557  0.33195  0.84296  Biso   1.000  O
  C13      1.0000 0.80890  0.46415  0.96800  Biso   1.000  C
  O14      1.0000 0.66557  0.83195  0.34296  Biso   1.000  O
  C14      1.0000 0.30890  0.96415  0.46800  Biso   1.000  C
  O15      1.0000 0.83443  0.16805  0.84296  Biso   1.000  O
  C15      1.0000 0.19110  0.03585  0.96800  Biso   1.000  C
  O16      1.0000 0.33443  0.66805  0.34296  Biso   1.000  O
  C16      1.0000 0.69110  0.53585  0.46800  Biso   1.000  C
  Al1      1.0000 0.25000  0.25000  0.75000  Biso   1.000  Al
  Al2      1.0000 0.75000  0.25000  0.75000  Biso   1.000  Al
  Al3      1.0000 0.75000  0.75000  0.25000  Biso   1.000  Al
  Al4      1.0000 0.25000  0.75000  0.25000  Biso   1.000  Al
  O17      1.0000 0.00000  0.25000  0.68580  Biso   1.000  O
  O18      1.0000 0.50000  0.75000  0.18580  Biso   1.000  O
  O19      1.0000 0.00000  0.75000  0.31420  Biso   1.000  O
  O20      1.0000 0.50000  0.25000  0.81420  Biso   1.000  O
  C17      1.0000 0.00000  0.06280  0.94720  Biso   1.000  C
  C18      1.0000 0.00000  0.13590  0.87120  Biso   1.000  C
  C19      1.0000 0.50000  0.56280  0.44720  Biso   1.000  C
  C20      1.0000 0.50000  0.63590  0.37120  Biso   1.000  C
  C21      1.0000 0.00000  0.43720  0.94720  Biso   1.000  C
  C22      1.0000 0.00000  0.36410  0.87120  Biso   1.000  C
  C23      1.0000 0.50000  0.93720  0.44720  Biso   1.000  C
  C24      1.0000 0.50000  0.86410  0.37120  Biso   1.000  C
  C25      1.0000 0.00000  0.56280  0.05280  Biso   1.000  C
  C26      1.0000 0.00000  0.63590  0.12880  Biso   1.000  C
  C27      1.0000 0.50000  0.06280  0.55280  Biso   1.000  C
  C28      1.0000 0.50000  0.13590  0.62880  Biso   1.000  C
  C29      1.0000 0.00000  0.93720  0.05280  Biso   1.000  C
  C30      1.0000 0.00000  0.86410  0.12880  Biso   1.000  C
  C31      1.0000 0.50000  0.43720  0.55280  Biso   1.000  C
  C32      1.0000 0.50000  0.36410  0.62880  Biso   1.000  C
