data_image0
_cell_length_a       6.6303
_cell_length_b       16.7973
_cell_length_c       12.7469
_cell_angle_alpha    90
_cell_angle_beta     90
_cell_angle_gamma    90

_symmetry_space_group_name_H-M    "P 1"
_symmetry_int_tables_number       1

loop_
  _symmetry_equiv_pos_as_xyz
  'x, y, z'

loop_
  _atom_site_label
  _atom_site_occupancy
  _atom_site_fract_x
  _atom_site_fract_y
  _atom_site_fract_z
  _atom_site_thermal_displace_type
  _atom_site_B_iso_or_equiv
  _atom_site_type_symbol
  O1       1.0000 0.16793  0.16770  0.84262  Biso   1.000  O
  C1       1.0000 0.80810  0.03515  0.96940  Biso   1.000  C
  O2       1.0000 0.66793  0.66770  0.34262  Biso   1.000  O
  C2       1.0000 0.30810  0.53515  0.46940  Biso   1.000  C
  O3       1.0000 0.83207  0.33230  0.84262  Biso   1.000  O
  C3       1.0000 0.19190  0.46485  0.96940  Biso   1.000  C
  O4       1.0000 0.33207  0.83230  0.34262  Biso   1.000  O
  C4       1.0000 0.69190  0.96485  0.46940  Biso   1.000  C
  O5       1.0000 0.83207  0.66770  0.15738  Biso   1.000  O
  C5       1.0000 0.19190  0.53515  0.03060  Biso   1.000  C
  O6       1.0000 0.33207  0.16770  0.65738  Biso   1.000  O
  C6       1.0000 0.69190  0.03515  0.53060  Biso   1.000  C
  O7       1.0000 0.16793  0.83230  0.15738  Biso   1.000  O
  C7       1.0000 0.80810  0.96485  0.03060  Biso   1.000  C
  O8       1.0000 0.66793  0.33230  0.65738  Biso   1.000  O
  C8       1.0000 0.30810  0.46485  0.53060  Biso   1.000  C
  O9       1.0000 0.83207  0.83230  0.15738  Biso   1.000  O
  C9       1.0000 0.19190  0.96485  0.03060  Biso   1.000  C
  O10      1.0000 0.33207  0.33230  0.65738  Biso   1.000  O
  C10      1.0000 0.69190  0.46485  0.53060  Biso   1.000  C
  O11      1.0000 0.16793  0.66770  0.15738  Biso   1.000  O
  C11      1.0000 0.80810  0.53515  0.03060  Biso   1.000  C
  O12      1.0000 0.66793  0.16770  0.65738  Biso   1.000  O
  C12      1.0000 0.30810  0.03515  0.53060  Biso   1.000  C
  O13      1.0000 0.16793  0.33230  0.84262  Biso   1.000  O
  C13      1.0000 0.80810  0.46485  0.96940  Biso   1.000  C
  O14      1.0000 0.66793  0.83230  0.34262  Biso   1.000  O
  C14      1.0000 0.30810  0.96485  0.46940  Biso   1.000  C
  O15      1.0000 0.83207  0.16770  0.84262  Biso   1.000  O
  C15      1.0000 0.19190  0.03515  0.96940  Biso   1.000  C
  O16      1.0000 0.33207  0.66770  0.34262  Biso   1.000  O
  C16      1.0000 0.69190  0.53515  0.46940  Biso   1.000  C
  Al1      1.0000 0.25000  0.25000  0.75000  Biso   1.000  Al
  Al2      1.0000 0.75000  0.25000  0.75000  Biso   1.000  Al
  Al3      1.0000 0.75000  0.75000  0.25000  Biso   1.000  Al
  Al4      1.0000 0.25000  0.75000  0.25000  Biso   1.000  Al
  O17      1.0000 0.00000  0.25000  0.68610  Biso   1.000  O
  O18      1.0000 0.50000  0.75000  0.18610  Biso   1.000  O
  O19      1.0000 0.00000  0.75000  0.31390  Biso   1.000  O
  O20      1.0000 0.50000  0.25000  0.81390  Biso   1.000  O
  C17      1.0000 0.00000  0.06300  0.94510  Biso   1.000  C
  C18      1.0000 0.00000  0.13775  0.87100  Biso   1.000  C
  C19      1.0000 0.50000  0.56300  0.44510  Biso   1.000  C
  C20      1.0000 0.50000  0.63775  0.37100  Biso   1.000  C
  C21      1.0000 0.00000  0.43700  0.94510  Biso   1.000  C
  C22      1.0000 0.00000  0.36225  0.87100  Biso   1.000  C
  C23      1.0000 0.50000  0.93700  0.44510  Biso   1.000  C
  C24      1.0000 0.50000  0.86225  0.37100  Biso   1.000  C
  C25      1.0000 0.00000  0.56300  0.05490  Biso   1.000  C
  C26      1.0000 0.00000  0.63775  0.12900  Biso   1.000  C
  C27      1.0000 0.50000  0.06300  0.55490  Biso   1.000  C
  C28      1.0000 0.50000  0.13775  0.62900  Biso   1.000  C
  C29      1.0000 0.00000  0.93700  0.05490  Biso   1.000  C
  C30      1.0000 0.00000  0.86225  0.12900  Biso   1.000  C
  C31      1.0000 0.50000  0.43700  0.55490  Biso   1.000  C
  C32      1.0000 0.50000  0.36225  0.62900  Biso   1.000  C
