data_image0
_cell_length_a       6.6285
_cell_length_b       16.7121
_cell_length_c       12.853
_cell_angle_alpha    90
_cell_angle_beta     90
_cell_angle_gamma    90

_symmetry_space_group_name_H-M    "P 1"
_symmetry_int_tables_number       1

loop_
  _symmetry_equiv_pos_as_xyz
  'x, y, z'

loop_
  _atom_site_label
  _atom_site_occupancy
  _atom_site_fract_x
  _atom_site_fract_y
  _atom_site_fract_z
  _atom_site_thermal_displace_type
  _atom_site_B_iso_or_equiv
  _atom_site_type_symbol
  O1       1.0000 0.16496  0.16866  0.84287  Biso   1.000  O
  C1       1.0000 0.80970  0.03598  0.96820  Biso   1.000  C
  O2       1.0000 0.66496  0.66866  0.34287  Biso   1.000  O
  C2       1.0000 0.30970  0.53598  0.46820  Biso   1.000  C
  O3       1.0000 0.83504  0.33134  0.84287  Biso   1.000  O
  C3       1.0000 0.19030  0.46402  0.96820  Biso   1.000  C
  O4       1.0000 0.33504  0.83134  0.34287  Biso   1.000  O
  C4       1.0000 0.69030  0.96402  0.46820  Biso   1.000  C
  O5       1.0000 0.83504  0.66866  0.15713  Biso   1.000  O
  C5       1.0000 0.19030  0.53598  0.03180  Biso   1.000  C
  O6       1.0000 0.33504  0.16866  0.65713  Biso   1.000  O
  C6       1.0000 0.69030  0.03598  0.53180  Biso   1.000  C
  O7       1.0000 0.16496  0.83134  0.15713  Biso   1.000  O
  C7       1.0000 0.80970  0.96402  0.03180  Biso   1.000  C
  O8       1.0000 0.66496  0.33134  0.65713  Biso   1.000  O
  C8       1.0000 0.30970  0.46402  0.53180  Biso   1.000  C
  O9       1.0000 0.83504  0.83134  0.15713  Biso   1.000  O
  C9       1.0000 0.19030  0.96402  0.03180  Biso   1.000  C
  O10      1.0000 0.33504  0.33134  0.65713  Biso   1.000  O
  C10      1.0000 0.69030  0.46402  0.53180  Biso   1.000  C
  O11      1.0000 0.16496  0.66866  0.15713  Biso   1.000  O
  C11      1.0000 0.80970  0.53598  0.03180  Biso   1.000  C
  O12      1.0000 0.66496  0.16866  0.65713  Biso   1.000  O
  C12      1.0000 0.30970  0.03598  0.53180  Biso   1.000  C
  O13      1.0000 0.16496  0.33134  0.84287  Biso   1.000  O
  C13      1.0000 0.80970  0.46402  0.96820  Biso   1.000  C
  O14      1.0000 0.66496  0.83134  0.34287  Biso   1.000  O
  C14      1.0000 0.30970  0.96402  0.46820  Biso   1.000  C
  O15      1.0000 0.83504  0.16866  0.84287  Biso   1.000  O
  C15      1.0000 0.19030  0.03598  0.96820  Biso   1.000  C
  O16      1.0000 0.33504  0.66866  0.34287  Biso   1.000  O
  C16      1.0000 0.69030  0.53598  0.46820  Biso   1.000  C
  Al1      1.0000 0.25000  0.25000  0.75000  Biso   1.000  Al
  Al2      1.0000 0.75000  0.25000  0.75000  Biso   1.000  Al
  Al3      1.0000 0.75000  0.75000  0.25000  Biso   1.000  Al
  Al4      1.0000 0.25000  0.75000  0.25000  Biso   1.000  Al
  O17      1.0000 0.00000  0.25000  0.68540  Biso   1.000  O
  O18      1.0000 0.50000  0.75000  0.18540  Biso   1.000  O
  O19      1.0000 0.00000  0.75000  0.31460  Biso   1.000  O
  O20      1.0000 0.50000  0.25000  0.81460  Biso   1.000  O
  C17      1.0000 0.00000  0.06220  0.94820  Biso   1.000  C
  C18      1.0000 0.00000  0.13580  0.87220  Biso   1.000  C
  C19      1.0000 0.50000  0.56220  0.44820  Biso   1.000  C
  C20      1.0000 0.50000  0.63580  0.37220  Biso   1.000  C
  C21      1.0000 0.00000  0.43780  0.94820  Biso   1.000  C
  C22      1.0000 0.00000  0.36420  0.87220  Biso   1.000  C
  C23      1.0000 0.50000  0.93780  0.44820  Biso   1.000  C
  C24      1.0000 0.50000  0.86420  0.37220  Biso   1.000  C
  C25      1.0000 0.00000  0.56220  0.05180  Biso   1.000  C
  C26      1.0000 0.00000  0.63580  0.12780  Biso   1.000  C
  C27      1.0000 0.50000  0.06220  0.55180  Biso   1.000  C
  C28      1.0000 0.50000  0.13580  0.62780  Biso   1.000  C
  C29      1.0000 0.00000  0.93780  0.05180  Biso   1.000  C
  C30      1.0000 0.00000  0.86420  0.12780  Biso   1.000  C
  C31      1.0000 0.50000  0.43780  0.55180  Biso   1.000  C
  C32      1.0000 0.50000  0.36420  0.62780  Biso   1.000  C
