data_image0
_cell_length_a       6.6293
_cell_length_b       16.7515
_cell_length_c       12.8019
_cell_angle_alpha    90
_cell_angle_beta     90
_cell_angle_gamma    90

_symmetry_space_group_name_H-M    "P 1"
_symmetry_int_tables_number       1

loop_
  _symmetry_equiv_pos_as_xyz
  'x, y, z'

loop_
  _atom_site_label
  _atom_site_occupancy
  _atom_site_fract_x
  _atom_site_fract_y
  _atom_site_fract_z
  _atom_site_thermal_displace_type
  _atom_site_B_iso_or_equiv
  _atom_site_type_symbol
  O1       1.0000 0.16606  0.16780  0.84380  Biso   1.000  O
  C1       1.0000 0.80790  0.03456  0.96680  Biso   1.000  C
  O2       1.0000 0.66606  0.66780  0.34380  Biso   1.000  O
  C2       1.0000 0.30790  0.53456  0.46680  Biso   1.000  C
  O3       1.0000 0.83394  0.33220  0.84380  Biso   1.000  O
  C3       1.0000 0.19210  0.46544  0.96680  Biso   1.000  C
  O4       1.0000 0.33394  0.83220  0.34380  Biso   1.000  O
  C4       1.0000 0.69210  0.96544  0.46680  Biso   1.000  C
  O5       1.0000 0.83394  0.66780  0.15620  Biso   1.000  O
  C5       1.0000 0.19210  0.53456  0.03320  Biso   1.000  C
  O6       1.0000 0.33394  0.16780  0.65620  Biso   1.000  O
  C6       1.0000 0.69210  0.03456  0.53320  Biso   1.000  C
  O7       1.0000 0.16606  0.83220  0.15620  Biso   1.000  O
  C7       1.0000 0.80790  0.96544  0.03320  Biso   1.000  C
  O8       1.0000 0.66606  0.33220  0.65620  Biso   1.000  O
  C8       1.0000 0.30790  0.46544  0.53320  Biso   1.000  C
  O9       1.0000 0.83394  0.83220  0.15620  Biso   1.000  O
  C9       1.0000 0.19210  0.96544  0.03320  Biso   1.000  C
  O10      1.0000 0.33394  0.33220  0.65620  Biso   1.000  O
  C10      1.0000 0.69210  0.46544  0.53320  Biso   1.000  C
  O11      1.0000 0.16606  0.66780  0.15620  Biso   1.000  O
  C11      1.0000 0.80790  0.53456  0.03320  Biso   1.000  C
  O12      1.0000 0.66606  0.16780  0.65620  Biso   1.000  O
  C12      1.0000 0.30790  0.03456  0.53320  Biso   1.000  C
  O13      1.0000 0.16606  0.33220  0.84380  Biso   1.000  O
  C13      1.0000 0.80790  0.46544  0.96680  Biso   1.000  C
  O14      1.0000 0.66606  0.83220  0.34380  Biso   1.000  O
  C14      1.0000 0.30790  0.96544  0.46680  Biso   1.000  C
  O15      1.0000 0.83394  0.16780  0.84380  Biso   1.000  O
  C15      1.0000 0.19210  0.03456  0.96680  Biso   1.000  C
  O16      1.0000 0.33394  0.66780  0.34380  Biso   1.000  O
  C16      1.0000 0.69210  0.53456  0.46680  Biso   1.000  C
  Al1      1.0000 0.25000  0.25000  0.75000  Biso   1.000  Al
  Al2      1.0000 0.75000  0.25000  0.75000  Biso   1.000  Al
  Al3      1.0000 0.75000  0.75000  0.25000  Biso   1.000  Al
  Al4      1.0000 0.25000  0.75000  0.25000  Biso   1.000  Al
  O17      1.0000 0.00000  0.25000  0.68450  Biso   1.000  O
  O18      1.0000 0.50000  0.75000  0.18450  Biso   1.000  O
  O19      1.0000 0.00000  0.75000  0.31550  Biso   1.000  O
  O20      1.0000 0.50000  0.25000  0.81550  Biso   1.000  O
  C17      1.0000 0.00000  0.06260  0.94570  Biso   1.000  C
  C18      1.0000 0.00000  0.13860  0.87020  Biso   1.000  C
  C19      1.0000 0.50000  0.56260  0.44570  Biso   1.000  C
  C20      1.0000 0.50000  0.63860  0.37020  Biso   1.000  C
  C21      1.0000 0.00000  0.43740  0.94570  Biso   1.000  C
  C22      1.0000 0.00000  0.36140  0.87020  Biso   1.000  C
  C23      1.0000 0.50000  0.93740  0.44570  Biso   1.000  C
  C24      1.0000 0.50000  0.86140  0.37020  Biso   1.000  C
  C25      1.0000 0.00000  0.56260  0.05430  Biso   1.000  C
  C26      1.0000 0.00000  0.63860  0.12980  Biso   1.000  C
  C27      1.0000 0.50000  0.06260  0.55430  Biso   1.000  C
  C28      1.0000 0.50000  0.13860  0.62980  Biso   1.000  C
  C29      1.0000 0.00000  0.93740  0.05430  Biso   1.000  C
  C30      1.0000 0.00000  0.86140  0.12980  Biso   1.000  C
  C31      1.0000 0.50000  0.43740  0.55430  Biso   1.000  C
  C32      1.0000 0.50000  0.36140  0.62980  Biso   1.000  C
