data_image0
_cell_length_a       6.5681
_cell_length_b       16.3928
_cell_length_c       13.1995
_cell_angle_alpha    90
_cell_angle_beta     90
_cell_angle_gamma    90

_symmetry_space_group_name_H-M    "P 1"
_symmetry_int_tables_number       1

loop_
  _symmetry_equiv_pos_as_xyz
  'x, y, z'

loop_
  _atom_site_label
  _atom_site_occupancy
  _atom_site_fract_x
  _atom_site_fract_y
  _atom_site_fract_z
  _atom_site_thermal_displace_type
  _atom_site_B_iso_or_equiv
  _atom_site_type_symbol
  O1       1.0000 0.16710  0.16883  0.83996  Biso   1.000  O
  C1       1.0000 0.80480  0.02990  0.95770  Biso   1.000  C
  O2       1.0000 0.66710  0.66883  0.33996  Biso   1.000  O
  C2       1.0000 0.30480  0.52990  0.45770  Biso   1.000  C
  O3       1.0000 0.83290  0.33117  0.83996  Biso   1.000  O
  C3       1.0000 0.19520  0.47010  0.95770  Biso   1.000  C
  O4       1.0000 0.33290  0.83117  0.33996  Biso   1.000  O
  C4       1.0000 0.69520  0.97010  0.45770  Biso   1.000  C
  O5       1.0000 0.83290  0.66883  0.16004  Biso   1.000  O
  C5       1.0000 0.19520  0.52990  0.04230  Biso   1.000  C
  O6       1.0000 0.33290  0.16883  0.66004  Biso   1.000  O
  C6       1.0000 0.69520  0.02990  0.54230  Biso   1.000  C
  O7       1.0000 0.16710  0.83117  0.16004  Biso   1.000  O
  C7       1.0000 0.80480  0.97010  0.04230  Biso   1.000  C
  O8       1.0000 0.66710  0.33117  0.66004  Biso   1.000  O
  C8       1.0000 0.30480  0.47010  0.54230  Biso   1.000  C
  O9       1.0000 0.83290  0.83117  0.16004  Biso   1.000  O
  C9       1.0000 0.19520  0.97010  0.04230  Biso   1.000  C
  O10      1.0000 0.33290  0.33117  0.66004  Biso   1.000  O
  C10      1.0000 0.69520  0.47010  0.54230  Biso   1.000  C
  O11      1.0000 0.16710  0.66883  0.16004  Biso   1.000  O
  C11      1.0000 0.80480  0.52990  0.04230  Biso   1.000  C
  O12      1.0000 0.66710  0.16883  0.66004  Biso   1.000  O
  C12      1.0000 0.30480  0.02990  0.54230  Biso   1.000  C
  O13      1.0000 0.16710  0.33117  0.83996  Biso   1.000  O
  C13      1.0000 0.80480  0.47010  0.95770  Biso   1.000  C
  O14      1.0000 0.66710  0.83117  0.33996  Biso   1.000  O
  C14      1.0000 0.30480  0.97010  0.45770  Biso   1.000  C
  O15      1.0000 0.83290  0.16883  0.83996  Biso   1.000  O
  C15      1.0000 0.19520  0.02990  0.95770  Biso   1.000  C
  O16      1.0000 0.33290  0.66883  0.33996  Biso   1.000  O
  C16      1.0000 0.69520  0.52990  0.45770  Biso   1.000  C
  Al1      1.0000 0.25000  0.25000  0.75000  Biso   1.000  Al
  Al2      1.0000 0.75000  0.25000  0.75000  Biso   1.000  Al
  Al3      1.0000 0.75000  0.75000  0.25000  Biso   1.000  Al
  Al4      1.0000 0.25000  0.75000  0.25000  Biso   1.000  Al
  F1       1.0000 0.00000  0.25000  0.69240  Biso   1.000  F
  F2       1.0000 0.50000  0.75000  0.19240  Biso   1.000  F
  F3       1.0000 0.00000  0.75000  0.30760  Biso   1.000  F
  F4       1.0000 0.50000  0.25000  0.80760  Biso   1.000  F
  C17      1.0000 0.00000  0.06250  0.94790  Biso   1.000  C
  C18      1.0000 0.00000  0.13510  0.86980  Biso   1.000  C
  C19      1.0000 0.50000  0.56250  0.44790  Biso   1.000  C
  C20      1.0000 0.50000  0.63510  0.36980  Biso   1.000  C
  C21      1.0000 0.00000  0.43750  0.94790  Biso   1.000  C
  C22      1.0000 0.00000  0.36490  0.86980  Biso   1.000  C
  C23      1.0000 0.50000  0.93750  0.44790  Biso   1.000  C
  C24      1.0000 0.50000  0.86490  0.36980  Biso   1.000  C
  C25      1.0000 0.00000  0.56250  0.05210  Biso   1.000  C
  C26      1.0000 0.00000  0.63510  0.13020  Biso   1.000  C
  C27      1.0000 0.50000  0.06250  0.55210  Biso   1.000  C
  C28      1.0000 0.50000  0.13510  0.63020  Biso   1.000  C
  C29      1.0000 0.00000  0.93750  0.05210  Biso   1.000  C
  C30      1.0000 0.00000  0.86490  0.13020  Biso   1.000  C
  C31      1.0000 0.50000  0.43750  0.55210  Biso   1.000  C
  C32      1.0000 0.50000  0.36490  0.63020  Biso   1.000  C
