data_image0
_cell_length_a       6.6303
_cell_length_b       16.7902
_cell_length_c       12.7538
_cell_angle_alpha    90
_cell_angle_beta     90
_cell_angle_gamma    90

_symmetry_space_group_name_H-M    "P 1"
_symmetry_int_tables_number       1

loop_
  _symmetry_equiv_pos_as_xyz
  'x, y, z'

loop_
  _atom_site_label
  _atom_site_occupancy
  _atom_site_fract_x
  _atom_site_fract_y
  _atom_site_fract_z
  _atom_site_thermal_displace_type
  _atom_site_B_iso_or_equiv
  _atom_site_type_symbol
  O1       1.0000 0.16756  0.16808  0.84351  Biso   1.000  O
  C1       1.0000 0.80780  0.03565  0.96960  Biso   1.000  C
  O2       1.0000 0.66756  0.66808  0.34351  Biso   1.000  O
  C2       1.0000 0.30780  0.53565  0.46960  Biso   1.000  C
  O3       1.0000 0.83244  0.33192  0.84351  Biso   1.000  O
  C3       1.0000 0.19220  0.46435  0.96960  Biso   1.000  C
  O4       1.0000 0.33244  0.83192  0.34351  Biso   1.000  O
  C4       1.0000 0.69220  0.96435  0.46960  Biso   1.000  C
  O5       1.0000 0.83244  0.66808  0.15649  Biso   1.000  O
  C5       1.0000 0.19220  0.53565  0.03040  Biso   1.000  C
  O6       1.0000 0.33244  0.16808  0.65649  Biso   1.000  O
  C6       1.0000 0.69220  0.03565  0.53040  Biso   1.000  C
  O7       1.0000 0.16756  0.83192  0.15649  Biso   1.000  O
  C7       1.0000 0.80780  0.96435  0.03040  Biso   1.000  C
  O8       1.0000 0.66756  0.33192  0.65649  Biso   1.000  O
  C8       1.0000 0.30780  0.46435  0.53040  Biso   1.000  C
  O9       1.0000 0.83244  0.83192  0.15649  Biso   1.000  O
  C9       1.0000 0.19220  0.96435  0.03040  Biso   1.000  C
  O10      1.0000 0.33244  0.33192  0.65649  Biso   1.000  O
  C10      1.0000 0.69220  0.46435  0.53040  Biso   1.000  C
  O11      1.0000 0.16756  0.66808  0.15649  Biso   1.000  O
  C11      1.0000 0.80780  0.53565  0.03040  Biso   1.000  C
  O12      1.0000 0.66756  0.16808  0.65649  Biso   1.000  O
  C12      1.0000 0.30780  0.03565  0.53040  Biso   1.000  C
  O13      1.0000 0.16756  0.33192  0.84351  Biso   1.000  O
  C13      1.0000 0.80780  0.46435  0.96960  Biso   1.000  C
  O14      1.0000 0.66756  0.83192  0.34351  Biso   1.000  O
  C14      1.0000 0.30780  0.96435  0.46960  Biso   1.000  C
  O15      1.0000 0.83244  0.16808  0.84351  Biso   1.000  O
  C15      1.0000 0.19220  0.03565  0.96960  Biso   1.000  C
  O16      1.0000 0.33244  0.66808  0.34351  Biso   1.000  O
  C16      1.0000 0.69220  0.53565  0.46960  Biso   1.000  C
  Al1      1.0000 0.25000  0.25000  0.75000  Biso   1.000  Al
  Al2      1.0000 0.75000  0.25000  0.75000  Biso   1.000  Al
  Al3      1.0000 0.75000  0.75000  0.25000  Biso   1.000  Al
  Al4      1.0000 0.25000  0.75000  0.25000  Biso   1.000  Al
  O17      1.0000 0.00000  0.25000  0.68460  Biso   1.000  O
  O18      1.0000 0.50000  0.75000  0.18460  Biso   1.000  O
  O19      1.0000 0.00000  0.75000  0.31540  Biso   1.000  O
  O20      1.0000 0.50000  0.25000  0.81540  Biso   1.000  O
  C17      1.0000 0.00000  0.06265  0.94500  Biso   1.000  C
  C18      1.0000 0.00000  0.13756  0.87110  Biso   1.000  C
  C19      1.0000 0.50000  0.56265  0.44500  Biso   1.000  C
  C20      1.0000 0.50000  0.63756  0.37110  Biso   1.000  C
  C21      1.0000 0.00000  0.43735  0.94500  Biso   1.000  C
  C22      1.0000 0.00000  0.36244  0.87110  Biso   1.000  C
  C23      1.0000 0.50000  0.93735  0.44500  Biso   1.000  C
  C24      1.0000 0.50000  0.86244  0.37110  Biso   1.000  C
  C25      1.0000 0.00000  0.56265  0.05500  Biso   1.000  C
  C26      1.0000 0.00000  0.63756  0.12890  Biso   1.000  C
  C27      1.0000 0.50000  0.06265  0.55500  Biso   1.000  C
  C28      1.0000 0.50000  0.13756  0.62890  Biso   1.000  C
  C29      1.0000 0.00000  0.93735  0.05500  Biso   1.000  C
  C30      1.0000 0.00000  0.86244  0.12890  Biso   1.000  C
  C31      1.0000 0.50000  0.43735  0.55500  Biso   1.000  C
  C32      1.0000 0.50000  0.36244  0.62890  Biso   1.000  C
