data_image0
_cell_length_a       6.5668
_cell_length_b       16.3971
_cell_length_c       13.2021
_cell_angle_alpha    90
_cell_angle_beta     90
_cell_angle_gamma    90.139

_symmetry_space_group_name_H-M    "P 1"
_symmetry_int_tables_number       1

loop_
  _symmetry_equiv_pos_as_xyz
  'x, y, z'

loop_
  _atom_site_label
  _atom_site_occupancy
  _atom_site_fract_x
  _atom_site_fract_y
  _atom_site_fract_z
  _atom_site_thermal_displace_type
  _atom_site_B_iso_or_equiv
  _atom_site_type_symbol
  O1       1.0000 0.16090  0.16920  0.84860  Biso   1.000  O
  O2       1.0000 0.82060  0.66520  0.17010  Biso   1.000  O
  C1       1.0000 0.81130  0.02460  0.95780  Biso   1.000  C
  C2       1.0000 0.98710  0.06680  0.94280  Biso   1.000  C
  C3       1.0000 0.00200  0.13690  0.86960  Biso   1.000  C
  C4       1.0000 0.20280  0.53330  0.03570  Biso   1.000  C
  O3       1.0000 0.66090  0.66920  0.34860  Biso   1.000  O
  O4       1.0000 0.32060  0.16520  0.67010  Biso   1.000  O
  C5       1.0000 0.31130  0.52460  0.45780  Biso   1.000  C
  C6       1.0000 0.48710  0.56680  0.44280  Biso   1.000  C
  C7       1.0000 0.50200  0.63690  0.36960  Biso   1.000  C
  C8       1.0000 0.70280  0.03330  0.53570  Biso   1.000  C
  O5       1.0000 0.83910  0.33080  0.84860  Biso   1.000  O
  O6       1.0000 0.17940  0.83480  0.17010  Biso   1.000  O
  C9       1.0000 0.18870  0.47540  0.95780  Biso   1.000  C
  C10      1.0000 0.01290  0.43320  0.94280  Biso   1.000  C
  C11      1.0000 0.99800  0.36310  0.86960  Biso   1.000  C
  C12      1.0000 0.79720  0.96670  0.03570  Biso   1.000  C
  O7       1.0000 0.33910  0.83080  0.34860  Biso   1.000  O
  O8       1.0000 0.67940  0.33480  0.67010  Biso   1.000  O
  C13      1.0000 0.68870  0.97540  0.45780  Biso   1.000  C
  C14      1.0000 0.51290  0.93320  0.44280  Biso   1.000  C
  C15      1.0000 0.49800  0.86310  0.36960  Biso   1.000  C
  C16      1.0000 0.29720  0.46670  0.53570  Biso   1.000  C
  O9       1.0000 0.83910  0.83080  0.15140  Biso   1.000  O
  O10      1.0000 0.17940  0.33480  0.82990  Biso   1.000  O
  C17      1.0000 0.18870  0.97540  0.04220  Biso   1.000  C
  C18      1.0000 0.01290  0.93320  0.05720  Biso   1.000  C
  C19      1.0000 0.99800  0.86310  0.13040  Biso   1.000  C
  C20      1.0000 0.79720  0.46670  0.96430  Biso   1.000  C
  O11      1.0000 0.33910  0.33080  0.65140  Biso   1.000  O
  O12      1.0000 0.67940  0.83480  0.32990  Biso   1.000  O
  C21      1.0000 0.68870  0.47540  0.54220  Biso   1.000  C
  C22      1.0000 0.51290  0.43320  0.55720  Biso   1.000  C
  C23      1.0000 0.49800  0.36310  0.63040  Biso   1.000  C
  C24      1.0000 0.29720  0.96670  0.46430  Biso   1.000  C
  O13      1.0000 0.16090  0.66920  0.15140  Biso   1.000  O
  O14      1.0000 0.82060  0.16520  0.82990  Biso   1.000  O
  C25      1.0000 0.81130  0.52460  0.04220  Biso   1.000  C
  C26      1.0000 0.98710  0.56680  0.05720  Biso   1.000  C
  C27      1.0000 0.00200  0.63690  0.13040  Biso   1.000  C
  C28      1.0000 0.20280  0.03330  0.96430  Biso   1.000  C
  O15      1.0000 0.66090  0.16920  0.65140  Biso   1.000  O
  O16      1.0000 0.32060  0.66520  0.32990  Biso   1.000  O
  C29      1.0000 0.31130  0.02460  0.54220  Biso   1.000  C
  C30      1.0000 0.48710  0.06680  0.55720  Biso   1.000  C
  C31      1.0000 0.50200  0.13690  0.63040  Biso   1.000  C
  C32      1.0000 0.70280  0.53330  0.46430  Biso   1.000  C
  Al1      1.0000 0.25000  0.25000  0.75000  Biso   1.000  Al
  Al2      1.0000 0.75000  0.25000  0.75000  Biso   1.000  Al
  Al3      1.0000 0.75000  0.75000  0.25000  Biso   1.000  Al
  Al4      1.0000 0.25000  0.75000  0.25000  Biso   1.000  Al
  F1       1.0000 0.00000  0.25000  0.69070  Biso   1.000  F
  F2       1.0000 0.50000  0.75000  0.19070  Biso   1.000  F
  F3       1.0000 0.00000  0.75000  0.30930  Biso   1.000  F
  F4       1.0000 0.50000  0.25000  0.80930  Biso   1.000  F
