data_image0
_cell_length_a       6.5528
_cell_length_b       16.4391
_cell_length_c       13.1381
_cell_angle_alpha    90
_cell_angle_beta     90
_cell_angle_gamma    90.5749

_symmetry_space_group_name_H-M    "P 1"
_symmetry_int_tables_number       1

loop_
  _symmetry_equiv_pos_as_xyz
  'x, y, z'

loop_
  _atom_site_label
  _atom_site_occupancy
  _atom_site_fract_x
  _atom_site_fract_y
  _atom_site_fract_z
  _atom_site_thermal_displace_type
  _atom_site_B_iso_or_equiv
  _atom_site_type_symbol
  O1       1.0000 0.15770  0.17412  0.85320  Biso   1.000  O
  O2       1.0000 0.81880  0.65840  0.16630  Biso   1.000  O
  C1       1.0000 0.79830  0.02390  0.94990  Biso   1.000  C
  C2       1.0000 0.00060  0.06150  0.94500  Biso   1.000  C
  C3       1.0000 0.00110  0.13710  0.86620  Biso   1.000  C
  C4       1.0000 0.19570  0.54160  0.02500  Biso   1.000  C
  O3       1.0000 0.65770  0.67412  0.35320  Biso   1.000  O
  O4       1.0000 0.31880  0.15840  0.66630  Biso   1.000  O
  C5       1.0000 0.29830  0.52390  0.44990  Biso   1.000  C
  C6       1.0000 0.50060  0.56150  0.44500  Biso   1.000  C
  C7       1.0000 0.50110  0.63710  0.36620  Biso   1.000  C
  C8       1.0000 0.69570  0.04160  0.52500  Biso   1.000  C
  O5       1.0000 0.84230  0.32588  0.85320  Biso   1.000  O
  O6       1.0000 0.18120  0.84160  0.16630  Biso   1.000  O
  C9       1.0000 0.20170  0.47610  0.94990  Biso   1.000  C
  C10      1.0000 0.99940  0.43850  0.94500  Biso   1.000  C
  C11      1.0000 0.99890  0.36290  0.86620  Biso   1.000  C
  C12      1.0000 0.80430  0.95840  0.02500  Biso   1.000  C
  O7       1.0000 0.34230  0.82588  0.35320  Biso   1.000  O
  O8       1.0000 0.68120  0.34160  0.66630  Biso   1.000  O
  C13      1.0000 0.70170  0.97610  0.44990  Biso   1.000  C
  C14      1.0000 0.49940  0.93850  0.44500  Biso   1.000  C
  C15      1.0000 0.49890  0.86290  0.36620  Biso   1.000  C
  C16      1.0000 0.30430  0.45840  0.52500  Biso   1.000  C
  O9       1.0000 0.84230  0.82588  0.14680  Biso   1.000  O
  O10      1.0000 0.18120  0.34160  0.83370  Biso   1.000  O
  C17      1.0000 0.20170  0.97610  0.05010  Biso   1.000  C
  C18      1.0000 0.99940  0.93850  0.05500  Biso   1.000  C
  C19      1.0000 0.99890  0.86290  0.13380  Biso   1.000  C
  C20      1.0000 0.80430  0.45840  0.97500  Biso   1.000  C
  O11      1.0000 0.34230  0.32588  0.64680  Biso   1.000  O
  O12      1.0000 0.68120  0.84160  0.33370  Biso   1.000  O
  C21      1.0000 0.70170  0.47610  0.55010  Biso   1.000  C
  C22      1.0000 0.49940  0.43850  0.55500  Biso   1.000  C
  C23      1.0000 0.49890  0.36290  0.63380  Biso   1.000  C
  C24      1.0000 0.30430  0.95840  0.47500  Biso   1.000  C
  O13      1.0000 0.15770  0.67412  0.14680  Biso   1.000  O
  O14      1.0000 0.81880  0.15840  0.83370  Biso   1.000  O
  C25      1.0000 0.79830  0.52390  0.05010  Biso   1.000  C
  C26      1.0000 0.00060  0.56150  0.05500  Biso   1.000  C
  C27      1.0000 0.00110  0.63710  0.13380  Biso   1.000  C
  C28      1.0000 0.19570  0.04160  0.97500  Biso   1.000  C
  O15      1.0000 0.65770  0.17412  0.64680  Biso   1.000  O
  O16      1.0000 0.31880  0.65840  0.33370  Biso   1.000  O
  C29      1.0000 0.29830  0.02390  0.55010  Biso   1.000  C
  C30      1.0000 0.50060  0.06150  0.55500  Biso   1.000  C
  C31      1.0000 0.50110  0.13710  0.63380  Biso   1.000  C
  C32      1.0000 0.69570  0.54160  0.47500  Biso   1.000  C
  Al1      1.0000 0.25000  0.25000  0.75000  Biso   1.000  Al
  Al2      1.0000 0.75000  0.25000  0.75000  Biso   1.000  Al
  Al3      1.0000 0.75000  0.75000  0.25000  Biso   1.000  Al
  Al4      1.0000 0.25000  0.75000  0.25000  Biso   1.000  Al
  F1       1.0000 0.00000  0.25000  0.68960  Biso   1.000  F
  F2       1.0000 0.50000  0.75000  0.18960  Biso   1.000  F
  F3       1.0000 0.00000  0.75000  0.31040  Biso   1.000  F
  F4       1.0000 0.50000  0.25000  0.81040  Biso   1.000  F
