data_image0
_cell_length_a       6.562
_cell_length_b       16.4171
_cell_length_c       13.1717
_cell_angle_alpha    90
_cell_angle_beta     90
_cell_angle_gamma    90.3983

_symmetry_space_group_name_H-M    "P 1"
_symmetry_int_tables_number       1

loop_
  _symmetry_equiv_pos_as_xyz
  'x, y, z'

loop_
  _atom_site_label
  _atom_site_occupancy
  _atom_site_fract_x
  _atom_site_fract_y
  _atom_site_fract_z
  _atom_site_thermal_displace_type
  _atom_site_B_iso_or_equiv
  _atom_site_type_symbol
  O1       1.0000 0.16180  0.17230  0.84660  Biso   1.000  O
  O2       1.0000 0.82580  0.66210  0.16860  Biso   1.000  O
  C1       1.0000 0.80640  0.02320  0.95330  Biso   1.000  C
  C2       1.0000 0.99640  0.06590  0.94380  Biso   1.000  C
  C3       1.0000 0.99520  0.13550  0.86970  Biso   1.000  C
  C4       1.0000 0.20010  0.53570  0.02920  Biso   1.000  C
  O3       1.0000 0.66180  0.67230  0.34660  Biso   1.000  O
  O4       1.0000 0.32580  0.16210  0.66860  Biso   1.000  O
  C5       1.0000 0.30640  0.52320  0.45330  Biso   1.000  C
  C6       1.0000 0.49640  0.56590  0.44380  Biso   1.000  C
  C7       1.0000 0.49520  0.63550  0.36970  Biso   1.000  C
  C8       1.0000 0.70010  0.03570  0.52920  Biso   1.000  C
  O5       1.0000 0.83820  0.32770  0.84660  Biso   1.000  O
  O6       1.0000 0.17420  0.83790  0.16860  Biso   1.000  O
  C9       1.0000 0.19360  0.47680  0.95330  Biso   1.000  C
  C10      1.0000 0.00360  0.43410  0.94380  Biso   1.000  C
  C11      1.0000 0.00480  0.36450  0.86970  Biso   1.000  C
  C12      1.0000 0.79990  0.96430  0.02920  Biso   1.000  C
  O7       1.0000 0.33820  0.82770  0.34660  Biso   1.000  O
  O8       1.0000 0.67420  0.33790  0.66860  Biso   1.000  O
  C13      1.0000 0.69360  0.97680  0.45330  Biso   1.000  C
  C14      1.0000 0.50360  0.93410  0.44380  Biso   1.000  C
  C15      1.0000 0.50480  0.86450  0.36970  Biso   1.000  C
  C16      1.0000 0.29990  0.46430  0.52920  Biso   1.000  C
  O9       1.0000 0.83820  0.82770  0.15340  Biso   1.000  O
  O10      1.0000 0.17420  0.33790  0.83140  Biso   1.000  O
  C17      1.0000 0.19360  0.97680  0.04670  Biso   1.000  C
  C18      1.0000 0.00360  0.93410  0.05620  Biso   1.000  C
  C19      1.0000 0.00480  0.86450  0.13030  Biso   1.000  C
  C20      1.0000 0.79990  0.46430  0.97080  Biso   1.000  C
  O11      1.0000 0.33820  0.32770  0.65340  Biso   1.000  O
  O12      1.0000 0.67420  0.83790  0.33140  Biso   1.000  O
  C21      1.0000 0.69360  0.47680  0.54670  Biso   1.000  C
  C22      1.0000 0.50360  0.43410  0.55620  Biso   1.000  C
  C23      1.0000 0.50480  0.36450  0.63030  Biso   1.000  C
  C24      1.0000 0.29990  0.96430  0.47080  Biso   1.000  C
  O13      1.0000 0.16180  0.67230  0.15340  Biso   1.000  O
  O14      1.0000 0.82580  0.16210  0.83140  Biso   1.000  O
  C25      1.0000 0.80640  0.52320  0.04670  Biso   1.000  C
  C26      1.0000 0.99640  0.56590  0.05620  Biso   1.000  C
  C27      1.0000 0.99520  0.63550  0.13030  Biso   1.000  C
  C28      1.0000 0.20010  0.03570  0.97080  Biso   1.000  C
  O15      1.0000 0.66180  0.17230  0.65340  Biso   1.000  O
  O16      1.0000 0.32580  0.66210  0.33140  Biso   1.000  O
  C29      1.0000 0.30640  0.02320  0.54670  Biso   1.000  C
  C30      1.0000 0.49640  0.06590  0.55620  Biso   1.000  C
  C31      1.0000 0.49520  0.13550  0.63030  Biso   1.000  C
  C32      1.0000 0.70010  0.53570  0.47080  Biso   1.000  C
  Al1      1.0000 0.25000  0.25000  0.75000  Biso   1.000  Al
  Al2      1.0000 0.75000  0.25000  0.75000  Biso   1.000  Al
  Al3      1.0000 0.75000  0.75000  0.25000  Biso   1.000  Al
  Al4      1.0000 0.25000  0.75000  0.25000  Biso   1.000  Al
  F1       1.0000 0.00000  0.25000  0.69050  Biso   1.000  F
  F2       1.0000 0.50000  0.75000  0.19050  Biso   1.000  F
  F3       1.0000 0.00000  0.75000  0.30950  Biso   1.000  F
  F4       1.0000 0.50000  0.25000  0.80950  Biso   1.000  F
