data_image0
_cell_length_a       6.5539
_cell_length_b       16.439
_cell_length_c       13.1379
_cell_angle_alpha    90
_cell_angle_beta     90
_cell_angle_gamma    90.5441

_symmetry_space_group_name_H-M    "P 1"
_symmetry_int_tables_number       1

loop_
  _symmetry_equiv_pos_as_xyz
  'x, y, z'

loop_
  _atom_site_label
  _atom_site_occupancy
  _atom_site_fract_x
  _atom_site_fract_y
  _atom_site_fract_z
  _atom_site_thermal_displace_type
  _atom_site_B_iso_or_equiv
  _atom_site_type_symbol
  O1       1.0000 0.15870  0.17412  0.85300  Biso   1.000  O
  O2       1.0000 0.81870  0.65915  0.16580  Biso   1.000  O
  C1       1.0000 0.79690  0.02450  0.95050  Biso   1.000  C
  C2       1.0000 0.00370  0.06260  0.94580  Biso   1.000  C
  C3       1.0000 0.00140  0.13630  0.86680  Biso   1.000  C
  C4       1.0000 0.19330  0.54010  0.02440  Biso   1.000  C
  O3       1.0000 0.65870  0.67412  0.35300  Biso   1.000  O
  O4       1.0000 0.31870  0.15915  0.66580  Biso   1.000  O
  C5       1.0000 0.29690  0.52450  0.45050  Biso   1.000  C
  C6       1.0000 0.50370  0.56260  0.44580  Biso   1.000  C
  C7       1.0000 0.50140  0.63630  0.36680  Biso   1.000  C
  C8       1.0000 0.69330  0.04010  0.52440  Biso   1.000  C
  O5       1.0000 0.84130  0.32588  0.85300  Biso   1.000  O
  O6       1.0000 0.18130  0.84085  0.16580  Biso   1.000  O
  C9       1.0000 0.20310  0.47550  0.95050  Biso   1.000  C
  C10      1.0000 0.99630  0.43740  0.94580  Biso   1.000  C
  C11      1.0000 0.99860  0.36370  0.86680  Biso   1.000  C
  C12      1.0000 0.80670  0.95990  0.02440  Biso   1.000  C
  O7       1.0000 0.34130  0.82588  0.35300  Biso   1.000  O
  O8       1.0000 0.68130  0.34085  0.66580  Biso   1.000  O
  C13      1.0000 0.70310  0.97550  0.45050  Biso   1.000  C
  C14      1.0000 0.49630  0.93740  0.44580  Biso   1.000  C
  C15      1.0000 0.49860  0.86370  0.36680  Biso   1.000  C
  C16      1.0000 0.30670  0.45990  0.52440  Biso   1.000  C
  O9       1.0000 0.84130  0.82588  0.14700  Biso   1.000  O
  O10      1.0000 0.18130  0.34085  0.83420  Biso   1.000  O
  C17      1.0000 0.20310  0.97550  0.04950  Biso   1.000  C
  C18      1.0000 0.99630  0.93740  0.05420  Biso   1.000  C
  C19      1.0000 0.99860  0.86370  0.13320  Biso   1.000  C
  C20      1.0000 0.80670  0.45990  0.97560  Biso   1.000  C
  O11      1.0000 0.34130  0.32588  0.64700  Biso   1.000  O
  O12      1.0000 0.68130  0.84085  0.33420  Biso   1.000  O
  C21      1.0000 0.70310  0.47550  0.54950  Biso   1.000  C
  C22      1.0000 0.49630  0.43740  0.55420  Biso   1.000  C
  C23      1.0000 0.49860  0.36370  0.63320  Biso   1.000  C
  C24      1.0000 0.30670  0.95990  0.47560  Biso   1.000  C
  O13      1.0000 0.15870  0.67412  0.14700  Biso   1.000  O
  O14      1.0000 0.81870  0.15915  0.83420  Biso   1.000  O
  C25      1.0000 0.79690  0.52450  0.04950  Biso   1.000  C
  C26      1.0000 0.00370  0.56260  0.05420  Biso   1.000  C
  C27      1.0000 0.00140  0.63630  0.13320  Biso   1.000  C
  C28      1.0000 0.19330  0.04010  0.97560  Biso   1.000  C
  O15      1.0000 0.65870  0.17412  0.64700  Biso   1.000  O
  O16      1.0000 0.31870  0.65915  0.33420  Biso   1.000  O
  C29      1.0000 0.29690  0.02450  0.54950  Biso   1.000  C
  C30      1.0000 0.50370  0.06260  0.55420  Biso   1.000  C
  C31      1.0000 0.50140  0.13630  0.63320  Biso   1.000  C
  C32      1.0000 0.69330  0.54010  0.47560  Biso   1.000  C
  Al1      1.0000 0.25000  0.25000  0.75000  Biso   1.000  Al
  Al2      1.0000 0.75000  0.25000  0.75000  Biso   1.000  Al
  Al3      1.0000 0.75000  0.75000  0.25000  Biso   1.000  Al
  Al4      1.0000 0.25000  0.75000  0.25000  Biso   1.000  Al
  F1       1.0000 0.00000  0.25000  0.69060  Biso   1.000  F
  F2       1.0000 0.50000  0.75000  0.19060  Biso   1.000  F
  F3       1.0000 0.00000  0.75000  0.30940  Biso   1.000  F
  F4       1.0000 0.50000  0.25000  0.80940  Biso   1.000  F
