data_image0
_cell_length_a       6.568
_cell_length_b       16.3885
_cell_length_c       13.1682
_cell_angle_alpha    90
_cell_angle_beta     90
_cell_angle_gamma    90

_symmetry_space_group_name_H-M    "P 1"
_symmetry_int_tables_number       1

loop_
  _symmetry_equiv_pos_as_xyz
  'x, y, z'

loop_
  _atom_site_label
  _atom_site_occupancy
  _atom_site_fract_x
  _atom_site_fract_y
  _atom_site_fract_z
  _atom_site_thermal_displace_type
  _atom_site_B_iso_or_equiv
  _atom_site_type_symbol
  O1       1.0000 0.16920  0.16741  0.83870  Biso   1.000  O
  C1       1.0000 0.80830  0.02770  0.95660  Biso   1.000  C
  O2       1.0000 0.66920  0.66741  0.33870  Biso   1.000  O
  C2       1.0000 0.30830  0.52770  0.45660  Biso   1.000  C
  O3       1.0000 0.83080  0.33259  0.83870  Biso   1.000  O
  C3       1.0000 0.19170  0.47230  0.95660  Biso   1.000  C
  O4       1.0000 0.33080  0.83259  0.33870  Biso   1.000  O
  C4       1.0000 0.69170  0.97230  0.45660  Biso   1.000  C
  O5       1.0000 0.83080  0.66741  0.16130  Biso   1.000  O
  C5       1.0000 0.19170  0.52770  0.04340  Biso   1.000  C
  O6       1.0000 0.33080  0.16741  0.66130  Biso   1.000  O
  C6       1.0000 0.69170  0.02770  0.54340  Biso   1.000  C
  O7       1.0000 0.16920  0.83259  0.16130  Biso   1.000  O
  C7       1.0000 0.80830  0.97230  0.04340  Biso   1.000  C
  O8       1.0000 0.66920  0.33259  0.66130  Biso   1.000  O
  C8       1.0000 0.30830  0.47230  0.54340  Biso   1.000  C
  O9       1.0000 0.83080  0.83259  0.16130  Biso   1.000  O
  C9       1.0000 0.19170  0.97230  0.04340  Biso   1.000  C
  O10      1.0000 0.33080  0.33259  0.66130  Biso   1.000  O
  C10      1.0000 0.69170  0.47230  0.54340  Biso   1.000  C
  O11      1.0000 0.16920  0.66741  0.16130  Biso   1.000  O
  C11      1.0000 0.80830  0.52770  0.04340  Biso   1.000  C
  O12      1.0000 0.66920  0.16741  0.66130  Biso   1.000  O
  C12      1.0000 0.30830  0.02770  0.54340  Biso   1.000  C
  O13      1.0000 0.16920  0.33259  0.83870  Biso   1.000  O
  C13      1.0000 0.80830  0.47230  0.95660  Biso   1.000  C
  O14      1.0000 0.66920  0.83259  0.33870  Biso   1.000  O
  C14      1.0000 0.30830  0.97230  0.45660  Biso   1.000  C
  O15      1.0000 0.83080  0.16741  0.83870  Biso   1.000  O
  C15      1.0000 0.19170  0.02770  0.95660  Biso   1.000  C
  O16      1.0000 0.33080  0.66741  0.33870  Biso   1.000  O
  C16      1.0000 0.69170  0.52770  0.45660  Biso   1.000  C
  Al1      1.0000 0.25000  0.25000  0.75000  Biso   1.000  Al
  Al2      1.0000 0.75000  0.25000  0.75000  Biso   1.000  Al
  Al3      1.0000 0.75000  0.75000  0.25000  Biso   1.000  Al
  Al4      1.0000 0.25000  0.75000  0.25000  Biso   1.000  Al
  F1       1.0000 0.00000  0.25000  0.69310  Biso   1.000  F
  F2       1.0000 0.50000  0.75000  0.19310  Biso   1.000  F
  F3       1.0000 0.00000  0.75000  0.30690  Biso   1.000  F
  F4       1.0000 0.50000  0.25000  0.80690  Biso   1.000  F
  C17      1.0000 0.00000  0.06370  0.94570  Biso   1.000  C
  C18      1.0000 0.00000  0.14110  0.87540  Biso   1.000  C
  C19      1.0000 0.50000  0.56370  0.44570  Biso   1.000  C
  C20      1.0000 0.50000  0.64110  0.37540  Biso   1.000  C
  C21      1.0000 0.00000  0.43630  0.94570  Biso   1.000  C
  C22      1.0000 0.00000  0.35890  0.87540  Biso   1.000  C
  C23      1.0000 0.50000  0.93630  0.44570  Biso   1.000  C
  C24      1.0000 0.50000  0.85890  0.37540  Biso   1.000  C
  C25      1.0000 0.00000  0.56370  0.05430  Biso   1.000  C
  C26      1.0000 0.00000  0.64110  0.12460  Biso   1.000  C
  C27      1.0000 0.50000  0.06370  0.55430  Biso   1.000  C
  C28      1.0000 0.50000  0.14110  0.62460  Biso   1.000  C
  C29      1.0000 0.00000  0.93630  0.05430  Biso   1.000  C
  C30      1.0000 0.00000  0.85890  0.12460  Biso   1.000  C
  C31      1.0000 0.50000  0.43630  0.55430  Biso   1.000  C
  C32      1.0000 0.50000  0.35890  0.62460  Biso   1.000  C
