data_image0
_cell_length_a       20.6721
_cell_length_b       14.7515
_cell_length_c       13.1281
_cell_angle_alpha    90.002
_cell_angle_beta     67.1358
_cell_angle_gamma    90.0004

_symmetry_space_group_name_H-M    "P 1"
_symmetry_int_tables_number       1

loop_
  _symmetry_equiv_pos_as_xyz
  'x, y, z'

loop_
  _atom_site_label
  _atom_site_occupancy
  _atom_site_fract_x
  _atom_site_fract_y
  _atom_site_fract_z
  _atom_site_thermal_displace_type
  _atom_site_B_iso_or_equiv
  _atom_site_type_symbol
  H1       1.0000 0.16578  0.39801  0.19427  Biso   1.000  H
  H2       1.0000 0.29473  0.42257  0.14225  Biso   1.000  H
  C1       1.0000 0.17797  0.36153  0.02883  Biso   1.000  C
  C2       1.0000 0.20307  0.38818  0.10949  Biso   1.000  C
  C3       1.0000 0.10220  0.33873  0.06193  Biso   1.000  C
  C4       1.0000 0.27466  0.40084  0.08082  Biso   1.000  C
  O1       1.0000 0.08127  0.31732  0.98569  Biso   1.000  O
  O2       1.0000 0.06378  0.33806  0.16508  Biso   1.000  O
  H3       1.0000 0.66592  0.14926  0.19418  Biso   1.000  H
  H4       1.0000 0.79502  0.17258  0.14215  Biso   1.000  H
  C5       1.0000 0.67800  0.11294  0.02875  Biso   1.000  C
  C6       1.0000 0.70318  0.13919  0.10944  Biso   1.000  C
  C7       1.0000 0.60216  0.09081  0.06186  Biso   1.000  C
  C8       1.0000 0.77483  0.15112  0.08079  Biso   1.000  C
  O3       1.0000 0.58117  0.06965  0.98563  Biso   1.000  O
  O4       1.0000 0.56374  0.09038  0.16501  Biso   1.000  O
  H5       1.0000 0.83426  0.39830  0.05574  Biso   1.000  H
  H6       1.0000 0.70532  0.42282  0.10773  Biso   1.000  H
  C9       1.0000 0.82204  0.36159  0.22113  Biso   1.000  C
  C10      1.0000 0.79696  0.38835  0.14049  Biso   1.000  C
  C11      1.0000 0.89780  0.33877  0.18805  Biso   1.000  C
  C12      1.0000 0.72536  0.40100  0.16914  Biso   1.000  C
  O5       1.0000 0.91873  0.31736  0.26430  Biso   1.000  O
  O6       1.0000 0.93623  0.33808  0.08491  Biso   1.000  O
  H7       1.0000 0.33411  0.14936  0.05579  Biso   1.000  H
  H8       1.0000 0.20501  0.17267  0.10778  Biso   1.000  H
  C13      1.0000 0.32200  0.11295  0.22120  Biso   1.000  C
  C14      1.0000 0.29684  0.13925  0.14051  Biso   1.000  C
  C15      1.0000 0.39784  0.09085  0.18812  Biso   1.000  C
  C16      1.0000 0.22519  0.15118  0.16914  Biso   1.000  C
  O7       1.0000 0.41882  0.06967  0.26436  Biso   1.000  O
  O8       1.0000 0.43627  0.09041  0.08498  Biso   1.000  O
  H9       1.0000 0.83410  0.10070  0.30580  Biso   1.000  H
  H10      1.0000 0.70500  0.07735  0.35782  Biso   1.000  H
  C17      1.0000 0.82200  0.13701  0.47124  Biso   1.000  C
  C18      1.0000 0.79682  0.11078  0.39054  Biso   1.000  C
  C19      1.0000 0.89784  0.15912  0.43814  Biso   1.000  C
  C20      1.0000 0.72518  0.09882  0.41918  Biso   1.000  C
  O9       1.0000 0.91885  0.18021  0.51437  Biso   1.000  O
  O10      1.0000 0.93625  0.15957  0.33499  Biso   1.000  O
  H11      1.0000 0.33412  0.35065  0.30586  Biso   1.000  H
  H12      1.0000 0.20518  0.32610  0.35785  Biso   1.000  H
  C21      1.0000 0.32192  0.38715  0.47129  Biso   1.000  C
  C22      1.0000 0.29682  0.36053  0.39061  Biso   1.000  C
  C23      1.0000 0.39772  0.40970  0.43815  Biso   1.000  C
  C24      1.0000 0.22523  0.34788  0.41927  Biso   1.000  C
  O11      1.0000 0.41876  0.43088  0.51434  Biso   1.000  O
  O12      1.0000 0.43610  0.41034  0.33498  Biso   1.000  O
  H13      1.0000 0.16589  0.10066  0.44407  Biso   1.000  H
  H14      1.0000 0.29500  0.07735  0.39209  Biso   1.000  H
  C25      1.0000 0.17800  0.13704  0.27866  Biso   1.000  C
  C26      1.0000 0.20317  0.11077  0.35935  Biso   1.000  C
  C27      1.0000 0.10216  0.15913  0.31180  Biso   1.000  C
  C28      1.0000 0.27481  0.09884  0.33073  Biso   1.000  C
  O13      1.0000 0.08115  0.18026  0.23558  Biso   1.000  O
  O14      1.0000 0.06375  0.15957  0.41495  Biso   1.000  O
  H15      1.0000 0.66584  0.35039  0.44403  Biso   1.000  H
  H16      1.0000 0.79478  0.32590  0.39207  Biso   1.000  H
  C29      1.0000 0.67806  0.38709  0.27865  Biso   1.000  C
  C30      1.0000 0.70315  0.36038  0.35931  Biso   1.000  C
  C31      1.0000 0.60225  0.40966  0.31180  Biso   1.000  C
  C32      1.0000 0.77474  0.34775  0.33067  Biso   1.000  C
  O15      1.0000 0.58123  0.43091  0.23563  Biso   1.000  O
  O16      1.0000 0.56386  0.41023  0.41497  Biso   1.000  O
  F1       1.0000 0.99999  0.30364  0.37502  Biso   1.000  F
  F2       1.0000 0.49999  0.05619  0.37502  Biso   1.000  F
  F3       1.0000 0.99999  0.19375  0.12501  Biso   1.000  F
  F4       1.0000 0.49998  0.44427  0.12501  Biso   1.000  F
  Al1      1.0000 0.50001  0.00118  0.25003  Biso   1.000  Al
  Al2      1.0000 0.99996  0.24878  0.24997  Biso   1.000  Al
  Al3      1.0000 0.49997  0.00118  0.99998  Biso   1.000  Al
  Al4      1.0000 0.00002  0.24876  0.00004  Biso   1.000  Al
  H17      1.0000 0.16589  0.90001  0.19421  Biso   1.000  H
  H18      1.0000 0.29491  0.92397  0.14220  Biso   1.000  H
  C33      1.0000 0.17802  0.86365  0.02877  Biso   1.000  C
  C34      1.0000 0.20317  0.89006  0.10945  Biso   1.000  C
  C35      1.0000 0.10221  0.84124  0.06188  Biso   1.000  C
  C36      1.0000 0.27479  0.90238  0.08080  Biso   1.000  C
  O17      1.0000 0.08121  0.82005  0.98566  Biso   1.000  O
  O18      1.0000 0.06380  0.84067  0.16504  Biso   1.000  O
  H19      1.0000 0.66579  0.64899  0.19428  Biso   1.000  H
  H20      1.0000 0.79466  0.67400  0.14225  Biso   1.000  H
  C37      1.0000 0.67800  0.61244  0.02883  Biso   1.000  C
  C38      1.0000 0.70308  0.63922  0.10949  Biso   1.000  C
  C39      1.0000 0.60224  0.58947  0.06195  Biso   1.000  C
  C40      1.0000 0.77466  0.65215  0.08081  Biso   1.000  C
  O19      1.0000 0.58127  0.56810  0.98575  Biso   1.000  O
  O20      1.0000 0.56385  0.58868  0.16511  Biso   1.000  O
  H21      1.0000 0.83411  0.90006  0.05576  Biso   1.000  H
  H22      1.0000 0.70510  0.92401  0.10773  Biso   1.000  H
  C41      1.0000 0.82196  0.86362  0.22119  Biso   1.000  C
  C42      1.0000 0.79682  0.89006  0.14050  Biso   1.000  C
  C43      1.0000 0.89778  0.84122  0.18810  Biso   1.000  C
  C44      1.0000 0.72521  0.90239  0.16914  Biso   1.000  C
  O21      1.0000 0.91877  0.82001  0.26432  Biso   1.000  O
  O22      1.0000 0.93620  0.84068  0.08495  Biso   1.000  O
  H23      1.0000 0.33424  0.64895  0.05566  Biso   1.000  H
  H24      1.0000 0.20537  0.67394  0.10764  Biso   1.000  H
  C45      1.0000 0.32202  0.61247  0.22112  Biso   1.000  C
  C46      1.0000 0.29694  0.63921  0.14045  Biso   1.000  C
  C47      1.0000 0.39777  0.58951  0.18803  Biso   1.000  C
  C48      1.0000 0.22537  0.65211  0.16910  Biso   1.000  C
  O23      1.0000 0.41874  0.56815  0.26424  Biso   1.000  O
  O24      1.0000 0.43617  0.58870  0.08487  Biso   1.000  O
  H25      1.0000 0.83423  0.60190  0.30574  Biso   1.000  H
  H26      1.0000 0.70536  0.57687  0.35774  Biso   1.000  H
  C49      1.0000 0.82200  0.63842  0.47119  Biso   1.000  C
  C50      1.0000 0.79693  0.61166  0.39052  Biso   1.000  C
  C51      1.0000 0.89776  0.66140  0.43807  Biso   1.000  C
  C52      1.0000 0.72536  0.59873  0.41919  Biso   1.000  C
  O25      1.0000 0.91873  0.68277  0.51428  Biso   1.000  O
  O26      1.0000 0.93615  0.66217  0.33490  Biso   1.000  O
  H27      1.0000 0.33418  0.85214  0.30576  Biso   1.000  H
  H28      1.0000 0.20516  0.82813  0.35777  Biso   1.000  H
  C53      1.0000 0.32204  0.88855  0.47120  Biso   1.000  C
  C54      1.0000 0.29690  0.86207  0.39053  Biso   1.000  C
  C55      1.0000 0.39782  0.91120  0.43808  Biso   1.000  C
  C56      1.0000 0.22528  0.84972  0.41918  Biso   1.000  C
  O27      1.0000 0.41878  0.93251  0.51432  Biso   1.000  O
  O28      1.0000 0.43623  0.91188  0.33493  Biso   1.000  O
  H29      1.0000 0.16581  0.60209  0.44415  Biso   1.000  H
  H30      1.0000 0.29469  0.57709  0.39216  Biso   1.000  H
  C57      1.0000 0.17804  0.63856  0.27869  Biso   1.000  C
  C58      1.0000 0.20312  0.61182  0.35936  Biso   1.000  C
  C59      1.0000 0.10227  0.66147  0.31182  Biso   1.000  C
  C60      1.0000 0.27469  0.59892  0.33070  Biso   1.000  C
  O29      1.0000 0.08130  0.68285  0.23562  Biso   1.000  O
  O30      1.0000 0.06388  0.66220  0.41499  Biso   1.000  O
  H31      1.0000 0.66580  0.85210  0.44413  Biso   1.000  H
  H32      1.0000 0.79482  0.82812  0.39214  Biso   1.000  H
  C61      1.0000 0.67795  0.88854  0.27870  Biso   1.000  C
  C62      1.0000 0.70309  0.86205  0.35937  Biso   1.000  C
  C63      1.0000 0.60217  0.91120  0.31185  Biso   1.000  C
  C64      1.0000 0.77471  0.84970  0.33073  Biso   1.000  C
  O31      1.0000 0.58121  0.93257  0.23563  Biso   1.000  O
  O32      1.0000 0.56376  0.91183  0.41500  Biso   1.000  O
  F5       1.0000 0.99999  0.80637  0.37501  Biso   1.000  F
  F6       1.0000 0.49999  0.55437  0.37502  Biso   1.000  F
  F7       1.0000 0.00000  0.69656  0.12499  Biso   1.000  F
  F8       1.0000 0.49997  0.94630  0.12501  Biso   1.000  F
  Al5      1.0000 0.49997  0.49945  0.24997  Biso   1.000  Al
  Al6      1.0000 0.00001  0.75144  0.24999  Biso   1.000  Al
  Al7      1.0000 0.50002  0.49944  0.00004  Biso   1.000  Al
  Al8      1.0000 0.99999  0.75146  0.99999  Biso   1.000  Al
  H33      1.0000 0.16574  0.39814  0.69427  Biso   1.000  H
  H34      1.0000 0.29468  0.42270  0.64227  Biso   1.000  H
  C65      1.0000 0.17794  0.36158  0.52884  Biso   1.000  C
  C66      1.0000 0.20303  0.38828  0.60950  Biso   1.000  C
  C67      1.0000 0.10218  0.33875  0.56195  Biso   1.000  C
  C68      1.0000 0.27463  0.40094  0.58084  Biso   1.000  C
  O33      1.0000 0.08125  0.31733  0.48571  Biso   1.000  O
  O34      1.0000 0.06377  0.33804  0.66510  Biso   1.000  O
  H35      1.0000 0.66589  0.14927  0.69415  Biso   1.000  H
  H36      1.0000 0.79500  0.17260  0.64214  Biso   1.000  H
  C69      1.0000 0.67800  0.11291  0.52872  Biso   1.000  C
  C70      1.0000 0.70317  0.13917  0.60942  Biso   1.000  C
  C71      1.0000 0.60217  0.09075  0.56184  Biso   1.000  C
  C72      1.0000 0.77481  0.15113  0.58077  Biso   1.000  C
  O35      1.0000 0.58116  0.06960  0.48562  Biso   1.000  O
  O36      1.0000 0.56376  0.09030  0.66499  Biso   1.000  O
  H37      1.0000 0.83421  0.39782  0.55580  Biso   1.000  H
  H38      1.0000 0.70526  0.42240  0.60781  Biso   1.000  H
  C73      1.0000 0.82202  0.36150  0.72128  Biso   1.000  C
  C74      1.0000 0.79692  0.38807  0.64059  Biso   1.000  C
  C75      1.0000 0.89778  0.33868  0.68816  Biso   1.000  C
  C76      1.0000 0.72533  0.40074  0.66925  Biso   1.000  C
  O37      1.0000 0.91874  0.31730  0.76438  Biso   1.000  O
  O38      1.0000 0.93619  0.33799  0.58500  Biso   1.000  O
  H39      1.0000 0.33408  0.14919  0.55594  Biso   1.000  H
  H40      1.0000 0.20498  0.17253  0.60796  Biso   1.000  H
  C77      1.0000 0.32200  0.11290  0.72137  Biso   1.000  C
  C78      1.0000 0.29681  0.13915  0.64068  Biso   1.000  C
  C79      1.0000 0.39783  0.09076  0.68822  Biso   1.000  C
  C80      1.0000 0.22517  0.15109  0.66933  Biso   1.000  C
  O39      1.0000 0.41884  0.06960  0.76443  Biso   1.000  O
  O40      1.0000 0.43622  0.09028  0.58507  Biso   1.000  O
  H41      1.0000 0.83410  0.10071  0.80583  Biso   1.000  H
  H42      1.0000 0.70499  0.07740  0.85784  Biso   1.000  H
  C81      1.0000 0.82201  0.13702  0.97126  Biso   1.000  C
  C82      1.0000 0.79683  0.11079  0.89056  Biso   1.000  C
  C83      1.0000 0.89784  0.15911  0.93816  Biso   1.000  C
  C84      1.0000 0.72518  0.09886  0.91921  Biso   1.000  C
  O41      1.0000 0.91883  0.18027  0.01441  Biso   1.000  O
  O42      1.0000 0.93628  0.15951  0.83502  Biso   1.000  O
  H43      1.0000 0.33413  0.35060  0.80583  Biso   1.000  H
  H44      1.0000 0.20520  0.32606  0.85784  Biso   1.000  H
  C85      1.0000 0.32195  0.38708  0.97126  Biso   1.000  C
  C86      1.0000 0.29684  0.36047  0.89059  Biso   1.000  C
  C87      1.0000 0.39775  0.40967  0.93814  Biso   1.000  C
  C88      1.0000 0.22525  0.34783  0.91926  Biso   1.000  C
  O43      1.0000 0.41876  0.43092  0.01432  Biso   1.000  O
  O44      1.0000 0.43614  0.41026  0.83497  Biso   1.000  O
  H45      1.0000 0.16590  0.10076  0.94431  Biso   1.000  H
  H46      1.0000 0.29500  0.07743  0.89230  Biso   1.000  H
  C89      1.0000 0.17799  0.13702  0.77887  Biso   1.000  C
  C90      1.0000 0.20317  0.11081  0.85957  Biso   1.000  C
  C91      1.0000 0.10215  0.15910  0.81193  Biso   1.000  C
  C92      1.0000 0.27482  0.09888  0.83093  Biso   1.000  C
  O45      1.0000 0.08117  0.18024  0.73568  Biso   1.000  O
  O46      1.0000 0.06371  0.15952  0.91507  Biso   1.000  O
  H47      1.0000 0.66586  0.35074  0.94431  Biso   1.000  H
  H48      1.0000 0.79480  0.32619  0.89233  Biso   1.000  H
  C93      1.0000 0.67805  0.38706  0.77883  Biso   1.000  C
  C94      1.0000 0.70315  0.36055  0.85954  Biso   1.000  C
  C95      1.0000 0.60225  0.40965  0.81193  Biso   1.000  C
  C96      1.0000 0.77475  0.34789  0.83088  Biso   1.000  C
  O47      1.0000 0.58124  0.43084  0.73572  Biso   1.000  O
  O48      1.0000 0.56386  0.41029  0.91509  Biso   1.000  O
  F9       1.0000 0.00001  0.30363  0.87501  Biso   1.000  F
  F10      1.0000 0.50001  0.05619  0.87499  Biso   1.000  F
  F11      1.0000 0.00001  0.19373  0.62501  Biso   1.000  F
  F12      1.0000 0.50001  0.44420  0.62499  Biso   1.000  F
  Al9      1.0000 0.50004  0.00110  0.75004  Biso   1.000  Al
  Al10     1.0000 0.99998  0.24873  0.75000  Biso   1.000  Al
  Al11     1.0000 0.49997  0.00111  0.49998  Biso   1.000  Al
  Al12     1.0000 0.00002  0.24875  0.50004  Biso   1.000  Al
  H49      1.0000 0.16589  0.90001  0.69417  Biso   1.000  H
  H50      1.0000 0.29490  0.92398  0.64218  Biso   1.000  H
  C97      1.0000 0.17803  0.86360  0.52874  Biso   1.000  C
  C98      1.0000 0.20317  0.89004  0.60942  Biso   1.000  C
  C99      1.0000 0.10221  0.84120  0.56186  Biso   1.000  C
  C100     1.0000 0.27479  0.90237  0.58077  Biso   1.000  C
  O49      1.0000 0.08121  0.81999  0.48565  Biso   1.000  O
  O50      1.0000 0.06382  0.84063  0.66502  Biso   1.000  O
  H51      1.0000 0.66581  0.64880  0.69423  Biso   1.000  H
  H52      1.0000 0.79468  0.67381  0.64224  Biso   1.000  H
  C101     1.0000 0.67803  0.61229  0.52878  Biso   1.000  C
  C102     1.0000 0.70311  0.63905  0.60944  Biso   1.000  C
  C103     1.0000 0.60227  0.58936  0.56189  Biso   1.000  C
  C104     1.0000 0.77468  0.65198  0.58078  Biso   1.000  C
  O51      1.0000 0.58129  0.56800  0.48570  Biso   1.000  O
  O52      1.0000 0.56388  0.58857  0.66505  Biso   1.000  O
  H53      1.0000 0.83408  0.89990  0.55592  Biso   1.000  H
  H54      1.0000 0.70506  0.92390  0.60794  Biso   1.000  H
  C105     1.0000 0.82195  0.86355  0.72135  Biso   1.000  C
  C106     1.0000 0.79679  0.88995  0.64067  Biso   1.000  C
  C107     1.0000 0.89777  0.84114  0.68820  Biso   1.000  C
  C108     1.0000 0.72518  0.90230  0.66934  Biso   1.000  C
  O53      1.0000 0.91879  0.81997  0.76439  Biso   1.000  O
  O54      1.0000 0.93615  0.84056  0.58503  Biso   1.000  O
  H55      1.0000 0.33424  0.64901  0.55580  Biso   1.000  H
  H56      1.0000 0.20537  0.67404  0.60782  Biso   1.000  H
  C109     1.0000 0.32201  0.61238  0.72122  Biso   1.000  C
  C110     1.0000 0.29694  0.63922  0.64058  Biso   1.000  C
  C111     1.0000 0.39778  0.58942  0.68809  Biso   1.000  C
  C112     1.0000 0.22537  0.65215  0.66925  Biso   1.000  C
  O55      1.0000 0.41876  0.56804  0.76428  Biso   1.000  O
  O56      1.0000 0.43616  0.58862  0.58493  Biso   1.000  O
  H57      1.0000 0.83420  0.60200  0.80579  Biso   1.000  H
  H58      1.0000 0.70532  0.57698  0.85781  Biso   1.000  H
  C113     1.0000 0.82198  0.63855  0.97123  Biso   1.000  C
  C114     1.0000 0.79690  0.61177  0.89058  Biso   1.000  C
  C115     1.0000 0.89775  0.66148  0.93811  Biso   1.000  C
  C116     1.0000 0.72533  0.59884  0.91926  Biso   1.000  C
  O57      1.0000 0.91871  0.68287  0.01432  Biso   1.000  O
  O58      1.0000 0.93616  0.66218  0.83495  Biso   1.000  O
  H59      1.0000 0.33416  0.85222  0.80577  Biso   1.000  H
  H60      1.0000 0.20514  0.82823  0.85780  Biso   1.000  H
  C117     1.0000 0.32203  0.88858  0.97122  Biso   1.000  C
  C118     1.0000 0.29689  0.86213  0.89054  Biso   1.000  C
  C119     1.0000 0.39781  0.91122  0.93811  Biso   1.000  C
  C120     1.0000 0.22526  0.84979  0.91921  Biso   1.000  C
  O59      1.0000 0.41876  0.93260  0.01434  Biso   1.000  O
  O60      1.0000 0.43624  0.91184  0.83496  Biso   1.000  O
  H61      1.0000 0.16581  0.60189  0.94424  Biso   1.000  H
  H62      1.0000 0.29468  0.57686  0.89223  Biso   1.000  H
  C121     1.0000 0.17804  0.63852  0.77882  Biso   1.000  C
  C122     1.0000 0.20311  0.61170  0.85946  Biso   1.000  C
  C123     1.0000 0.10228  0.66147  0.81193  Biso   1.000  C
  C124     1.0000 0.27468  0.59877  0.83079  Biso   1.000  C
  O61      1.0000 0.08131  0.68285  0.73571  Biso   1.000  O
  O62      1.0000 0.06387  0.66221  0.91509  Biso   1.000  O
  H63      1.0000 0.66581  0.85215  0.94436  Biso   1.000  H
  H64      1.0000 0.79483  0.82813  0.89233  Biso   1.000  H
  C125     1.0000 0.67794  0.88851  0.77891  Biso   1.000  C
  C126     1.0000 0.70309  0.86206  0.85959  Biso   1.000  C
  C127     1.0000 0.60216  0.91117  0.81201  Biso   1.000  C
  C128     1.0000 0.77471  0.84969  0.83092  Biso   1.000  C
  O63      1.0000 0.58122  0.93250  0.73575  Biso   1.000  O
  O64      1.0000 0.56374  0.91184  0.91515  Biso   1.000  O
  F13      1.0000 0.00001  0.80639  0.87499  Biso   1.000  F
  F14      1.0000 0.50002  0.55438  0.87498  Biso   1.000  F
  F15      1.0000 0.00002  0.69652  0.62499  Biso   1.000  F
  F16      1.0000 0.50002  0.94622  0.62500  Biso   1.000  F
  Al13     1.0000 0.50000  0.49937  0.74996  Biso   1.000  Al
  Al14     1.0000 0.00003  0.75141  0.75001  Biso   1.000  Al
  Al15     1.0000 0.50003  0.49937  0.50002  Biso   1.000  Al
  Al16     1.0000 0.99998  0.75140  0.49998  Biso   1.000  Al
