data_image0
_cell_length_a       6.6288
_cell_length_b       16.7276
_cell_length_c       12.8336
_cell_angle_alpha    90
_cell_angle_beta     90
_cell_angle_gamma    90

_symmetry_space_group_name_H-M    "P 1"
_symmetry_int_tables_number       1

loop_
  _symmetry_equiv_pos_as_xyz
  'x, y, z'

loop_
  _atom_site_label
  _atom_site_occupancy
  _atom_site_fract_x
  _atom_site_fract_y
  _atom_site_fract_z
  _atom_site_thermal_displace_type
  _atom_site_B_iso_or_equiv
  _atom_site_type_symbol
  O1       1.0000 0.16576  0.16835  0.84288  Biso   1.000  O
  C1       1.0000 0.80910  0.03544  0.96750  Biso   1.000  C
  O2       1.0000 0.66576  0.66835  0.34288  Biso   1.000  O
  C2       1.0000 0.30910  0.53544  0.46750  Biso   1.000  C
  O3       1.0000 0.83424  0.33165  0.84288  Biso   1.000  O
  C3       1.0000 0.19090  0.46456  0.96750  Biso   1.000  C
  O4       1.0000 0.33424  0.83165  0.34288  Biso   1.000  O
  C4       1.0000 0.69090  0.96456  0.46750  Biso   1.000  C
  O5       1.0000 0.83424  0.66835  0.15712  Biso   1.000  O
  C5       1.0000 0.19090  0.53544  0.03250  Biso   1.000  C
  O6       1.0000 0.33424  0.16835  0.65712  Biso   1.000  O
  C6       1.0000 0.69090  0.03544  0.53250  Biso   1.000  C
  O7       1.0000 0.16576  0.83165  0.15712  Biso   1.000  O
  C7       1.0000 0.80910  0.96456  0.03250  Biso   1.000  C
  O8       1.0000 0.66576  0.33165  0.65712  Biso   1.000  O
  C8       1.0000 0.30910  0.46456  0.53250  Biso   1.000  C
  O9       1.0000 0.83424  0.83165  0.15712  Biso   1.000  O
  C9       1.0000 0.19090  0.96456  0.03250  Biso   1.000  C
  O10      1.0000 0.33424  0.33165  0.65712  Biso   1.000  O
  C10      1.0000 0.69090  0.46456  0.53250  Biso   1.000  C
  O11      1.0000 0.16576  0.66835  0.15712  Biso   1.000  O
  C11      1.0000 0.80910  0.53544  0.03250  Biso   1.000  C
  O12      1.0000 0.66576  0.16835  0.65712  Biso   1.000  O
  C12      1.0000 0.30910  0.03544  0.53250  Biso   1.000  C
  O13      1.0000 0.16576  0.33165  0.84288  Biso   1.000  O
  C13      1.0000 0.80910  0.46456  0.96750  Biso   1.000  C
  O14      1.0000 0.66576  0.83165  0.34288  Biso   1.000  O
  C14      1.0000 0.30910  0.96456  0.46750  Biso   1.000  C
  O15      1.0000 0.83424  0.16835  0.84288  Biso   1.000  O
  C15      1.0000 0.19090  0.03544  0.96750  Biso   1.000  C
  O16      1.0000 0.33424  0.66835  0.34288  Biso   1.000  O
  C16      1.0000 0.69090  0.53544  0.46750  Biso   1.000  C
  Al1      1.0000 0.25000  0.25000  0.75000  Biso   1.000  Al
  Al2      1.0000 0.75000  0.25000  0.75000  Biso   1.000  Al
  Al3      1.0000 0.75000  0.75000  0.25000  Biso   1.000  Al
  Al4      1.0000 0.25000  0.75000  0.25000  Biso   1.000  Al
  O17      1.0000 0.00000  0.25000  0.68570  Biso   1.000  O
  O18      1.0000 0.50000  0.75000  0.18570  Biso   1.000  O
  O19      1.0000 0.00000  0.75000  0.31430  Biso   1.000  O
  O20      1.0000 0.50000  0.25000  0.81430  Biso   1.000  O
  C17      1.0000 0.00000  0.06220  0.94640  Biso   1.000  C
  C18      1.0000 0.00000  0.13700  0.87160  Biso   1.000  C
  C19      1.0000 0.50000  0.56220  0.44640  Biso   1.000  C
  C20      1.0000 0.50000  0.63700  0.37160  Biso   1.000  C
  C21      1.0000 0.00000  0.43780  0.94640  Biso   1.000  C
  C22      1.0000 0.00000  0.36300  0.87160  Biso   1.000  C
  C23      1.0000 0.50000  0.93780  0.44640  Biso   1.000  C
  C24      1.0000 0.50000  0.86300  0.37160  Biso   1.000  C
  C25      1.0000 0.00000  0.56220  0.05360  Biso   1.000  C
  C26      1.0000 0.00000  0.63700  0.12840  Biso   1.000  C
  C27      1.0000 0.50000  0.06220  0.55360  Biso   1.000  C
  C28      1.0000 0.50000  0.13700  0.62840  Biso   1.000  C
  C29      1.0000 0.00000  0.93780  0.05360  Biso   1.000  C
  C30      1.0000 0.00000  0.86300  0.12840  Biso   1.000  C
  C31      1.0000 0.50000  0.43780  0.55360  Biso   1.000  C
  C32      1.0000 0.50000  0.36300  0.62840  Biso   1.000  C
