data_image0
_cell_length_a       13.1485
_cell_length_b       16.408
_cell_length_c       13.344
_cell_angle_alpha    90
_cell_angle_beta     90
_cell_angle_gamma    90

_symmetry_space_group_name_H-M    "P 1"
_symmetry_int_tables_number       1

loop_
  _symmetry_equiv_pos_as_xyz
  'x, y, z'

loop_
  _atom_site_label
  _atom_site_occupancy
  _atom_site_fract_x
  _atom_site_fract_y
  _atom_site_fract_z
  _atom_site_thermal_displace_type
  _atom_site_B_iso_or_equiv
  _atom_site_type_symbol
  H1       1.0000 0.40444  0.45765  0.58413  Biso   1.000  H
  H2       1.0000 0.40217  0.57894  0.46899  Biso   1.000  H
  H3       1.0000 0.08346  0.54100  0.41506  Biso   1.000  H
  H4       1.0000 0.08573  0.41972  0.53018  Biso   1.000  H
  H5       1.0000 0.40191  0.07910  0.52870  Biso   1.000  H
  H6       1.0000 0.08329  0.04044  0.58243  Biso   1.000  H
  H7       1.0000 0.15182  0.07809  0.96714  Biso   1.000  H
  H8       1.0000 0.33596  0.91821  0.02865  Biso   1.000  H
  H9       1.0000 0.15462  0.95686  0.08233  Biso   1.000  H
  H10      1.0000 0.33315  0.03948  0.91352  Biso   1.000  H
  H11      1.0000 0.33575  0.41832  0.96918  Biso   1.000  H
  H12      1.0000 0.15441  0.45636  0.91497  Biso   1.000  H
  H13      1.0000 0.08610  0.91916  0.46731  Biso   1.000  H
  H14      1.0000 0.40470  0.95784  0.41354  Biso   1.000  H
  H15      1.0000 0.15217  0.57765  0.03007  Biso   1.000  H
  H16      1.0000 0.33350  0.53960  0.08431  Biso   1.000  H
  H17      1.0000 0.90450  0.45768  0.58415  Biso   1.000  H
  H18      1.0000 0.90222  0.57895  0.46900  Biso   1.000  H
  H19      1.0000 0.58352  0.54101  0.41506  Biso   1.000  H
  H20      1.0000 0.58579  0.41973  0.53018  Biso   1.000  H
  H21      1.0000 0.90198  0.07911  0.52868  Biso   1.000  H
  H22      1.0000 0.58336  0.04044  0.58243  Biso   1.000  H
  H23      1.0000 0.65181  0.07805  0.96708  Biso   1.000  H
  H24      1.0000 0.83600  0.91819  0.02860  Biso   1.000  H
  H25      1.0000 0.65461  0.95683  0.08228  Biso   1.000  H
  H26      1.0000 0.83318  0.03947  0.91349  Biso   1.000  H
  H27      1.0000 0.83577  0.41830  0.96919  Biso   1.000  H
  H28      1.0000 0.65440  0.45635  0.91499  Biso   1.000  H
  H29      1.0000 0.58617  0.91917  0.46731  Biso   1.000  H
  H30      1.0000 0.90477  0.95785  0.41352  Biso   1.000  H
  H31      1.0000 0.65216  0.57763  0.03011  Biso   1.000  H
  H32      1.0000 0.83352  0.53960  0.08431  Biso   1.000  H
  C1       1.0000 0.40295  0.02087  0.95103  Biso   1.000  C
  C2       1.0000 0.99238  0.06551  0.93381  Biso   1.000  C
  C3       1.0000 0.49073  0.13724  0.86512  Biso   1.000  C
  C4       1.0000 0.08356  0.54215  0.01638  Biso   1.000  C
  C5       1.0000 0.15313  0.52226  0.45269  Biso   1.000  C
  C6       1.0000 0.24270  0.56672  0.43554  Biso   1.000  C
  C7       1.0000 0.24126  0.63828  0.36660  Biso   1.000  C
  C8       1.0000 0.33342  0.04349  0.51482  Biso   1.000  C
  C9       1.0000 0.08476  0.47508  0.95266  Biso   1.000  C
  C10      1.0000 0.49519  0.43059  0.93559  Biso   1.000  C
  C11      1.0000 0.99661  0.35901  0.86667  Biso   1.000  C
  C12      1.0000 0.40446  0.95381  0.01476  Biso   1.000  C
  C13      1.0000 0.33492  0.97643  0.45109  Biso   1.000  C
  C14      1.0000 0.24553  0.93177  0.43392  Biso   1.000  C
  C15      1.0000 0.24715  0.86004  0.36525  Biso   1.000  C
  C16      1.0000 0.15435  0.45520  0.51642  Biso   1.000  C
  C17      1.0000 0.08485  0.97542  0.04474  Biso   1.000  C
  C18      1.0000 0.49544  0.93075  0.06193  Biso   1.000  C
  C19      1.0000 0.99712  0.85912  0.13077  Biso   1.000  C
  C20      1.0000 0.40437  0.45379  0.98293  Biso   1.000  C
  C21      1.0000 0.33476  0.47642  0.54654  Biso   1.000  C
  C22      1.0000 0.24520  0.43194  0.56365  Biso   1.000  C
  C23      1.0000 0.24662  0.36014  0.63222  Biso   1.000  C
  C24      1.0000 0.15457  0.95481  0.48112  Biso   1.000  C
  C25      1.0000 0.40317  0.52086  0.04666  Biso   1.000  C
  C26      1.0000 0.99272  0.56539  0.06367  Biso   1.000  C
  C27      1.0000 0.49129  0.63721  0.13224  Biso   1.000  C
  C28      1.0000 0.08335  0.04246  0.98099  Biso   1.000  C
  C29      1.0000 0.15306  0.02187  0.54484  Biso   1.000  C
  C30      1.0000 0.24244  0.06656  0.56200  Biso   1.000  C
  C31      1.0000 0.24076  0.13823  0.63076  Biso   1.000  C
  C32      1.0000 0.33354  0.54349  0.48281  Biso   1.000  C
  C33      1.0000 0.90297  0.02086  0.95102  Biso   1.000  C
  C34      1.0000 0.49235  0.06550  0.93379  Biso   1.000  C
  C35      1.0000 0.99075  0.13726  0.86516  Biso   1.000  C
  C36      1.0000 0.58355  0.54214  0.01640  Biso   1.000  C
  C37      1.0000 0.65319  0.52227  0.45270  Biso   1.000  C
  C38      1.0000 0.74275  0.56672  0.43554  Biso   1.000  C
  C39      1.0000 0.74129  0.63830  0.36662  Biso   1.000  C
  C40      1.0000 0.83349  0.04350  0.51482  Biso   1.000  C
  C41      1.0000 0.58474  0.47507  0.95268  Biso   1.000  C
  C42      1.0000 0.99521  0.43058  0.93560  Biso   1.000  C
  C43      1.0000 0.49660  0.35901  0.86666  Biso   1.000  C
  C44      1.0000 0.90449  0.95380  0.01474  Biso   1.000  C
  C45      1.0000 0.83499  0.97645  0.45108  Biso   1.000  C
  C46      1.0000 0.74560  0.93177  0.43391  Biso   1.000  C
  C47      1.0000 0.74720  0.86006  0.36522  Biso   1.000  C
  C48      1.0000 0.65440  0.45521  0.51642  Biso   1.000  C
  C49      1.0000 0.58484  0.97540  0.04471  Biso   1.000  C
  C50      1.0000 0.99546  0.93075  0.06193  Biso   1.000  C
  C51      1.0000 0.49710  0.85912  0.13078  Biso   1.000  C
  C52      1.0000 0.90439  0.45379  0.98294  Biso   1.000  C
  C53      1.0000 0.83481  0.47644  0.54656  Biso   1.000  C
  C54      1.0000 0.74526  0.43196  0.56367  Biso   1.000  C
  C55      1.0000 0.74666  0.36016  0.63225  Biso   1.000  C
  C56      1.0000 0.65464  0.95482  0.48112  Biso   1.000  C
  C57      1.0000 0.90319  0.52086  0.04666  Biso   1.000  C
  C58      1.0000 0.49271  0.56538  0.06369  Biso   1.000  C
  C59      1.0000 0.99129  0.63722  0.13221  Biso   1.000  C
  C60      1.0000 0.58333  0.04244  0.98095  Biso   1.000  C
  C61      1.0000 0.65313  0.02188  0.54483  Biso   1.000  C
  C62      1.0000 0.74251  0.06657  0.56199  Biso   1.000  C
  C63      1.0000 0.74080  0.13825  0.63074  Biso   1.000  C
  C64      1.0000 0.83360  0.54350  0.48282  Biso   1.000  C
  O1       1.0000 0.07537  0.17207  0.84658  Biso   1.000  O
  O2       1.0000 0.40514  0.65884  0.16722  Biso   1.000  O
  O3       1.0000 0.32589  0.67306  0.34794  Biso   1.000  O
  O4       1.0000 0.15449  0.15971  0.66561  Biso   1.000  O
  O5       1.0000 0.41195  0.32425  0.84801  Biso   1.000  O
  O6       1.0000 0.08336  0.83770  0.16576  Biso   1.000  O
  O7       1.0000 0.16256  0.82514  0.34679  Biso   1.000  O
  O8       1.0000 0.33275  0.33856  0.66728  Biso   1.000  O
  O9       1.0000 0.41252  0.82431  0.14949  Biso   1.000  O
  O10      1.0000 0.08276  0.33760  0.83150  Biso   1.000  O
  O11      1.0000 0.16196  0.32531  0.65059  Biso   1.000  O
  O12      1.0000 0.33333  0.83856  0.33020  Biso   1.000  O
  O13      1.0000 0.07594  0.67206  0.15059  Biso   1.000  O
  O14      1.0000 0.40453  0.15882  0.83022  Biso   1.000  O
  O15      1.0000 0.32534  0.17305  0.64950  Biso   1.000  O
  O16      1.0000 0.15508  0.65969  0.33148  Biso   1.000  O
  O17      1.0000 0.57536  0.17204  0.84653  Biso   1.000  O
  O18      1.0000 0.90515  0.65884  0.16721  Biso   1.000  O
  O19      1.0000 0.82593  0.67307  0.34793  Biso   1.000  O
  O20      1.0000 0.65453  0.15973  0.66557  Biso   1.000  O
  O21      1.0000 0.91197  0.32422  0.84806  Biso   1.000  O
  O22      1.0000 0.58334  0.83770  0.16576  Biso   1.000  O
  O23      1.0000 0.66260  0.82516  0.34678  Biso   1.000  O
  O24      1.0000 0.83278  0.33857  0.66733  Biso   1.000  O
  O25      1.0000 0.91254  0.82430  0.14946  Biso   1.000  O
  O26      1.0000 0.58275  0.33759  0.83151  Biso   1.000  O
  O27      1.0000 0.66199  0.32533  0.65060  Biso   1.000  O
  O28      1.0000 0.83337  0.83857  0.33016  Biso   1.000  O
  O29      1.0000 0.57594  0.67204  0.15064  Biso   1.000  O
  O30      1.0000 0.90455  0.15882  0.83024  Biso   1.000  O
  O31      1.0000 0.82538  0.17306  0.64951  Biso   1.000  O
  O32      1.0000 0.65511  0.65971  0.33152  Biso   1.000  O
  F1       1.0000 0.99357  0.24916  0.68869  Biso   1.000  F
  F2       1.0000 0.24423  0.74829  0.18873  Biso   1.000  F
  F3       1.0000 0.49419  0.74918  0.30861  Biso   1.000  F
  F4       1.0000 0.24358  0.24816  0.80859  Biso   1.000  F
  F5       1.0000 0.49357  0.24917  0.68867  Biso   1.000  F
  F6       1.0000 0.74423  0.74828  0.18873  Biso   1.000  F
  F7       1.0000 0.99420  0.74917  0.30859  Biso   1.000  F
  F8       1.0000 0.74358  0.24814  0.80860  Biso   1.000  F
  Al1      1.0000 0.11861  0.24867  0.74855  Biso   1.000  Al
  Al2      1.0000 0.36921  0.74869  0.24870  Biso   1.000  Al
  Al3      1.0000 0.36861  0.24867  0.74873  Biso   1.000  Al
  Al4      1.0000 0.11921  0.74868  0.24864  Biso   1.000  Al
  Al5      1.0000 0.61862  0.24867  0.74854  Biso   1.000  Al
  Al6      1.0000 0.86922  0.74869  0.24868  Biso   1.000  Al
  Al7      1.0000 0.86863  0.24867  0.74876  Biso   1.000  Al
  Al8      1.0000 0.61922  0.74869  0.24865  Biso   1.000  Al
