data_image0
_cell_length_a       30.809
_cell_length_b       5.369
_cell_length_c       25.126
_cell_angle_alpha    90
_cell_angle_beta     127.61
_cell_angle_gamma    90

_symmetry_space_group_name_H-M    "P 1"
_symmetry_int_tables_number       1

loop_
  _symmetry_equiv_pos_as_xyz
  'x, y, z'

loop_
  _atom_site_label
  _atom_site_occupancy
  _atom_site_fract_x
  _atom_site_fract_y
  _atom_site_fract_z
  _atom_site_thermal_displace_type
  _atom_site_B_iso_or_equiv
  _atom_site_type_symbol
  Cd1      1.0000 0.26400  0.88500  0.57680  Biso   1.000  Cd
  Cd2      1.0000 0.68650  0.00000  0.95800  Biso   1.000  Cd
  P1       1.0000 0.70180  0.54200  0.04250  Biso   1.000  P
  P2       1.0000 0.33100  0.44000  0.59210  Biso   1.000  P
  O1       1.0000 0.73040  0.58600  0.12130  Biso   1.000  O
  O2       1.0000 0.39210  0.49200  0.62080  Biso   1.000  O
  O3       1.0000 0.74030  0.67400  0.02900  Biso   1.000  O
  O4       1.0000 0.29650  0.58000  0.52560  Biso   1.000  O
  O5       1.0000 0.64550  0.66300  0.00790  Biso   1.000  O
  O6       1.0000 0.32160  0.56500  0.63870  Biso   1.000  O
  O7       1.0000 0.70290  0.28200  0.03760  Biso   1.000  O
  O8       1.0000 0.32610  0.16700  0.58740  Biso   1.000  O
  N1       1.0000 0.74580  0.35300  0.28470  Biso   1.000  N
  N2       1.0000 0.54020  0.34800  0.79030  Biso   1.000  N
  C1       1.0000 0.75360  0.20000  0.34220  Biso   1.000  C
  C2       1.0000 0.59080  0.25300  0.84640  Biso   1.000  C
  O9       1.0000 0.79590  0.22600  0.40060  Biso   1.000  O
  O10      1.0000 0.63400  0.31700  0.86150  Biso   1.000  O
  N3       1.0000 0.71400  0.04400  0.31690  Biso   1.000  N
  N4       1.0000 0.59630  0.04900  0.88600  Biso   1.000  N
  C3       1.0000 0.66860  0.96800  0.25330  Biso   1.000  C
  C4       1.0000 0.54360  0.98200  0.86390  Biso   1.000  C
  N5       1.0000 0.63400  0.78700  0.24100  Biso   1.000  N
  N6       1.0000 0.54410  0.78100  0.89960  Biso   1.000  N
  C5       1.0000 0.66040  0.13500  0.19690  Biso   1.000  C
  C6       1.0000 0.48990  0.08500  0.80960  Biso   1.000  C
  C7       1.0000 0.69910  0.32000  0.21810  Biso   1.000  C
  C8       1.0000 0.48350  0.28900  0.76770  Biso   1.000  C
  C9       1.0000 0.79060  0.50700  0.30850  Biso   1.000  C
  C10      1.0000 0.54630  0.57100  0.75260  Biso   1.000  C
  C11      1.0000 0.84160  0.40600  0.32250  Biso   1.000  C
  C12      1.0000 0.54810  0.45600  0.69450  Biso   1.000  C
  C13      1.0000 0.82510  0.44900  0.25500  Biso   1.000  C
  C14      1.0000 0.49170  0.53200  0.63430  Biso   1.000  C
  C15      1.0000 0.80330  0.72400  0.23500  Biso   1.000  C
  C16      1.0000 0.46890  0.73900  0.64960  Biso   1.000  C
  O11      1.0000 0.76510  0.71600  0.25490  Biso   1.000  O
  O12      1.0000 0.49820  0.70200  0.72180  Biso   1.000  O
  O13      1.0000 0.87370  0.45300  0.25480  Biso   1.000  O
  O14      1.0000 0.49500  0.54200  0.57430  Biso   1.000  O
  C17      1.0000 0.76240  0.79600  0.15710  Biso   1.000  C
  C18      1.0000 0.40750  0.71800  0.61580  Biso   1.000  C
  Cd3      1.0000 0.23600  0.38500  0.42320  Biso   1.000  Cd
  Cd4      1.0000 0.81350  0.50000  0.04200  Biso   1.000  Cd
  P3       1.0000 0.79820  0.04200  0.95750  Biso   1.000  P
  P4       1.0000 0.16900  0.94000  0.40790  Biso   1.000  P
  O15      1.0000 0.76960  0.08600  0.87870  Biso   1.000  O
  O16      1.0000 0.10790  0.99200  0.37920  Biso   1.000  O
  O17      1.0000 0.75970  0.17400  0.97100  Biso   1.000  O
  O18      1.0000 0.20350  0.08000  0.47440  Biso   1.000  O
  O19      1.0000 0.85450  0.16300  0.99210  Biso   1.000  O
  O20      1.0000 0.17840  0.06500  0.36130  Biso   1.000  O
  O21      1.0000 0.79710  0.78200  0.96240  Biso   1.000  O
  O22      1.0000 0.17390  0.66700  0.41260  Biso   1.000  O
  N7       1.0000 0.75420  0.85300  0.71530  Biso   1.000  N
  N8       1.0000 0.95980  0.84800  0.20970  Biso   1.000  N
  C19      1.0000 0.74640  0.70000  0.65780  Biso   1.000  C
  C20      1.0000 0.90920  0.75300  0.15360  Biso   1.000  C
  O23      1.0000 0.70410  0.72600  0.59940  Biso   1.000  O
  O24      1.0000 0.86600  0.81700  0.13850  Biso   1.000  O
  N9       1.0000 0.78600  0.54400  0.68310  Biso   1.000  N
  N10      1.0000 0.90370  0.54900  0.11400  Biso   1.000  N
  C21      1.0000 0.83140  0.46800  0.74670  Biso   1.000  C
  C22      1.0000 0.95640  0.48200  0.13610  Biso   1.000  C
  N11      1.0000 0.86600  0.28700  0.75900  Biso   1.000  N
  N12      1.0000 0.95590  0.28100  0.10040  Biso   1.000  N
  C23      1.0000 0.83960  0.63500  0.80310  Biso   1.000  C
  C24      1.0000 0.01010  0.58500  0.19040  Biso   1.000  C
  C25      1.0000 0.80090  0.82000  0.78190  Biso   1.000  C
  C26      1.0000 0.01650  0.78900  0.23230  Biso   1.000  C
  C27      1.0000 0.70940  0.00700  0.69150  Biso   1.000  C
  C28      1.0000 0.95370  0.07100  0.24740  Biso   1.000  C
  C29      1.0000 0.65840  0.90600  0.67750  Biso   1.000  C
  C30      1.0000 0.95190  0.95600  0.30550  Biso   1.000  C
  C31      1.0000 0.67490  0.94900  0.74500  Biso   1.000  C
  C32      1.0000 0.00830  0.03200  0.36570  Biso   1.000  C
  C33      1.0000 0.69670  0.22400  0.76500  Biso   1.000  C
  C34      1.0000 0.03110  0.23900  0.35040  Biso   1.000  C
  O25      1.0000 0.73490  0.21600  0.74510  Biso   1.000  O
  O26      1.0000 0.00180  0.20200  0.27820  Biso   1.000  O
  O27      1.0000 0.62630  0.95300  0.74520  Biso   1.000  O
  O28      1.0000 0.00500  0.04200  0.42570  Biso   1.000  O
  C35      1.0000 0.73760  0.29600  0.84290  Biso   1.000  C
  C36      1.0000 0.09250  0.21800  0.38420  Biso   1.000  C
  Cd5      1.0000 0.76400  0.38500  0.57680  Biso   1.000  Cd
  Cd6      1.0000 0.18650  0.50000  0.95800  Biso   1.000  Cd
  P5       1.0000 0.20180  0.04200  0.04250  Biso   1.000  P
  P6       1.0000 0.83100  0.94000  0.59210  Biso   1.000  P
  O29      1.0000 0.23040  0.08600  0.12130  Biso   1.000  O
  O30      1.0000 0.89210  0.99200  0.62080  Biso   1.000  O
  O31      1.0000 0.24030  0.17400  0.02900  Biso   1.000  O
  O32      1.0000 0.79650  0.08000  0.52560  Biso   1.000  O
  O33      1.0000 0.14550  0.16300  0.00790  Biso   1.000  O
  O34      1.0000 0.82160  0.06500  0.63870  Biso   1.000  O
  O35      1.0000 0.20290  0.78200  0.03760  Biso   1.000  O
  O36      1.0000 0.82610  0.66700  0.58740  Biso   1.000  O
  N13      1.0000 0.24580  0.85300  0.28470  Biso   1.000  N
  N14      1.0000 0.04020  0.84800  0.79030  Biso   1.000  N
  C37      1.0000 0.25360  0.70000  0.34220  Biso   1.000  C
  C38      1.0000 0.09080  0.75300  0.84640  Biso   1.000  C
  O37      1.0000 0.29590  0.72600  0.40060  Biso   1.000  O
  O38      1.0000 0.13400  0.81700  0.86150  Biso   1.000  O
  N15      1.0000 0.21400  0.54400  0.31690  Biso   1.000  N
  N16      1.0000 0.09630  0.54900  0.88600  Biso   1.000  N
  C39      1.0000 0.16860  0.46800  0.25330  Biso   1.000  C
  C40      1.0000 0.04360  0.48200  0.86390  Biso   1.000  C
  N17      1.0000 0.13400  0.28700  0.24100  Biso   1.000  N
  N18      1.0000 0.04410  0.28100  0.89960  Biso   1.000  N
  C41      1.0000 0.16040  0.63500  0.19690  Biso   1.000  C
  C42      1.0000 0.98990  0.58500  0.80960  Biso   1.000  C
  C43      1.0000 0.19910  0.82000  0.21810  Biso   1.000  C
  C44      1.0000 0.98350  0.78900  0.76770  Biso   1.000  C
  C45      1.0000 0.29060  0.00700  0.30850  Biso   1.000  C
  C46      1.0000 0.04630  0.07100  0.75260  Biso   1.000  C
  C47      1.0000 0.34160  0.90600  0.32250  Biso   1.000  C
  C48      1.0000 0.04810  0.95600  0.69450  Biso   1.000  C
  C49      1.0000 0.32510  0.94900  0.25500  Biso   1.000  C
  C50      1.0000 0.99170  0.03200  0.63430  Biso   1.000  C
  C51      1.0000 0.30330  0.22400  0.23500  Biso   1.000  C
  C52      1.0000 0.96890  0.23900  0.64960  Biso   1.000  C
  O39      1.0000 0.26510  0.21600  0.25490  Biso   1.000  O
  O40      1.0000 0.99820  0.20200  0.72180  Biso   1.000  O
  O41      1.0000 0.37370  0.95300  0.25480  Biso   1.000  O
  O42      1.0000 0.99500  0.04200  0.57430  Biso   1.000  O
  C53      1.0000 0.26240  0.29600  0.15710  Biso   1.000  C
  C54      1.0000 0.90750  0.21800  0.61580  Biso   1.000  C
  Cd7      1.0000 0.73600  0.88500  0.42320  Biso   1.000  Cd
  Cd8      1.0000 0.31350  0.00000  0.04200  Biso   1.000  Cd
  P7       1.0000 0.29820  0.54200  0.95750  Biso   1.000  P
  P8       1.0000 0.66900  0.44000  0.40790  Biso   1.000  P
  O43      1.0000 0.26960  0.58600  0.87870  Biso   1.000  O
  O44      1.0000 0.60790  0.49200  0.37920  Biso   1.000  O
  O45      1.0000 0.25970  0.67400  0.97100  Biso   1.000  O
  O46      1.0000 0.70350  0.58000  0.47440  Biso   1.000  O
  O47      1.0000 0.35450  0.66300  0.99210  Biso   1.000  O
  O48      1.0000 0.67840  0.56500  0.36130  Biso   1.000  O
  O49      1.0000 0.29710  0.28200  0.96240  Biso   1.000  O
  O50      1.0000 0.67390  0.16700  0.41260  Biso   1.000  O
  N19      1.0000 0.25420  0.35300  0.71530  Biso   1.000  N
  N20      1.0000 0.45980  0.34800  0.20970  Biso   1.000  N
  C55      1.0000 0.24640  0.20000  0.65780  Biso   1.000  C
  C56      1.0000 0.40920  0.25300  0.15360  Biso   1.000  C
  O51      1.0000 0.20410  0.22600  0.59940  Biso   1.000  O
  O52      1.0000 0.36600  0.31700  0.13850  Biso   1.000  O
  N21      1.0000 0.28600  0.04400  0.68310  Biso   1.000  N
  N22      1.0000 0.40370  0.04900  0.11400  Biso   1.000  N
  C57      1.0000 0.33140  0.96800  0.74670  Biso   1.000  C
  C58      1.0000 0.45640  0.98200  0.13610  Biso   1.000  C
  N23      1.0000 0.36600  0.78700  0.75900  Biso   1.000  N
  N24      1.0000 0.45590  0.78100  0.10040  Biso   1.000  N
  C59      1.0000 0.33960  0.13500  0.80310  Biso   1.000  C
  C60      1.0000 0.51010  0.08500  0.19040  Biso   1.000  C
  C61      1.0000 0.30090  0.32000  0.78190  Biso   1.000  C
  C62      1.0000 0.51650  0.28900  0.23230  Biso   1.000  C
  C63      1.0000 0.20940  0.50700  0.69150  Biso   1.000  C
  C64      1.0000 0.45370  0.57100  0.24740  Biso   1.000  C
  C65      1.0000 0.15840  0.40600  0.67750  Biso   1.000  C
  C66      1.0000 0.45190  0.45600  0.30550  Biso   1.000  C
  C67      1.0000 0.17490  0.44900  0.74500  Biso   1.000  C
  C68      1.0000 0.50830  0.53200  0.36570  Biso   1.000  C
  C69      1.0000 0.19670  0.72400  0.76500  Biso   1.000  C
  C70      1.0000 0.53110  0.73900  0.35040  Biso   1.000  C
  O53      1.0000 0.23490  0.71600  0.74510  Biso   1.000  O
  O54      1.0000 0.50180  0.70200  0.27820  Biso   1.000  O
  O55      1.0000 0.12630  0.45300  0.74520  Biso   1.000  O
  O56      1.0000 0.50500  0.54200  0.42570  Biso   1.000  O
  C71      1.0000 0.23760  0.79600  0.84290  Biso   1.000  C
  C72      1.0000 0.59250  0.71800  0.38420  Biso   1.000  C
