data_COCMOY_clean
_audit_creation_date              2015-10-16
_audit_creation_method            'Materials Studio'
_symmetry_space_group_name_H-M    'P1'
_symmetry_Int_Tables_number       1
_symmetry_cell_setting            triclinic
loop_
_symmetry_equiv_pos_as_xyz
  x,y,z
_cell_length_a                    18.8266
_cell_length_b                    18.8266
_cell_length_c                    25.4638
_cell_angle_alpha                 90.0000
_cell_angle_beta                  90.0000
_cell_angle_gamma                 90.0000
loop_
_atom_site_label
_atom_site_type_symbol
_atom_site_fract_x
_atom_site_fract_y
_atom_site_fract_z
_atom_site_U_iso_or_equiv
_atom_site_adp_type
_atom_site_occupancy
Mn1    Mn    0.50000   0.50000   0.39216   0.01267  Uiso   1.00
Mn2    Mn    0.00000   0.00000   0.10784   0.01267  Uiso   1.00
Mn3    Mn    0.60140   0.39860   0.50000   0.01267  Uiso   1.00
Mn4    Mn    0.89860   0.89860   0.00000   0.01267  Uiso   1.00
Mn5    Mn    0.00000   0.00000   0.89216   0.01267  Uiso   1.00
Mn6    Mn    0.10140   0.10140   0.00000   0.01267  Uiso   1.00
Mn7    Mn    0.39860   0.60140   0.50000   0.01267  Uiso   1.00
Mn8    Mn    0.50000   0.50000   0.60784   0.01267  Uiso   1.00
Si1    Si    0.00000   0.50000   0.75000   0.01267  Uiso   1.00
Si2    Si    0.50000   0.00000   0.25000   0.01267  Uiso   1.00
Si3    Si    0.00000   0.50000   0.25000   0.01267  Uiso   1.00
Si4    Si    0.50000   0.00000   0.75000   0.01267  Uiso   1.00
H1     H     0.75520   0.56300   0.29270   0.01267  Uiso   1.00
H2     H     0.06610   0.35040   0.89860   0.01267  Uiso   1.00
H3     H     0.56830   0.86090   0.24520   0.01267  Uiso   1.00
H4     H     0.06830   0.63910   0.74520   0.01267  Uiso   1.00
H5     H     0.14960   0.56610   0.60140   0.01267  Uiso   1.00
H6     H     0.24480   0.43700   0.29270   0.01267  Uiso   1.00
H7     H     0.95500   0.44050   0.64950   0.01267  Uiso   1.00
H8     H     0.56610   0.14960   0.60140   0.01267  Uiso   1.00
H9     H     0.93390   0.64960   0.89860   0.01267  Uiso   1.00
H10    H     0.25520   0.93700   0.20730   0.01267  Uiso   1.00
H11    H     0.05950   0.45500   0.85050   0.01267  Uiso   1.00
H12    H     0.64960   0.93390   0.10140   0.01267  Uiso   1.00
H13    H     0.56830   0.86090   0.75480   0.01267  Uiso   1.00
H14    H     0.36090   0.93170   0.25480   0.01267  Uiso   1.00
H15    H     0.43700   0.24480   0.70730   0.01267  Uiso   1.00
H16    H     0.93390   0.64960   0.10140   0.01267  Uiso   1.00
H17    H     0.64960   0.93390   0.89860   0.01267  Uiso   1.00
H18    H     0.06830   0.63910   0.25480   0.01267  Uiso   1.00
H19    H     0.45500   0.05950   0.14950   0.01267  Uiso   1.00
H20    H     0.56610   0.14960   0.39860   0.01267  Uiso   1.00
H21    H     0.06610   0.35040   0.10140   0.01267  Uiso   1.00
H22    H     0.95500   0.44050   0.35050   0.01267  Uiso   1.00
H23    H     0.44050   0.95500   0.64950   0.01267  Uiso   1.00
H24    H     0.75520   0.56300   0.70730   0.01267  Uiso   1.00
H25    H     0.55950   0.04500   0.64950   0.01267  Uiso   1.00
H26    H     0.85040   0.43390   0.60140   0.01267  Uiso   1.00
H27    H     0.74480   0.06300   0.79270   0.01267  Uiso   1.00
H28    H     0.94050   0.54500   0.85050   0.01267  Uiso   1.00
H29    H     0.93700   0.25520   0.79270   0.01267  Uiso   1.00
H30    H     0.13910   0.43170   0.24520   0.01267  Uiso   1.00
H31    H     0.74480   0.06300   0.20730   0.01267  Uiso   1.00
H32    H     0.54500   0.94050   0.14950   0.01267  Uiso   1.00
H33    H     0.63910   0.06830   0.25480   0.01267  Uiso   1.00
H34    H     0.43390   0.85040   0.60140   0.01267  Uiso   1.00
H35    H     0.05950   0.45500   0.14950   0.01267  Uiso   1.00
H36    H     0.85040   0.43390   0.39860   0.01267  Uiso   1.00
H37    H     0.25520   0.93700   0.79270   0.01267  Uiso   1.00
H38    H     0.93170   0.36090   0.74520   0.01267  Uiso   1.00
H39    H     0.56300   0.75520   0.70730   0.01267  Uiso   1.00
H40    H     0.06300   0.74480   0.79270   0.01267  Uiso   1.00
H41    H     0.93170   0.36090   0.25480   0.01267  Uiso   1.00
H42    H     0.35040   0.06610   0.89860   0.01267  Uiso   1.00
H43    H     0.36090   0.93170   0.74520   0.01267  Uiso   1.00
H44    H     0.93700   0.25520   0.20730   0.01267  Uiso   1.00
H45    H     0.35040   0.06610   0.10140   0.01267  Uiso   1.00
H46    H     0.56300   0.75520   0.29270   0.01267  Uiso   1.00
H47    H     0.13910   0.43170   0.75480   0.01267  Uiso   1.00
H48    H     0.44050   0.95500   0.35050   0.01267  Uiso   1.00
H49    H     0.43390   0.85040   0.39860   0.01267  Uiso   1.00
H50    H     0.55950   0.04500   0.35050   0.01267  Uiso   1.00
H51    H     0.86090   0.56830   0.75480   0.01267  Uiso   1.00
H52    H     0.54500   0.94050   0.85050   0.01267  Uiso   1.00
H53    H     0.06300   0.74480   0.20730   0.01267  Uiso   1.00
H54    H     0.86090   0.56830   0.24520   0.01267  Uiso   1.00
H55    H     0.14960   0.56610   0.39860   0.01267  Uiso   1.00
H56    H     0.43170   0.13910   0.24520   0.01267  Uiso   1.00
H57    H     0.24480   0.43700   0.70730   0.01267  Uiso   1.00
H58    H     0.43700   0.24480   0.29270   0.01267  Uiso   1.00
H59    H     0.45500   0.05950   0.85050   0.01267  Uiso   1.00
H60    H     0.94050   0.54500   0.14950   0.01267  Uiso   1.00
H61    H     0.63910   0.06830   0.74520   0.01267  Uiso   1.00
H62    H     0.04500   0.55950   0.64950   0.01267  Uiso   1.00
H63    H     0.04500   0.55950   0.35050   0.01267  Uiso   1.00
H64    H     0.43170   0.13910   0.75480   0.01267  Uiso   1.00
C1     C     0.00750   0.22660   0.88110   0.01267  Uiso   1.00
C2     C     0.58580   0.96510   0.16170   0.01267  Uiso   1.00
C3     C     0.72660   0.49250   0.61890   0.01267  Uiso   1.00
C4     C     0.27340   0.50750   0.38110   0.01267  Uiso   1.00
C5     C     0.14770   0.53840   0.36740   0.01267  Uiso   1.00
C6     C     0.35890   0.95960   0.22370   0.01267  Uiso   1.00
C7     C     0.46200   0.20410   0.69530   0.01267  Uiso   1.00
C8     C     0.08580   0.53490   0.66170   0.01267  Uiso   1.00
C9     C     0.91900   0.50310   0.70810   0.01267  Uiso   1.00
C10    C     0.96160   0.64770   0.13260   0.01267  Uiso   1.00
C11    C     0.46200   0.20410   0.30470   0.01267  Uiso   1.00
C12    C     0.79280   0.49910   0.64950   0.01267  Uiso   1.00
C13    C     0.35230   0.03840   0.13260   0.01267  Uiso   1.00
C14    C     0.58580   0.96510   0.83830   0.01267  Uiso   1.00
C15    C     0.46510   0.91420   0.33830   0.01267  Uiso   1.00
C16    C     0.99690   0.41900   0.79190   0.01267  Uiso   1.00
C17    C     0.41420   0.03490   0.83830   0.01267  Uiso   1.00
C18    C     0.27340   0.50750   0.61890   0.01267  Uiso   1.00
C19    C     0.99250   0.77340   0.11890   0.01267  Uiso   1.00
C20    C     0.14110   0.45960   0.27630   0.01267  Uiso   1.00
C21    C     0.85890   0.54040   0.27630   0.01267  Uiso   1.00
C22    C     0.85230   0.46160   0.63260   0.01267  Uiso   1.00
C23    C     0.77340   0.99250   0.88110   0.01267  Uiso   1.00
C24    C     0.96510   0.58580   0.83830   0.01267  Uiso   1.00
C25    C     0.20410   0.46200   0.30470   0.01267  Uiso   1.00
C26    C     0.49690   0.08100   0.29190   0.01267  Uiso   1.00
C27    C     0.20410   0.46200   0.69530   0.01267  Uiso   1.00
C28    C     0.29280   0.00090   0.14950   0.01267  Uiso   1.00
C29    C     0.96160   0.64770   0.86740   0.01267  Uiso   1.00
C30    C     0.20720   0.50090   0.64950   0.01267  Uiso   1.00
C31    C     0.96510   0.58580   0.16170   0.01267  Uiso   1.00
C32    C     0.49690   0.08100   0.70810   0.01267  Uiso   1.00
C33    C     0.53840   0.14770   0.63260   0.01267  Uiso   1.00
C34    C     0.70410   0.03800   0.19530   0.01267  Uiso   1.00
C35    C     0.49250   0.72660   0.61890   0.01267  Uiso   1.00
C36    C     0.03840   0.35230   0.86740   0.01267  Uiso   1.00
C37    C     0.41900   0.99690   0.20810   0.01267  Uiso   1.00
C38    C     0.00090   0.29280   0.14950   0.01267  Uiso   1.00
C39    C     0.53490   0.08580   0.66170   0.01267  Uiso   1.00
C40    C     0.50090   0.20720   0.64950   0.01267  Uiso   1.00
C41    C     0.04040   0.64110   0.77630   0.01267  Uiso   1.00
C42    C     0.35890   0.95960   0.77630   0.01267  Uiso   1.00
C43    C     0.08580   0.53490   0.33830   0.01267  Uiso   1.00
C44    C     0.85890   0.54040   0.72370   0.01267  Uiso   1.00
C45    C     0.22660   0.00750   0.88110   0.01267  Uiso   1.00
C46    C     0.14110   0.45960   0.72370   0.01267  Uiso   1.00
C47    C     0.00750   0.22660   0.11890   0.01267  Uiso   1.00
C48    C     0.46160   0.85230   0.36740   0.01267  Uiso   1.00
C49    C     0.03840   0.35230   0.13260   0.01267  Uiso   1.00
C50    C     0.91420   0.46510   0.33830   0.01267  Uiso   1.00
C51    C     0.29280   0.00090   0.85050   0.01267  Uiso   1.00
C52    C     0.72660   0.49250   0.38110   0.01267  Uiso   1.00
C53    C     0.99910   0.70720   0.85050   0.01267  Uiso   1.00
C54    C     0.50090   0.20720   0.35050   0.01267  Uiso   1.00
C55    C     0.64110   0.04040   0.77630   0.01267  Uiso   1.00
C56    C     0.03800   0.70410   0.80470   0.01267  Uiso   1.00
C57    C     0.58100   0.00310   0.79190   0.01267  Uiso   1.00
C58    C     0.41420   0.03490   0.16170   0.01267  Uiso   1.00
C59    C     0.03490   0.41420   0.83830   0.01267  Uiso   1.00
C60    C     0.45960   0.14110   0.72370   0.01267  Uiso   1.00
C61    C     0.08100   0.49690   0.29190   0.01267  Uiso   1.00
C62    C     0.70410   0.03800   0.80470   0.01267  Uiso   1.00
C63    C     0.50310   0.91900   0.70810   0.01267  Uiso   1.00
C64    C     0.54040   0.85890   0.27630   0.01267  Uiso   1.00
C65    C     0.49910   0.79280   0.64950   0.01267  Uiso   1.00
C66    C     0.22660   0.00750   0.11890   0.01267  Uiso   1.00
C67    C     0.45960   0.14110   0.27630   0.01267  Uiso   1.00
C68    C     0.20720   0.50090   0.35050   0.01267  Uiso   1.00
C69    C     0.00310   0.58100   0.79190   0.01267  Uiso   1.00
C70    C     0.79590   0.53800   0.30470   0.01267  Uiso   1.00
C71    C     0.50750   0.27340   0.61890   0.01267  Uiso   1.00
C72    C     0.53840   0.14770   0.36740   0.01267  Uiso   1.00
C73    C     0.79590   0.53800   0.69530   0.01267  Uiso   1.00
C74    C     0.53490   0.08580   0.33830   0.01267  Uiso   1.00
C75    C     0.54040   0.85890   0.72370   0.01267  Uiso   1.00
C76    C     0.03490   0.41420   0.16170   0.01267  Uiso   1.00
C77    C     0.50310   0.91900   0.29190   0.01267  Uiso   1.00
C78    C     0.91420   0.46510   0.66170   0.01267  Uiso   1.00
C79    C     0.53800   0.79590   0.69530   0.01267  Uiso   1.00
C80    C     0.96200   0.29590   0.19530   0.01267  Uiso   1.00
C81    C     0.77340   0.99250   0.11890   0.01267  Uiso   1.00
C82    C     0.08100   0.49690   0.70810   0.01267  Uiso   1.00
C83    C     0.58100   0.00310   0.20810   0.01267  Uiso   1.00
C84    C     0.03800   0.70410   0.19530   0.01267  Uiso   1.00
C85    C     0.35230   0.03840   0.86740   0.01267  Uiso   1.00
C86    C     0.53800   0.79590   0.30470   0.01267  Uiso   1.00
C87    C     0.91900   0.50310   0.29190   0.01267  Uiso   1.00
C88    C     0.99910   0.70720   0.14950   0.01267  Uiso   1.00
C89    C     0.29590   0.96200   0.80470   0.01267  Uiso   1.00
C90    C     0.79280   0.49910   0.35050   0.01267  Uiso   1.00
C91    C     0.46160   0.85230   0.63260   0.01267  Uiso   1.00
C92    C     0.50750   0.27340   0.38110   0.01267  Uiso   1.00
C93    C     0.64770   0.96160   0.13260   0.01267  Uiso   1.00
C94    C     0.95960   0.35890   0.22370   0.01267  Uiso   1.00
C95    C     0.00090   0.29280   0.85050   0.01267  Uiso   1.00
C96    C     0.00310   0.58100   0.20810   0.01267  Uiso   1.00
C97    C     0.14770   0.53840   0.63260   0.01267  Uiso   1.00
C98    C     0.64110   0.04040   0.22370   0.01267  Uiso   1.00
C99    C     0.29590   0.96200   0.19530   0.01267  Uiso   1.00
C100   C     0.04040   0.64110   0.22370   0.01267  Uiso   1.00
C101   C     0.49250   0.72660   0.38110   0.01267  Uiso   1.00
C102   C     0.70720   0.99910   0.85050   0.01267  Uiso   1.00
C103   C     0.70720   0.99910   0.14950   0.01267  Uiso   1.00
C104   C     0.96200   0.29590   0.80470   0.01267  Uiso   1.00
C105   C     0.41900   0.99690   0.79190   0.01267  Uiso   1.00
C106   C     0.95960   0.35890   0.77630   0.01267  Uiso   1.00
C107   C     0.85230   0.46160   0.36740   0.01267  Uiso   1.00
C108   C     0.49910   0.79280   0.35050   0.01267  Uiso   1.00
C109   C     0.99250   0.77340   0.88110   0.01267  Uiso   1.00
C110   C     0.64770   0.96160   0.86740   0.01267  Uiso   1.00
C111   C     0.99690   0.41900   0.20810   0.01267  Uiso   1.00
C112   C     0.46510   0.91420   0.66170   0.01267  Uiso   1.00
N1     N     0.48290   0.33560   0.63761   0.01267  Uiso   1.00
N2     N     0.04210   0.22040   0.07498   0.01267  Uiso   1.00
N3     N     0.49625   0.61720   0.60060   0.01267  Uiso   1.00
N4     N     0.72040   0.45790   0.42502   0.01267  Uiso   1.00
N5     N     0.72040   0.45790   0.57498   0.01267  Uiso   1.00
N6     N     0.51710   0.66440   0.63761   0.01267  Uiso   1.00
N7     N     0.53940   0.34870   0.43675   0.01267  Uiso   1.00
N8     N     0.15130   0.03940   0.06325   0.01267  Uiso   1.00
N9     N     0.77960   0.95790   0.92502   0.01267  Uiso   1.00
N10    N     0.15130   0.03940   0.93675   0.01267  Uiso   1.00
N11    N     0.95790   0.77960   0.92502   0.01267  Uiso   1.00
N12    N     0.00375   0.11720   0.10060   0.01267  Uiso   1.00
N13    N     0.66440   0.51710   0.36239   0.01267  Uiso   1.00
N14    N     0.61720   0.49625   0.60060   0.01267  Uiso   1.00
N15    N     0.48290   0.33560   0.36239   0.01267  Uiso   1.00
N16    N     0.50375   0.38280   0.39940   0.01267  Uiso   1.00
N17    N     0.83560   0.01710   0.13761   0.01267  Uiso   1.00
N18    N     0.45790   0.72040   0.57498   0.01267  Uiso   1.00
N19    N     0.51710   0.66440   0.36239   0.01267  Uiso   1.00
N20    N     0.27960   0.54210   0.42502   0.01267  Uiso   1.00
N21    N     0.99625   0.88280   0.89940   0.01267  Uiso   1.00
N22    N     0.77960   0.95790   0.07498   0.01267  Uiso   1.00
N23    N     0.01710   0.83560   0.13761   0.01267  Uiso   1.00
N24    N     0.54210   0.27960   0.42502   0.01267  Uiso   1.00
N25    N     0.46060   0.65130   0.43675   0.01267  Uiso   1.00
N26    N     0.27960   0.54210   0.57498   0.01267  Uiso   1.00
N27    N     0.16440   0.98290   0.13761   0.01267  Uiso   1.00
N28    N     0.96060   0.84870   0.93675   0.01267  Uiso   1.00
N29    N     0.22040   0.04210   0.92502   0.01267  Uiso   1.00
N30    N     0.11720   0.00375   0.10060   0.01267  Uiso   1.00
N31    N     0.65130   0.46060   0.56325   0.01267  Uiso   1.00
N32    N     0.16440   0.98290   0.86239   0.01267  Uiso   1.00
N33    N     0.54210   0.27960   0.57498   0.01267  Uiso   1.00
N34    N     0.84870   0.96060   0.93675   0.01267  Uiso   1.00
N35    N     0.01710   0.83560   0.86239   0.01267  Uiso   1.00
N36    N     0.03940   0.15130   0.06325   0.01267  Uiso   1.00
N37    N     0.34870   0.53940   0.43675   0.01267  Uiso   1.00
N38    N     0.53940   0.34870   0.56325   0.01267  Uiso   1.00
N39    N     0.84870   0.96060   0.06325   0.01267  Uiso   1.00
N40    N     0.22040   0.04210   0.07498   0.01267  Uiso   1.00
N41    N     0.38280   0.50375   0.60060   0.01267  Uiso   1.00
N42    N     0.49625   0.61720   0.39940   0.01267  Uiso   1.00
N43    N     0.95790   0.77960   0.07498   0.01267  Uiso   1.00
N44    N     0.45790   0.72040   0.42502   0.01267  Uiso   1.00
N45    N     0.33560   0.48290   0.63761   0.01267  Uiso   1.00
N46    N     0.11720   0.00375   0.89940   0.01267  Uiso   1.00
N47    N     0.04210   0.22040   0.92502   0.01267  Uiso   1.00
N48    N     0.00375   0.11720   0.89940   0.01267  Uiso   1.00
N49    N     0.88280   0.99625   0.10060   0.01267  Uiso   1.00
N50    N     0.98290   0.16440   0.86239   0.01267  Uiso   1.00
N51    N     0.96060   0.84870   0.06325   0.01267  Uiso   1.00
N52    N     0.61720   0.49625   0.39940   0.01267  Uiso   1.00
N53    N     0.99625   0.88280   0.10060   0.01267  Uiso   1.00
N54    N     0.50375   0.38280   0.60060   0.01267  Uiso   1.00
N55    N     0.03940   0.15130   0.93675   0.01267  Uiso   1.00
N56    N     0.65130   0.46060   0.43675   0.01267  Uiso   1.00
N57    N     0.34870   0.53940   0.56325   0.01267  Uiso   1.00
N58    N     0.66440   0.51710   0.63761   0.01267  Uiso   1.00
N59    N     0.98290   0.16440   0.13761   0.01267  Uiso   1.00
N60    N     0.46060   0.65130   0.56325   0.01267  Uiso   1.00
N61    N     0.38280   0.50375   0.39940   0.01267  Uiso   1.00
N62    N     0.33560   0.48290   0.36239   0.01267  Uiso   1.00
N63    N     0.83560   0.01710   0.86239   0.01267  Uiso   1.00
N64    N     0.88280   0.99625   0.89940   0.01267  Uiso   1.00
Cl1    Cl    0.50000   0.50000   0.50000   0.01267  Uiso   1.00
Cl2    Cl    0.00000   0.00000   0.00000   0.01267  Uiso   1.00
