data_image0
_cell_length_a       11.112
_cell_length_b       11.112
_cell_length_c       10.04
_cell_angle_alpha    90
_cell_angle_beta     90
_cell_angle_gamma    120

_symmetry_space_group_name_H-M    "P 1"
_symmetry_int_tables_number       1

loop_
  _symmetry_equiv_pos_as_xyz
  'x, y, z'

loop_
  _atom_site_label
  _atom_site_occupancy
  _atom_site_fract_x
  _atom_site_fract_y
  _atom_site_fract_z
  _atom_site_thermal_displace_type
  _atom_site_B_iso_or_equiv
  _atom_site_type_symbol
  V1       1.0000 0.49208  0.06352  0.02786  Biso   1.000  V
  P1       1.0000 0.22218  0.81621  0.89850  Biso   1.000  P
  K1       1.0000 0.77202  0.30682  0.75267  Biso   1.000  K
  O1       1.0000 0.29070  0.95180  0.97730  Biso   1.000  O
  O2       1.0000 0.46830  0.10510  0.17330  Biso   1.000  O
  O3       1.0000 0.19220  0.69440  0.98990  Biso   1.000  O
  O4       1.0000 0.31440  0.81770  0.78680  Biso   1.000  O
  O5       1.0000 0.50470  0.92420  0.04410  Biso   1.000  O
  C1       1.0000 0.06430  0.79600  0.83530  Biso   1.000  C
  H1       1.0000 0.01000  0.80600  0.88800  Biso   1.000  H
  H2       1.0000 0.07100  0.85100  0.75900  Biso   1.000  H
  H3       1.0000 0.02200  0.72000  0.77700  Biso   1.000  H
  V2       1.0000 0.93648  0.42856  0.36119  Biso   1.000  V
  P2       1.0000 0.18379  0.40597  0.23183  Biso   1.000  P
  K2       1.0000 0.69318  0.46520  0.08600  Biso   1.000  K
  O6       1.0000 0.04820  0.33890  0.31063  Biso   1.000  O
  O7       1.0000 0.89490  0.36320  0.50663  Biso   1.000  O
  O8       1.0000 0.30560  0.49780  0.32323  Biso   1.000  O
  O9       1.0000 0.18230  0.49670  0.12013  Biso   1.000  O
  O10      1.0000 0.07580  0.58050  0.37743  Biso   1.000  O
  C2       1.0000 0.20400  0.26830  0.16863  Biso   1.000  C
  H4       1.0000 0.19400  0.20400  0.22133  Biso   1.000  H
  H5       1.0000 0.14900  0.22000  0.09233  Biso   1.000  H
  H6       1.0000 0.28000  0.30200  0.11033  Biso   1.000  H
  V3       1.0000 0.57144  0.50792  0.69453  Biso   1.000  V
  P3       1.0000 0.59403  0.77782  0.56517  Biso   1.000  P
  K3       1.0000 0.53480  0.22798  0.41934  Biso   1.000  K
  O11      1.0000 0.66110  0.70930  0.64397  Biso   1.000  O
  O12      1.0000 0.63680  0.53170  0.83997  Biso   1.000  O
  O13      1.0000 0.50220  0.80780  0.65657  Biso   1.000  O
  O14      1.0000 0.50330  0.68560  0.45347  Biso   1.000  O
  O15      1.0000 0.41950  0.49530  0.71077  Biso   1.000  O
  C3       1.0000 0.73170  0.93570  0.50197  Biso   1.000  C
  H7       1.0000 0.79600  0.99000  0.55467  Biso   1.000  H
  H8       1.0000 0.78000  0.92900  0.42567  Biso   1.000  H
  H9       1.0000 0.69800  0.97800  0.44367  Biso   1.000  H
  V4       1.0000 0.06352  0.49208  0.97214  Biso   1.000  V
  P4       1.0000 0.81621  0.22218  0.10150  Biso   1.000  P
  K4       1.0000 0.30682  0.77202  0.24733  Biso   1.000  K
  O16      1.0000 0.95180  0.29070  0.02270  Biso   1.000  O
  O17      1.0000 0.10510  0.46830  0.82670  Biso   1.000  O
  O18      1.0000 0.69440  0.19220  0.01010  Biso   1.000  O
  O19      1.0000 0.81770  0.31440  0.21320  Biso   1.000  O
  O20      1.0000 0.92420  0.50470  0.95590  Biso   1.000  O
  C4       1.0000 0.79600  0.06430  0.16470  Biso   1.000  C
  H10      1.0000 0.80600  0.01000  0.11200  Biso   1.000  H
  H11      1.0000 0.85100  0.07100  0.24100  Biso   1.000  H
  H12      1.0000 0.72000  0.02200  0.22300  Biso   1.000  H
  V5       1.0000 0.42856  0.93648  0.63881  Biso   1.000  V
  P5       1.0000 0.40597  0.18379  0.76817  Biso   1.000  P
  K5       1.0000 0.46520  0.69318  0.91400  Biso   1.000  K
  O21      1.0000 0.33890  0.04820  0.68937  Biso   1.000  O
  O22      1.0000 0.36320  0.89490  0.49337  Biso   1.000  O
  O23      1.0000 0.49780  0.30560  0.67677  Biso   1.000  O
  O24      1.0000 0.49670  0.18230  0.87987  Biso   1.000  O
  O25      1.0000 0.58050  0.07580  0.62257  Biso   1.000  O
  C5       1.0000 0.26830  0.20400  0.83137  Biso   1.000  C
  H13      1.0000 0.20400  0.19400  0.77867  Biso   1.000  H
  H14      1.0000 0.22000  0.14900  0.90767  Biso   1.000  H
  H15      1.0000 0.30200  0.28000  0.88967  Biso   1.000  H
  V6       1.0000 0.50792  0.57144  0.30547  Biso   1.000  V
  P6       1.0000 0.77782  0.59403  0.43483  Biso   1.000  P
  K6       1.0000 0.22798  0.53480  0.58066  Biso   1.000  K
  O26      1.0000 0.70930  0.66110  0.35603  Biso   1.000  O
  O27      1.0000 0.53170  0.63680  0.16003  Biso   1.000  O
  O28      1.0000 0.80780  0.50220  0.34343  Biso   1.000  O
  O29      1.0000 0.68560  0.50330  0.54653  Biso   1.000  O
  O30      1.0000 0.49530  0.41950  0.28923  Biso   1.000  O
  C6       1.0000 0.93570  0.73170  0.49803  Biso   1.000  C
  H16      1.0000 0.99000  0.79600  0.44533  Biso   1.000  H
  H17      1.0000 0.92900  0.78000  0.57433  Biso   1.000  H
  H18      1.0000 0.97800  0.69800  0.55633  Biso   1.000  H
