data_image0
_cell_length_a       18.119
_cell_length_b       8.3939
_cell_length_c       12.887
_cell_angle_alpha    90
_cell_angle_beta     90
_cell_angle_gamma    90

_symmetry_space_group_name_H-M    "P 1"
_symmetry_int_tables_number       1

loop_
  _symmetry_equiv_pos_as_xyz
  'x, y, z'

loop_
  _atom_site_label
  _atom_site_occupancy
  _atom_site_fract_x
  _atom_site_fract_y
  _atom_site_fract_z
  _atom_site_thermal_displace_type
  _atom_site_B_iso_or_equiv
  _atom_site_type_symbol
  Zn1      1.0000 0.59165  0.69794  0.60809  Biso   1.000  Zn
  Zn2      1.0000 0.29438  0.97398  0.70236  Biso   1.000  Zn
  Zn3      1.0000 0.33089  0.82748  0.36835  Biso   1.000  Zn
  P1       1.0000 0.69725  0.81670  0.79242  Biso   1.000  P
  H1       1.0000 0.68060  0.72520  0.88390  Biso   1.000  H
  P2       1.0000 0.69038  0.87170  0.43415  Biso   1.000  P
  H2       1.0000 0.69620  0.02140  0.48850  Biso   1.000  H
  P3       1.0000 0.64621  0.34710  0.64797  Biso   1.000  P
  H3       1.0000 0.62080  0.17590  0.59660  Biso   1.000  H
  P4       1.0000 0.44452  0.88850  0.55536  Biso   1.000  P
  H4       1.0000 0.49900  0.99850  0.56610  Biso   1.000  H
  O1       1.0000 0.62880  0.79390  0.73080  Biso   1.000  O
  O2       1.0000 0.76490  0.73860  0.74520  Biso   1.000  O
  O3       1.0000 0.71580  0.98700  0.81450  Biso   1.000  O
  O4       1.0000 0.62650  0.77610  0.47640  Biso   1.000  O
  O5       1.0000 0.76390  0.79320  0.45080  Biso   1.000  O
  O6       1.0000 0.67230  0.91100  0.32340  Biso   1.000  O
  O7       1.0000 0.59090  0.46740  0.60830  Biso   1.000  O
  O8       1.0000 0.72550  0.39460  0.63110  Biso   1.000  O
  O9       1.0000 0.62700  0.29970  0.75790  Biso   1.000  O
  O10      1.0000 0.48490  0.74270  0.60000  Biso   1.000  O
  O11      1.0000 0.38280  0.94050  0.62430  Biso   1.000  O
  O12      1.0000 0.42230  0.86200  0.44410  Biso   1.000  O
  Zn4      1.0000 0.40835  0.30206  0.10809  Biso   1.000  Zn
  Zn5      1.0000 0.70562  0.02602  0.20236  Biso   1.000  Zn
  Zn6      1.0000 0.66911  0.17252  0.86835  Biso   1.000  Zn
  P5       1.0000 0.30275  0.18330  0.29242  Biso   1.000  P
  H5       1.0000 0.31940  0.27480  0.38390  Biso   1.000  H
  P6       1.0000 0.30962  0.12830  0.93415  Biso   1.000  P
  H6       1.0000 0.30380  0.97860  0.98850  Biso   1.000  H
  P7       1.0000 0.35379  0.65290  0.14797  Biso   1.000  P
  H7       1.0000 0.37920  0.82410  0.09660  Biso   1.000  H
  P8       1.0000 0.55548  0.11150  0.05536  Biso   1.000  P
  H8       1.0000 0.50100  0.00150  0.06610  Biso   1.000  H
  O13      1.0000 0.37120  0.20610  0.23080  Biso   1.000  O
  O14      1.0000 0.23510  0.26140  0.24520  Biso   1.000  O
  O15      1.0000 0.28420  0.01300  0.31450  Biso   1.000  O
  O16      1.0000 0.37350  0.22390  0.97640  Biso   1.000  O
  O17      1.0000 0.23610  0.20680  0.95080  Biso   1.000  O
  O18      1.0000 0.32770  0.08900  0.82340  Biso   1.000  O
  O19      1.0000 0.40910  0.53260  0.10830  Biso   1.000  O
  O20      1.0000 0.27450  0.60540  0.13110  Biso   1.000  O
  O21      1.0000 0.37300  0.70030  0.25790  Biso   1.000  O
  O22      1.0000 0.51510  0.25730  0.10000  Biso   1.000  O
  O23      1.0000 0.61720  0.05950  0.12430  Biso   1.000  O
  O24      1.0000 0.57770  0.13800  0.94410  Biso   1.000  O
  Zn7      1.0000 0.09165  0.80206  0.60809  Biso   1.000  Zn
  Zn8      1.0000 0.79438  0.52602  0.70236  Biso   1.000  Zn
  Zn9      1.0000 0.83089  0.67252  0.36835  Biso   1.000  Zn
  P9       1.0000 0.19725  0.68330  0.79242  Biso   1.000  P
  H9       1.0000 0.18060  0.77480  0.88390  Biso   1.000  H
  P10      1.0000 0.19038  0.62830  0.43415  Biso   1.000  P
  H10      1.0000 0.19620  0.47860  0.48850  Biso   1.000  H
  P11      1.0000 0.14621  0.15290  0.64797  Biso   1.000  P
  H11      1.0000 0.12080  0.32410  0.59660  Biso   1.000  H
  P12      1.0000 0.94452  0.61150  0.55536  Biso   1.000  P
  H12      1.0000 0.99900  0.50150  0.56610  Biso   1.000  H
  O25      1.0000 0.12880  0.70610  0.73080  Biso   1.000  O
  O26      1.0000 0.26490  0.76140  0.74520  Biso   1.000  O
  O27      1.0000 0.21580  0.51300  0.81450  Biso   1.000  O
  O28      1.0000 0.12650  0.72390  0.47640  Biso   1.000  O
  O29      1.0000 0.26390  0.70680  0.45080  Biso   1.000  O
  O30      1.0000 0.17230  0.58900  0.32340  Biso   1.000  O
  O31      1.0000 0.09090  0.03260  0.60830  Biso   1.000  O
  O32      1.0000 0.22550  0.10540  0.63110  Biso   1.000  O
  O33      1.0000 0.12700  0.20030  0.75790  Biso   1.000  O
  O34      1.0000 0.98490  0.75730  0.60000  Biso   1.000  O
  O35      1.0000 0.88280  0.55950  0.62430  Biso   1.000  O
  O36      1.0000 0.92230  0.63800  0.44410  Biso   1.000  O
  Zn10     1.0000 0.90835  0.19794  0.10809  Biso   1.000  Zn
  Zn11     1.0000 0.20562  0.47398  0.20236  Biso   1.000  Zn
  Zn12     1.0000 0.16911  0.32748  0.86835  Biso   1.000  Zn
  P13      1.0000 0.80275  0.31670  0.29242  Biso   1.000  P
  H13      1.0000 0.81940  0.22520  0.38390  Biso   1.000  H
  P14      1.0000 0.80962  0.37170  0.93415  Biso   1.000  P
  H14      1.0000 0.80380  0.52140  0.98850  Biso   1.000  H
  P15      1.0000 0.85379  0.84710  0.14797  Biso   1.000  P
  H15      1.0000 0.87920  0.67590  0.09660  Biso   1.000  H
  P16      1.0000 0.05548  0.38850  0.05536  Biso   1.000  P
  H16      1.0000 0.00100  0.49850  0.06610  Biso   1.000  H
  O37      1.0000 0.87120  0.29390  0.23080  Biso   1.000  O
  O38      1.0000 0.73510  0.23860  0.24520  Biso   1.000  O
  O39      1.0000 0.78420  0.48700  0.31450  Biso   1.000  O
  O40      1.0000 0.87350  0.27610  0.97640  Biso   1.000  O
  O41      1.0000 0.73610  0.29320  0.95080  Biso   1.000  O
  O42      1.0000 0.82770  0.41100  0.82340  Biso   1.000  O
  O43      1.0000 0.90910  0.96740  0.10830  Biso   1.000  O
  O44      1.0000 0.77450  0.89460  0.13110  Biso   1.000  O
  O45      1.0000 0.87300  0.79970  0.25790  Biso   1.000  O
  O46      1.0000 0.01510  0.24270  0.10000  Biso   1.000  O
  O47      1.0000 0.11720  0.44050  0.12430  Biso   1.000  O
  O48      1.0000 0.07770  0.36200  0.94410  Biso   1.000  O
