data_image0
_cell_length_a       8.3319
_cell_length_b       16.4862
_cell_length_c       15.2677
_cell_angle_alpha    90
_cell_angle_beta     91.651
_cell_angle_gamma    90

_symmetry_space_group_name_H-M    "P 1"
_symmetry_int_tables_number       1

loop_
  _symmetry_equiv_pos_as_xyz
  'x, y, z'

loop_
  _atom_site_label
  _atom_site_occupancy
  _atom_site_fract_x
  _atom_site_fract_y
  _atom_site_fract_z
  _atom_site_thermal_displace_type
  _atom_site_B_iso_or_equiv
  _atom_site_type_symbol
  Zn1      1.0000 0.13905  0.14234  0.24196  Biso   1.000  Zn
  Zn2      1.0000 0.35968  0.04024  0.61154  Biso   1.000  Zn
  Zn3      1.0000 0.42848  0.06030  0.88743  Biso   1.000  Zn
  P1       1.0000 0.31130  0.05549  0.40417  Biso   1.000  P
  H1       1.0000 0.23870  0.98600  0.39410  Biso   1.000  H
  P2       1.0000 0.15240  0.98171  0.77055  Biso   1.000  P
  H2       1.0000 0.03500  0.02790  0.80030  Biso   1.000  H
  P3       1.0000 0.54765  0.16333  0.73511  Biso   1.000  P
  H3       1.0000 0.68250  0.10530  0.74060  Biso   1.000  H
  P4       1.0000 0.26910  0.05273  0.06782  Biso   1.000  P
  H4       1.0000 0.12420  0.03880  0.05160  Biso   1.000  H
  O1       1.0000 0.62860  0.24290  0.72220  Biso   1.000  O
  O2       1.0000 0.26460  0.10610  0.14670  Biso   1.000  O
  O3       1.0000 0.24190  0.12380  0.35190  Biso   1.000  O
  O4       1.0000 0.48490  0.04310  0.38780  Biso   1.000  O
  O5       1.0000 0.27220  0.06780  0.49810  Biso   1.000  O
  O6       1.0000 0.43560  0.14450  0.65740  Biso   1.000  O
  O7       1.0000 0.46100  0.15790  0.82010  Biso   1.000  O
  O8       1.0000 0.17570  0.01360  0.68170  Biso   1.000  O
  O9       1.0000 0.07790  0.89740  0.77130  Biso   1.000  O
  O10      1.0000 0.29910  0.98020  0.83010  Biso   1.000  O
  O11      1.0000 0.35590  0.97500  0.08000  Biso   1.000  O
  O12      1.0000 0.33140  0.10310  0.99260  Biso   1.000  O
  Zn4      1.0000 0.36095  0.64234  0.25804  Biso   1.000  Zn
  Zn5      1.0000 0.14032  0.54024  0.88846  Biso   1.000  Zn
  Zn6      1.0000 0.07152  0.56030  0.61257  Biso   1.000  Zn
  P5       1.0000 0.18870  0.55549  0.09583  Biso   1.000  P
  H5       1.0000 0.26130  0.48600  0.10590  Biso   1.000  H
  P6       1.0000 0.34760  0.48171  0.72945  Biso   1.000  P
  H6       1.0000 0.46500  0.52790  0.69970  Biso   1.000  H
  P7       1.0000 0.95235  0.66333  0.76489  Biso   1.000  P
  H7       1.0000 0.81750  0.60530  0.75940  Biso   1.000  H
  P8       1.0000 0.23090  0.55273  0.43218  Biso   1.000  P
  H8       1.0000 0.37580  0.53880  0.44840  Biso   1.000  H
  O13      1.0000 0.87140  0.74290  0.77780  Biso   1.000  O
  O14      1.0000 0.23540  0.60610  0.35330  Biso   1.000  O
  O15      1.0000 0.25810  0.62380  0.14810  Biso   1.000  O
  O16      1.0000 0.01510  0.54310  0.11220  Biso   1.000  O
  O17      1.0000 0.22780  0.56780  0.00190  Biso   1.000  O
  O18      1.0000 0.06440  0.64450  0.84260  Biso   1.000  O
  O19      1.0000 0.03900  0.65790  0.67990  Biso   1.000  O
  O20      1.0000 0.32430  0.51360  0.81830  Biso   1.000  O
  O21      1.0000 0.42210  0.39740  0.72870  Biso   1.000  O
  O22      1.0000 0.20090  0.48020  0.66990  Biso   1.000  O
  O23      1.0000 0.14410  0.47500  0.42000  Biso   1.000  O
  O24      1.0000 0.16860  0.60310  0.50740  Biso   1.000  O
  Zn7      1.0000 0.86095  0.85766  0.75804  Biso   1.000  Zn
  Zn8      1.0000 0.64032  0.95976  0.38846  Biso   1.000  Zn
  Zn9      1.0000 0.57152  0.93970  0.11257  Biso   1.000  Zn
  P9       1.0000 0.68870  0.94451  0.59583  Biso   1.000  P
  H9       1.0000 0.76130  0.01400  0.60590  Biso   1.000  H
  P10      1.0000 0.84760  0.01829  0.22945  Biso   1.000  P
  H10      1.0000 0.96500  0.97210  0.19970  Biso   1.000  H
  P11      1.0000 0.45235  0.83667  0.26489  Biso   1.000  P
  H11      1.0000 0.31750  0.89470  0.25940  Biso   1.000  H
  P12      1.0000 0.73090  0.94727  0.93218  Biso   1.000  P
  H12      1.0000 0.87580  0.96120  0.94840  Biso   1.000  H
  O25      1.0000 0.37140  0.75710  0.27780  Biso   1.000  O
  O26      1.0000 0.73540  0.89390  0.85330  Biso   1.000  O
  O27      1.0000 0.75810  0.87620  0.64810  Biso   1.000  O
  O28      1.0000 0.51510  0.95690  0.61220  Biso   1.000  O
  O29      1.0000 0.72780  0.93220  0.50190  Biso   1.000  O
  O30      1.0000 0.56440  0.85550  0.34260  Biso   1.000  O
  O31      1.0000 0.53900  0.84210  0.17990  Biso   1.000  O
  O32      1.0000 0.82430  0.98640  0.31830  Biso   1.000  O
  O33      1.0000 0.92210  0.10260  0.22870  Biso   1.000  O
  O34      1.0000 0.70090  0.01980  0.16990  Biso   1.000  O
  O35      1.0000 0.64410  0.02500  0.92000  Biso   1.000  O
  O36      1.0000 0.66860  0.89690  0.00740  Biso   1.000  O
  Zn10     1.0000 0.63905  0.35766  0.74196  Biso   1.000  Zn
  Zn11     1.0000 0.85968  0.45976  0.11154  Biso   1.000  Zn
  Zn12     1.0000 0.92848  0.43970  0.38743  Biso   1.000  Zn
  P13      1.0000 0.81130  0.44451  0.90417  Biso   1.000  P
  H13      1.0000 0.73870  0.51400  0.89410  Biso   1.000  H
  P14      1.0000 0.65240  0.51829  0.27055  Biso   1.000  P
  H14      1.0000 0.53500  0.47210  0.30030  Biso   1.000  H
  P15      1.0000 0.04765  0.33667  0.23511  Biso   1.000  P
  H15      1.0000 0.18250  0.39470  0.24060  Biso   1.000  H
  P16      1.0000 0.76910  0.44727  0.56782  Biso   1.000  P
  H16      1.0000 0.62420  0.46120  0.55160  Biso   1.000  H
  O37      1.0000 0.12860  0.25710  0.22220  Biso   1.000  O
  O38      1.0000 0.76460  0.39390  0.64670  Biso   1.000  O
  O39      1.0000 0.74190  0.37620  0.85190  Biso   1.000  O
  O40      1.0000 0.98490  0.45690  0.88780  Biso   1.000  O
  O41      1.0000 0.77220  0.43220  0.99810  Biso   1.000  O
  O42      1.0000 0.93560  0.35550  0.15740  Biso   1.000  O
  O43      1.0000 0.96100  0.34210  0.32010  Biso   1.000  O
  O44      1.0000 0.67570  0.48640  0.18170  Biso   1.000  O
  O45      1.0000 0.57790  0.60260  0.27130  Biso   1.000  O
  O46      1.0000 0.79910  0.51980  0.33010  Biso   1.000  O
  O47      1.0000 0.85590  0.52500  0.58000  Biso   1.000  O
  O48      1.0000 0.83140  0.39690  0.49260  Biso   1.000  O
