data_CODQOD_clean
_audit_creation_date              2015-10-16
_audit_creation_method            'Materials Studio'
_symmetry_space_group_name_H-M    'P1'
_symmetry_Int_Tables_number       1
_symmetry_cell_setting            triclinic
loop_
_symmetry_equiv_pos_as_xyz
  x,y,z
_cell_length_a                    8.9322
_cell_length_b                    12.1598
_cell_length_c                    16.8436
_cell_angle_alpha                 90.0000
_cell_angle_beta                  90.0000
_cell_angle_gamma                 109.0400
loop_
_atom_site_label
_atom_site_type_symbol
_atom_site_fract_x
_atom_site_fract_y
_atom_site_fract_z
_atom_site_U_iso_or_equiv
_atom_site_adp_type
_atom_site_occupancy
Ce1    Ce    0.56909   0.04839   0.88353   0.01267  Uiso   1.00
Ce2    Ce    0.43091   0.95161   0.11647   0.01267  Uiso   1.00
Ce3    Ce    0.06909   0.04839   0.61647   0.01267  Uiso   1.00
Ce4    Ce    0.93091   0.95161   0.38353   0.01267  Uiso   1.00
H1     H     0.32600   0.81480   0.33380   0.01267  Uiso   1.00
H2     H     0.08720   0.27770   0.82160   0.01267  Uiso   1.00
H3     H     0.09300   0.52610   0.72420   0.01267  Uiso   1.00
H4     H     0.29680   0.49690   0.91490   0.01267  Uiso   1.00
H5     H     0.47030   0.28310   0.43020   0.01267  Uiso   1.00
H6     H     0.58720   0.27770   0.67840   0.01267  Uiso   1.00
H7     H     0.09950   0.64850   0.30830   0.01267  Uiso   1.00
H8     H     0.88000   0.36410   0.03640   0.01267  Uiso   1.00
H9     H     0.98960   0.33680   0.42700   0.01267  Uiso   1.00
H10    H     0.17400   0.18520   0.83380   0.01267  Uiso   1.00
H11    H     0.79680   0.49690   0.58510   0.01267  Uiso   1.00
H12    H     0.20320   0.50310   0.41490   0.01267  Uiso   1.00
H13    H     0.12000   0.63590   0.96360   0.01267  Uiso   1.00
H14    H     0.52970   0.71690   0.56980   0.01267  Uiso   1.00
H15    H     0.91280   0.72230   0.17840   0.01267  Uiso   1.00
H16    H     0.75610   0.20630   0.42980   0.01267  Uiso   1.00
H17    H     0.12550   0.46910   0.06860   0.01267  Uiso   1.00
H18    H     0.02970   0.71690   0.93020   0.01267  Uiso   1.00
H19    H     0.31660   0.64350   0.10110   0.01267  Uiso   1.00
H20    H     0.40050   0.35150   0.80830   0.01267  Uiso   1.00
H21    H     0.24390   0.79370   0.57020   0.01267  Uiso   1.00
H22    H     0.74390   0.79370   0.92980   0.01267  Uiso   1.00
H23    H     0.90050   0.35150   0.69170   0.01267  Uiso   1.00
H24    H     0.41280   0.72230   0.32160   0.01267  Uiso   1.00
H25    H     0.48960   0.33680   0.07300   0.01267  Uiso   1.00
H26    H     0.81660   0.64350   0.39890   0.01267  Uiso   1.00
H27    H     0.70320   0.50310   0.08510   0.01267  Uiso   1.00
H28    H     0.01040   0.66320   0.57300   0.01267  Uiso   1.00
H29    H     0.90700   0.47390   0.27580   0.01267  Uiso   1.00
H30    H     0.62550   0.46910   0.43140   0.01267  Uiso   1.00
H31    H     0.97030   0.28310   0.06980   0.01267  Uiso   1.00
H32    H     0.51040   0.66320   0.92700   0.01267  Uiso   1.00
H33    H     0.87670   0.85810   0.99040   0.01267  Uiso   1.00
H34    H     0.25610   0.20630   0.07020   0.01267  Uiso   1.00
H35    H     0.59300   0.52610   0.77580   0.01267  Uiso   1.00
H36    H     0.82600   0.81480   0.16620   0.01267  Uiso   1.00
H37    H     0.62330   0.14190   0.49040   0.01267  Uiso   1.00
H38    H     0.37450   0.53090   0.56860   0.01267  Uiso   1.00
H39    H     0.12330   0.14190   0.00960   0.01267  Uiso   1.00
H40    H     0.38000   0.36410   0.46360   0.01267  Uiso   1.00
H41    H     0.37670   0.85810   0.50960   0.01267  Uiso   1.00
H42    H     0.59950   0.64850   0.19170   0.01267  Uiso   1.00
H43    H     0.87450   0.53090   0.93140   0.01267  Uiso   1.00
H44    H     0.40700   0.47390   0.22420   0.01267  Uiso   1.00
H45    H     0.68340   0.35650   0.89890   0.01267  Uiso   1.00
H46    H     0.62000   0.63590   0.53640   0.01267  Uiso   1.00
H47    H     0.18340   0.35650   0.60110   0.01267  Uiso   1.00
H48    H     0.67400   0.18520   0.66620   0.01267  Uiso   1.00
C1     C     0.27010   0.80340   0.51410   0.01267  Uiso   1.00
C2     C     0.26680   0.39020   0.63581   0.01267  Uiso   1.00
C3     C     0.49500   0.45480   0.33169   0.01267  Uiso   1.00
C4     C     0.39650   0.38690   0.75981   0.01267  Uiso   1.00
C5     C     0.10350   0.61310   0.25981   0.01267  Uiso   1.00
C6     C     0.87860   0.49810   0.55063   0.01267  Uiso   1.00
C7     C     0.77680   0.33610   0.79333   0.01267  Uiso   1.00
C8     C     0.94370   0.11150   0.79830   0.01267  Uiso   1.00
C9     C     0.11910   0.50540   0.11648   0.01267  Uiso   1.00
C10    C     0.60040   0.20730   0.69983   0.01267  Uiso   1.00
C11    C     0.99320   0.40230   0.45637   0.01267  Uiso   1.00
C12    C     0.38090   0.49460   0.61648   0.01267  Uiso   1.00
C13    C     0.89650   0.38690   0.74019   0.01267  Uiso   1.00
C14    C     0.73320   0.60980   0.36419   0.01267  Uiso   1.00
C15    C     0.12440   0.69520   0.92431   0.01267  Uiso   1.00
C16    C     0.23320   0.60980   0.13581   0.01267  Uiso   1.00
C17    C     0.60350   0.61310   0.24019   0.01267  Uiso   1.00
C18    C     0.77010   0.80340   0.98590   0.01267  Uiso   1.00
C19    C     0.65690   0.85420   0.02643   0.01267  Uiso   1.00
C20    C     0.73190   0.19950   0.05983   0.01267  Uiso   1.00
C21    C     0.76810   0.80050   0.55983   0.01267  Uiso   1.00
C22    C     0.01130   0.49170   0.75971   0.01267  Uiso   1.00
C23    C     0.88090   0.49460   0.88352   0.01267  Uiso   1.00
C24    C     0.98870   0.50830   0.24029   0.01267  Uiso   1.00
C25    C     0.86900   0.39890   0.50705   0.01267  Uiso   1.00
C26    C     0.26810   0.80050   0.94017   0.01267  Uiso   1.00
C27    C     0.00500   0.54520   0.83169   0.01267  Uiso   1.00
C28    C     0.22320   0.66390   0.20667   0.01267  Uiso   1.00
C29    C     0.27680   0.33610   0.70667   0.01267  Uiso   1.00
C30    C     0.15690   0.85420   0.47357   0.01267  Uiso   1.00
C31    C     0.51130   0.49170   0.74029   0.01267  Uiso   1.00
C32    C     0.48870   0.50830   0.25971   0.01267  Uiso   1.00
C33    C     0.89960   0.79270   0.19983   0.01267  Uiso   1.00
C34    C     0.72990   0.19660   0.48590   0.01267  Uiso   1.00
C35    C     0.72320   0.66390   0.29333   0.01267  Uiso   1.00
C36    C     0.84310   0.14580   0.52643   0.01267  Uiso   1.00
C37    C     0.62440   0.69520   0.57569   0.01267  Uiso   1.00
C38    C     0.50680   0.59770   0.95637   0.01267  Uiso   1.00
C39    C     0.10040   0.20730   0.80017   0.01267  Uiso   1.00
C40    C     0.13100   0.60110   0.49295   0.01267  Uiso   1.00
C41    C     0.55630   0.88850   0.29830   0.01267  Uiso   1.00
C42    C     0.05630   0.88850   0.20170   0.01267  Uiso   1.00
C43    C     0.37860   0.49810   0.94937   0.01267  Uiso   1.00
C44    C     0.63100   0.60110   0.00705   0.01267  Uiso   1.00
C45    C     0.12140   0.50190   0.44937   0.01267  Uiso   1.00
C46    C     0.62140   0.50190   0.05063   0.01267  Uiso   1.00
C47    C     0.44370   0.11150   0.70170   0.01267  Uiso   1.00
C48    C     0.23190   0.19950   0.44017   0.01267  Uiso   1.00
C49    C     0.00680   0.59770   0.54363   0.01267  Uiso   1.00
C50    C     0.36900   0.39890   0.99295   0.01267  Uiso   1.00
C51    C     0.39960   0.79270   0.30017   0.01267  Uiso   1.00
C52    C     0.87560   0.30480   0.07569   0.01267  Uiso   1.00
C53    C     0.34310   0.14580   0.97357   0.01267  Uiso   1.00
C54    C     0.76680   0.39020   0.86419   0.01267  Uiso   1.00
C55    C     0.50500   0.54520   0.66831   0.01267  Uiso   1.00
C56    C     0.49320   0.40230   0.04363   0.01267  Uiso   1.00
C57    C     0.99500   0.45480   0.16831   0.01267  Uiso   1.00
C58    C     0.37560   0.30480   0.42431   0.01267  Uiso   1.00
C59    C     0.22990   0.19660   0.01410   0.01267  Uiso   1.00
C60    C     0.61910   0.50540   0.38352   0.01267  Uiso   1.00
O1     O     0.59100   0.95234   0.23763   0.01267  Uiso   1.00
O2     O     0.83900   0.86256   0.61652   0.01267  Uiso   1.00
O3     O     0.16130   0.22787   0.72035   0.01267  Uiso   1.00
O4     O     0.23260   0.30525   0.98246   0.01267  Uiso   1.00
O5     O     0.64230   0.90015   0.35822   0.01267  Uiso   1.00
O6     O     0.37410   0.35174   0.34735   0.01267  Uiso   1.00
O7     O     0.33870   0.77213   0.22035   0.01267  Uiso   1.00
O8     O     0.40290   0.18343   0.90847   0.01267  Uiso   1.00
O9     O     0.86700   0.05950   0.49314   0.01267  Uiso   1.00
O10    O     0.12590   0.64826   0.84735   0.01267  Uiso   1.00
O11    O     0.09100   0.95234   0.26237   0.01267  Uiso   1.00
O12    O     0.66100   0.13744   0.11652   0.01267  Uiso   1.00
O13    O     0.63300   0.94050   0.99314   0.01267  Uiso   1.00
O14    O     0.83870   0.77213   0.27965   0.01267  Uiso   1.00
O15    O     0.76740   0.69475   0.01754   0.01267  Uiso   1.00
O16    O     0.79930   0.81782   0.48774   0.01267  Uiso   1.00
O17    O     0.70070   0.18218   0.98774   0.01267  Uiso   1.00
O18    O     0.85770   0.09985   0.85822   0.01267  Uiso   1.00
O19    O     0.16100   0.13744   0.38348   0.01267  Uiso   1.00
O20    O     0.20070   0.18218   0.51226   0.01267  Uiso   1.00
O21    O     0.33900   0.86256   0.88348   0.01267  Uiso   1.00
O22    O     0.90900   0.04766   0.73763   0.01267  Uiso   1.00
O23    O     0.14230   0.90015   0.14178   0.01267  Uiso   1.00
O24    O     0.40900   0.04766   0.76237   0.01267  Uiso   1.00
O25    O     0.73260   0.30525   0.51754   0.01267  Uiso   1.00
O26    O     0.13300   0.94050   0.50686   0.01267  Uiso   1.00
O27    O     0.59710   0.81657   0.09153   0.01267  Uiso   1.00
O28    O     0.66130   0.22787   0.77965   0.01267  Uiso   1.00
O29    O     0.87410   0.35174   0.15265   0.01267  Uiso   1.00
O30    O     0.90290   0.18343   0.59153   0.01267  Uiso   1.00
O31    O     0.09710   0.81657   0.40847   0.01267  Uiso   1.00
O32    O     0.29930   0.81782   0.01226   0.01267  Uiso   1.00
O33    O     0.62590   0.64826   0.65265   0.01267  Uiso   1.00
O34    O     0.36700   0.05950   0.00686   0.01267  Uiso   1.00
O35    O     0.26740   0.69475   0.48246   0.01267  Uiso   1.00
O36    O     0.35770   0.09985   0.64178   0.01267  Uiso   1.00
