data_CODROD_clean
_audit_creation_date              2014-07-02
_audit_creation_method            'Materials Studio'
_symmetry_space_group_name_H-M    'P1'
_symmetry_Int_Tables_number       1
_symmetry_cell_setting            triclinic
loop_
_symmetry_equiv_pos_as_xyz
  x,y,z
_cell_length_a                    9.1432
_cell_length_b                    9.1432
_cell_length_c                    14.7730
_cell_angle_alpha                 100.1210
_cell_angle_beta                  100.1220
_cell_angle_gamma                 115.6020
loop_
_atom_site_label
_atom_site_type_symbol
_atom_site_fract_x
_atom_site_fract_y
_atom_site_fract_z
_atom_site_U_iso_or_equiv
_atom_site_adp_type
_atom_site_occupancy
Pr1    Pr    0.50919   0.25919   0.51838   0.01267  Uiso   1.00
Pr2    Pr    0.74081   0.49081   0.98162   0.01267  Uiso   1.00
Pr3    Pr    0.49081   0.74081   0.48162   0.01267  Uiso   1.00
Pr4    Pr    0.25919   0.50919   0.01838   0.01267  Uiso   1.00
H1     H     0.86800   0.31200   0.43000   0.01267  Uiso   1.00
H2     H     0.06200   0.11800   0.43000   0.01267  Uiso   1.00
H3     H     0.68800   0.13200   0.07000   0.01267  Uiso   1.00
H4     H     0.88200   0.93800   0.07000   0.01267  Uiso   1.00
H5     H     0.13200   0.68800   0.57000   0.01267  Uiso   1.00
H6     H     0.93800   0.88200   0.57000   0.01267  Uiso   1.00
H7     H     0.31200   0.86800   0.93000   0.01267  Uiso   1.00
H8     H     0.11800   0.06200   0.93000   0.01267  Uiso   1.00
C1     C     0.74899   0.06039   0.44158   0.01267  Uiso   1.00
C2     C     0.89398   0.21378   0.43516   0.01267  Uiso   1.00
C3     C     0.19259   0.38119   0.44158   0.01267  Uiso   1.00
C4     C     0.04118   0.22138   0.43516   0.01267  Uiso   1.00
C5     C     0.93961   0.25101   0.05842   0.01267  Uiso   1.00
C6     C     0.78622   0.10602   0.06484   0.01267  Uiso   1.00
C7     C     0.61881   0.80741   0.05842   0.01267  Uiso   1.00
C8     C     0.77862   0.95882   0.06484   0.01267  Uiso   1.00
C9     C     0.25101   0.93961   0.55842   0.01267  Uiso   1.00
C10    C     0.10602   0.78622   0.56484   0.01267  Uiso   1.00
C11    C     0.80741   0.61881   0.55842   0.01267  Uiso   1.00
C12    C     0.95882   0.77862   0.56484   0.01267  Uiso   1.00
C13    C     0.06039   0.74899   0.94158   0.01267  Uiso   1.00
C14    C     0.21378   0.89398   0.93516   0.01267  Uiso   1.00
C15    C     0.38119   0.19259   0.94158   0.01267  Uiso   1.00
C16    C     0.22138   0.04118   0.93516   0.01267  Uiso   1.00
C17    C     0.67550   0.32450   0.75000   0.01267  Uiso   1.00
C18    C     0.57450   0.42550   0.75000   0.01267  Uiso   1.00
C19    C     0.32450   0.67550   0.25000   0.01267  Uiso   1.00
C20    C     0.42550   0.57450   0.25000   0.01267  Uiso   1.00
O1     O     0.66071   0.23791   0.67042   0.01267  Uiso   1.00
O2     O     0.63375   0.08169   0.46684   0.01267  Uiso   1.00
O3     O     0.74221   0.91735   0.42416   0.01267  Uiso   1.00
O4     O     0.50971   0.43251   0.67042   0.01267  Uiso   1.00
O5     O     0.33309   0.38515   0.46684   0.01267  Uiso   1.00
O6     O     0.18195   0.50681   0.42416   0.01267  Uiso   1.00
O7     O     0.76209   0.33929   0.82958   0.01267  Uiso   1.00
O8     O     0.91831   0.36625   0.03316   0.01267  Uiso   1.00
O9     O     0.08265   0.25779   0.07584   0.01267  Uiso   1.00
O10    O     0.56749   0.49029   0.82958   0.01267  Uiso   1.00
O11    O     0.61485   0.66691   0.03316   0.01267  Uiso   1.00
O12    O     0.49319   0.81805   0.07584   0.01267  Uiso   1.00
O13    O     0.33929   0.76209   0.32958   0.01267  Uiso   1.00
O14    O     0.36625   0.91831   0.53316   0.01267  Uiso   1.00
O15    O     0.25779   0.08265   0.57584   0.01267  Uiso   1.00
O16    O     0.49029   0.56749   0.32958   0.01267  Uiso   1.00
O17    O     0.66691   0.61485   0.53316   0.01267  Uiso   1.00
O18    O     0.81805   0.49319   0.57584   0.01267  Uiso   1.00
O19    O     0.23791   0.66071   0.17042   0.01267  Uiso   1.00
O20    O     0.08169   0.63375   0.96684   0.01267  Uiso   1.00
O21    O     0.91735   0.74221   0.92416   0.01267  Uiso   1.00
O22    O     0.43251   0.50971   0.17042   0.01267  Uiso   1.00
O23    O     0.38515   0.33309   0.96684   0.01267  Uiso   1.00
O24    O     0.50681   0.18195   0.92416   0.01267  Uiso   1.00
