data_CODSAR_clean
_audit_creation_date              2015-10-16
_audit_creation_method            'Materials Studio'
_symmetry_space_group_name_H-M    'P1'
_symmetry_Int_Tables_number       1
_symmetry_cell_setting            triclinic
loop_
_symmetry_equiv_pos_as_xyz
  x,y,z
_cell_length_a                    8.7519
_cell_length_b                    12.0280
_cell_length_c                    16.7363
_cell_angle_alpha                 90.0000
_cell_angle_beta                  90.0000
_cell_angle_gamma                 108.9320
loop_
_atom_site_label
_atom_site_type_symbol
_atom_site_fract_x
_atom_site_fract_y
_atom_site_fract_z
_atom_site_U_iso_or_equiv
_atom_site_adp_type
_atom_site_occupancy
Tb1    Tb    0.57129   0.04760   0.88099   0.01267  Uiso   1.00
Tb2    Tb    0.92871   0.95240   0.38099   0.01267  Uiso   1.00
Tb3    Tb    0.07129   0.04760   0.61901   0.01267  Uiso   1.00
Tb4    Tb    0.42871   0.95240   0.11901   0.01267  Uiso   1.00
H1     H     0.31940   0.82110   0.32710   0.01267  Uiso   1.00
H2     H     0.97450   0.32980   0.42880   0.01267  Uiso   1.00
H3     H     0.22400   0.21050   0.06330   0.01267  Uiso   1.00
H4     H     0.39960   0.47020   0.22800   0.01267  Uiso   1.00
H5     H     0.13290   0.64270   0.96720   0.01267  Uiso   1.00
H6     H     0.89960   0.47020   0.27200   0.01267  Uiso   1.00
H7     H     0.87780   0.53630   0.93610   0.01267  Uiso   1.00
H8     H     0.39430   0.85530   0.49560   0.01267  Uiso   1.00
H9     H     0.02550   0.67020   0.57120   0.01267  Uiso   1.00
H10    H     0.90680   0.35150   0.69630   0.01267  Uiso   1.00
H11    H     0.18340   0.35930   0.59580   0.01267  Uiso   1.00
H12    H     0.40220   0.72320   0.32080   0.01267  Uiso   1.00
H13    H     0.36710   0.35730   0.46720   0.01267  Uiso   1.00
H14    H     0.80890   0.50250   0.59410   0.01267  Uiso   1.00
H15    H     0.37780   0.53630   0.56390   0.01267  Uiso   1.00
H16    H     0.09780   0.27680   0.82080   0.01267  Uiso   1.00
H17    H     0.59780   0.27680   0.67920   0.01267  Uiso   1.00
H18    H     0.19110   0.49750   0.40590   0.01267  Uiso   1.00
H19    H     0.10040   0.52980   0.72800   0.01267  Uiso   1.00
H20    H     0.81940   0.82110   0.17290   0.01267  Uiso   1.00
H21    H     0.46830   0.28030   0.43550   0.01267  Uiso   1.00
H22    H     0.03170   0.71970   0.93550   0.01267  Uiso   1.00
H23    H     0.72400   0.21050   0.43670   0.01267  Uiso   1.00
H24    H     0.10570   0.14470   0.99560   0.01267  Uiso   1.00
H25    H     0.68340   0.35930   0.90420   0.01267  Uiso   1.00
H26    H     0.27600   0.78950   0.56330   0.01267  Uiso   1.00
H27    H     0.77600   0.78950   0.93670   0.01267  Uiso   1.00
H28    H     0.40680   0.35150   0.80370   0.01267  Uiso   1.00
H29    H     0.18060   0.17890   0.82710   0.01267  Uiso   1.00
H30    H     0.60040   0.52980   0.77200   0.01267  Uiso   1.00
H31    H     0.69110   0.49750   0.09410   0.01267  Uiso   1.00
H32    H     0.31660   0.64070   0.09580   0.01267  Uiso   1.00
H33    H     0.52550   0.67020   0.92880   0.01267  Uiso   1.00
H34    H     0.53170   0.71970   0.56450   0.01267  Uiso   1.00
H35    H     0.09320   0.64850   0.30370   0.01267  Uiso   1.00
H36    H     0.59320   0.64850   0.19630   0.01267  Uiso   1.00
H37    H     0.62220   0.46370   0.43610   0.01267  Uiso   1.00
H38    H     0.81660   0.64070   0.40420   0.01267  Uiso   1.00
H39    H     0.68060   0.17890   0.67290   0.01267  Uiso   1.00
H40    H     0.12220   0.46370   0.06390   0.01267  Uiso   1.00
H41    H     0.90220   0.72320   0.17920   0.01267  Uiso   1.00
H42    H     0.86710   0.35730   0.03280   0.01267  Uiso   1.00
H43    H     0.96830   0.28030   0.06450   0.01267  Uiso   1.00
H44    H     0.60570   0.14470   0.50440   0.01267  Uiso   1.00
H45    H     0.47450   0.32980   0.07120   0.01267  Uiso   1.00
H46    H     0.63290   0.64270   0.53280   0.01267  Uiso   1.00
H47    H     0.30890   0.50250   0.90590   0.01267  Uiso   1.00
H48    H     0.89430   0.85530   0.00440   0.01267  Uiso   1.00
C1     C     0.73180   0.60690   0.36907   0.01267  Uiso   1.00
C2     C     0.88410   0.49910   0.88806   0.01267  Uiso   1.00
C3     C     0.98270   0.50490   0.23630   0.01267  Uiso   1.00
C4     C     0.27830   0.33770   0.70155   0.01267  Uiso   1.00
C5     C     0.77830   0.33770   0.79845   0.01267  Uiso   1.00
C6     C     0.86890   0.29830   0.07194   0.01267  Uiso   1.00
C7     C     0.51730   0.49510   0.73630   0.01267  Uiso   1.00
C8     C     0.49040   0.45040   0.33535   0.01267  Uiso   1.00
C9     C     0.61590   0.50090   0.38806   0.01267  Uiso   1.00
C10    C     0.78600   0.80250   0.99400   0.01267  Uiso   1.00
C11    C     0.16670   0.86160   0.48020   0.01267  Uiso   1.00
C12    C     0.86860   0.39970   0.51380   0.01267  Uiso   1.00
C13    C     0.39440   0.79420   0.29622   0.01267  Uiso   1.00
C14    C     0.26820   0.39310   0.63093   0.01267  Uiso   1.00
C15    C     0.51570   0.60190   0.95740   0.01267  Uiso   1.00
C16    C     0.88580   0.50140   0.55600   0.01267  Uiso   1.00
C17    C     0.77300   0.81170   0.55718   0.01267  Uiso   1.00
C18    C     0.59840   0.61160   0.24461   0.01267  Uiso   1.00
C19    C     0.05780   0.88760   0.20589   0.01267  Uiso   1.00
C20    C     0.44220   0.11240   0.70589   0.01267  Uiso   1.00
C21    C     0.55780   0.88760   0.29411   0.01267  Uiso   1.00
C22    C     0.50960   0.54960   0.66465   0.01267  Uiso   1.00
C23    C     0.48430   0.39810   0.04260   0.01267  Uiso   1.00
C24    C     0.72170   0.66230   0.29845   0.01267  Uiso   1.00
C25    C     0.98430   0.39810   0.45740   0.01267  Uiso   1.00
C26    C     0.28600   0.80250   0.50600   0.01267  Uiso   1.00
C27    C     0.11420   0.49860   0.44400   0.01267  Uiso   1.00
C28    C     0.13110   0.70170   0.92806   0.01267  Uiso   1.00
C29    C     0.33330   0.13840   0.98020   0.01267  Uiso   1.00
C30    C     0.90160   0.38840   0.74461   0.01267  Uiso   1.00
C31    C     0.36860   0.39970   0.98620   0.01267  Uiso   1.00
C32    C     0.63110   0.70170   0.57194   0.01267  Uiso   1.00
C33    C     0.40160   0.38840   0.75539   0.01267  Uiso   1.00
C34    C     0.01730   0.49510   0.76370   0.01267  Uiso   1.00
C35    C     0.38580   0.50140   0.94400   0.01267  Uiso   1.00
C36    C     0.27300   0.81170   0.94282   0.01267  Uiso   1.00
C37    C     0.61420   0.49860   0.05600   0.01267  Uiso   1.00
C38    C     0.23180   0.60690   0.13093   0.01267  Uiso   1.00
C39    C     0.94220   0.11240   0.79411   0.01267  Uiso   1.00
C40    C     0.48270   0.50490   0.26370   0.01267  Uiso   1.00
C41    C     0.22700   0.18830   0.44282   0.01267  Uiso   1.00
C42    C     0.71400   0.19750   0.49400   0.01267  Uiso   1.00
C43    C     0.22170   0.66230   0.20155   0.01267  Uiso   1.00
C44    C     0.10560   0.20580   0.79622   0.01267  Uiso   1.00
C45    C     0.21400   0.19750   0.00600   0.01267  Uiso   1.00
C46    C     0.00960   0.54960   0.83535   0.01267  Uiso   1.00
C47    C     0.99040   0.45040   0.16465   0.01267  Uiso   1.00
C48    C     0.76820   0.39310   0.86907   0.01267  Uiso   1.00
C49    C     0.89440   0.79420   0.20378   0.01267  Uiso   1.00
C50    C     0.38410   0.49910   0.61194   0.01267  Uiso   1.00
C51    C     0.66670   0.86160   0.01980   0.01267  Uiso   1.00
C52    C     0.09840   0.61160   0.25539   0.01267  Uiso   1.00
C53    C     0.72700   0.18830   0.05718   0.01267  Uiso   1.00
C54    C     0.83330   0.13840   0.51980   0.01267  Uiso   1.00
C55    C     0.13140   0.60030   0.48620   0.01267  Uiso   1.00
C56    C     0.63140   0.60030   0.01380   0.01267  Uiso   1.00
C57    C     0.36890   0.29830   0.42806   0.01267  Uiso   1.00
C58    C     0.11590   0.50090   0.11194   0.01267  Uiso   1.00
C59    C     0.01570   0.60190   0.54260   0.01267  Uiso   1.00
C60    C     0.60560   0.20580   0.70378   0.01267  Uiso   1.00
O1     O     0.73290   0.30630   0.53220   0.01267  Uiso   1.00
O2     O     0.14220   0.93410   0.52630   0.01267  Uiso   1.00
O3     O     0.86830   0.34513   0.14954   0.01267  Uiso   1.00
O4     O     0.69500   0.17180   0.98436   0.01267  Uiso   1.00
O5     O     0.89640   0.16020   0.58661   0.01267  Uiso   1.00
O6     O     0.35780   0.06590   0.02630   0.01267  Uiso   1.00
O7     O     0.10360   0.83980   0.41339   0.01267  Uiso   1.00
O8     O     0.15840   0.12470   0.38593   0.01267  Uiso   1.00
O9     O     0.85780   0.06590   0.47370   0.01267  Uiso   1.00
O10    O     0.26710   0.69370   0.46780   0.01267  Uiso   1.00
O11    O     0.85470   0.10266   0.85418   0.01267  Uiso   1.00
O12    O     0.13170   0.65487   0.85046   0.01267  Uiso   1.00
O13    O     0.36830   0.34513   0.35046   0.01267  Uiso   1.00
O14    O     0.80500   0.82820   0.48436   0.01267  Uiso   1.00
O15    O     0.30500   0.82820   0.01564   0.01267  Uiso   1.00
O16    O     0.64530   0.89734   0.35418   0.01267  Uiso   1.00
O17    O     0.60360   0.83980   0.08661   0.01267  Uiso   1.00
O18    O     0.65840   0.12470   0.11407   0.01267  Uiso   1.00
O19    O     0.14530   0.89734   0.14582   0.01267  Uiso   1.00
O20    O     0.84160   0.87530   0.61407   0.01267  Uiso   1.00
O21    O     0.76710   0.69370   0.03220   0.01267  Uiso   1.00
O22    O     0.40560   0.05010   0.76750   0.01267  Uiso   1.00
O23    O     0.90560   0.05010   0.73250   0.01267  Uiso   1.00
O24    O     0.83900   0.77103   0.28508   0.01267  Uiso   1.00
O25    O     0.59440   0.94990   0.23250   0.01267  Uiso   1.00
O26    O     0.23290   0.30630   0.96780   0.01267  Uiso   1.00
O27    O     0.63170   0.65487   0.64954   0.01267  Uiso   1.00
O28    O     0.39640   0.16020   0.91339   0.01267  Uiso   1.00
O29    O     0.34160   0.87530   0.88593   0.01267  Uiso   1.00
O30    O     0.66100   0.22897   0.78508   0.01267  Uiso   1.00
O31    O     0.64220   0.93410   0.97370   0.01267  Uiso   1.00
O32    O     0.09440   0.94990   0.26750   0.01267  Uiso   1.00
O33    O     0.35470   0.10266   0.64582   0.01267  Uiso   1.00
O34    O     0.33900   0.77103   0.21492   0.01267  Uiso   1.00
O35    O     0.19500   0.17180   0.51564   0.01267  Uiso   1.00
O36    O     0.16100   0.22897   0.71492   0.01267  Uiso   1.00
