data_CODSOF_clean
_audit_creation_date              2015-10-16
_audit_creation_method            'Materials Studio'
_symmetry_space_group_name_H-M    'P1'
_symmetry_Int_Tables_number       1
_symmetry_cell_setting            triclinic
loop_
_symmetry_equiv_pos_as_xyz
  x,y,z
_cell_length_a                    9.4806
_cell_length_b                    18.1270
_cell_length_c                    18.6930
_cell_angle_alpha                 61.8800
_cell_angle_beta                  83.9800
_cell_angle_gamma                 86.3500
loop_
_atom_site_label
_atom_site_type_symbol
_atom_site_fract_x
_atom_site_fract_y
_atom_site_fract_z
_atom_site_U_iso_or_equiv
_atom_site_adp_type
_atom_site_occupancy
Zn1    Zn    0.34168   0.08069   0.64248   0.01267  Uiso   1.00
Zn2    Zn    0.51099   0.50034   0.74484   0.01267  Uiso   1.00
Zn3    Zn    0.65832   0.91931   0.35752   0.01267  Uiso   1.00
Zn4    Zn    0.64357   0.07187   0.12946   0.01267  Uiso   1.00
Zn5    Zn    0.35643   0.92813   0.87054   0.01267  Uiso   1.00
Zn6    Zn    0.48901   0.49966   0.25516   0.01267  Uiso   1.00
H1     H     0.11420   0.04460   0.89500   0.01267  Uiso   1.00
H2     H     0.43290   0.59310   0.49800   0.01267  Uiso   1.00
H3     H     0.82520   0.89350   0.58970   0.01267  Uiso   1.00
H4     H     0.06400   0.86020   0.59540   0.01267  Uiso   1.00
H5     H     0.26890   0.42900   0.69580   0.01267  Uiso   1.00
H6     H     0.76440   0.31600   0.54740   0.01267  Uiso   1.00
H7     H     0.45700   0.26250   0.17540   0.01267  Uiso   1.00
H8     H     0.09800   0.20900   0.94380   0.01267  Uiso   1.00
H9     H     0.26770   0.99640   0.39110   0.01267  Uiso   1.00
H10    H     0.47870   0.72850   0.32670   0.01267  Uiso   1.00
H11    H     0.26890   0.19170   0.04240   0.01267  Uiso   1.00
H12    H     0.03720   0.61610   0.84250   0.01267  Uiso   1.00
H13    H     0.46880   0.34360   0.49680   0.01267  Uiso   1.00
H14    H     0.37930   0.23970   0.06110   0.01267  Uiso   1.00
H15    H     0.45830   0.43920   0.43550   0.01267  Uiso   1.00
H16    H     0.69200   0.05280   0.88350   0.01267  Uiso   1.00
H17    H     0.96280   0.38390   0.15750   0.01267  Uiso   1.00
H18    H     0.50870   0.91190   0.59190   0.01267  Uiso   1.00
H19    H     0.08350   0.21400   0.20310   0.01267  Uiso   1.00
H20    H     0.10740   0.33800   0.69830   0.01267  Uiso   1.00
H21    H     0.79080   0.68670   0.90640   0.01267  Uiso   1.00
H22    H     0.30800   0.94720   0.11650   0.01267  Uiso   1.00
H23    H     0.90590   0.70950   0.94690   0.01267  Uiso   1.00
H24    H     0.20920   0.31330   0.09360   0.01267  Uiso   1.00
H25    H     0.17480   0.10650   0.41030   0.01267  Uiso   1.00
H26    H     0.52130   0.27150   0.67330   0.01267  Uiso   1.00
H27    H     0.13890   0.73260   0.87410   0.01267  Uiso   1.00
H28    H     0.62070   0.76030   0.93890   0.01267  Uiso   1.00
H29    H     0.01680   0.27700   0.39530   0.01267  Uiso   1.00
H30    H     0.02480   0.77080   0.33990   0.01267  Uiso   1.00
H31    H     0.80900   0.20490   0.21590   0.01267  Uiso   1.00
H32    H     0.67110   0.31640   0.84210   0.01267  Uiso   1.00
H33    H     0.91650   0.78600   0.79690   0.01267  Uiso   1.00
H34    H     0.06050   0.16630   0.73290   0.01267  Uiso   1.00
H35    H     0.97520   0.22920   0.66010   0.01267  Uiso   1.00
H36    H     0.26030   0.82560   0.47630   0.01267  Uiso   1.00
H37    H     0.56710   0.40690   0.50200   0.01267  Uiso   1.00
H38    H     0.49130   0.08810   0.40810   0.01267  Uiso   1.00
H39    H     0.86040   0.78170   0.35340   0.01267  Uiso   1.00
H40    H     0.10700   0.72250   0.48460   0.01267  Uiso   1.00
H41    H     0.93600   0.13980   0.40460   0.01267  Uiso   1.00
H42    H     0.77920   0.06090   0.38150   0.01267  Uiso   1.00
H43    H     0.21600   0.16290   0.19170   0.01267  Uiso   1.00
H44    H     0.90120   0.69210   0.73630   0.01267  Uiso   1.00
H45    H     0.77030   0.17800   0.67070   0.01267  Uiso   1.00
H46    H     0.69460   0.10260   0.67280   0.01267  Uiso   1.00
H47    H     0.74910   0.44220   0.17500   0.01267  Uiso   1.00
H48    H     0.54300   0.73750   0.82460   0.01267  Uiso   1.00
H49    H     0.45910   0.55460   0.07870   0.01267  Uiso   1.00
H50    H     0.43780   0.40330   0.00050   0.01267  Uiso   1.00
H51    H     0.46050   0.10540   0.91020   0.01267  Uiso   1.00
H52    H     0.25090   0.55780   0.82500   0.01267  Uiso   1.00
H53    H     0.22080   0.93910   0.61850   0.01267  Uiso   1.00
H54    H     0.72120   0.21760   0.14430   0.01267  Uiso   1.00
H55    H     0.73970   0.17440   0.52370   0.01267  Uiso   1.00
H56    H     0.88580   0.95540   0.10500   0.01267  Uiso   1.00
H57    H     0.27880   0.78240   0.85570   0.01267  Uiso   1.00
H58    H     0.56220   0.59670   0.99950   0.01267  Uiso   1.00
H59    H     0.01420   0.23150   0.82370   0.01267  Uiso   1.00
H60    H     0.53120   0.65640   0.50320   0.01267  Uiso   1.00
H61    H     0.90200   0.79100   0.05620   0.01267  Uiso   1.00
H62    H     0.56030   0.35040   0.98270   0.01267  Uiso   1.00
H63    H     0.89300   0.27750   0.51540   0.01267  Uiso   1.00
H64    H     0.10550   0.90020   0.09080   0.01267  Uiso   1.00
H65    H     0.98320   0.72300   0.60470   0.01267  Uiso   1.00
H66    H     0.54090   0.44540   0.92130   0.01267  Uiso   1.00
H67    H     0.54170   0.56080   0.56450   0.01267  Uiso   1.00
H68    H     0.98580   0.76850   0.17630   0.01267  Uiso   1.00
H69    H     0.38340   0.78890   0.43900   0.01267  Uiso   1.00
H70    H     0.13960   0.21830   0.64660   0.01267  Uiso   1.00
H71    H     0.93950   0.83370   0.26710   0.01267  Uiso   1.00
H72    H     0.89450   0.09980   0.90920   0.01267  Uiso   1.00
H73    H     0.73110   0.57100   0.30420   0.01267  Uiso   1.00
H74    H     0.09410   0.29050   0.05310   0.01267  Uiso   1.00
H75    H     0.23560   0.68400   0.45260   0.01267  Uiso   1.00
H76    H     0.61660   0.21110   0.56100   0.01267  Uiso   1.00
H77    H     0.09880   0.30790   0.26370   0.01267  Uiso   1.00
H78    H     0.73230   0.00360   0.60890   0.01267  Uiso   1.00
H79    H     0.35710   0.32120   0.35650   0.01267  Uiso   1.00
H80    H     0.78400   0.83710   0.80830   0.01267  Uiso   1.00
H81    H     0.43970   0.64960   0.01730   0.01267  Uiso   1.00
H82    H     0.30540   0.89740   0.32720   0.01267  Uiso   1.00
H83    H     0.89260   0.66200   0.30170   0.01267  Uiso   1.00
H84    H     0.86110   0.26740   0.12590   0.01267  Uiso   1.00
H85    H     0.32890   0.68360   0.15790   0.01267  Uiso   1.00
H86    H     0.29740   0.05570   0.14960   0.01267  Uiso   1.00
H87    H     0.19100   0.79510   0.78410   0.01267  Uiso   1.00
H88    H     0.22970   0.82200   0.32930   0.01267  Uiso   1.00
H89    H     0.70260   0.94430   0.85040   0.01267  Uiso   1.00
H90    H     0.73110   0.80830   0.95760   0.01267  Uiso   1.00
H91    H     0.53950   0.89460   0.08980   0.01267  Uiso   1.00
H92    H     0.64290   0.67880   0.64350   0.01267  Uiso   1.00
C1     C     0.38860   0.28210   0.33930   0.01267  Uiso   1.00
C2     C     0.13290   0.25230   0.89430   0.01267  Uiso   1.00
C3     C     0.65910   0.38970   0.68080   0.01267  Uiso   1.00
C4     C     0.88490   0.92560   0.60000   0.01267  Uiso   1.00
C5     C     0.59550   0.69460   0.74340   0.01267  Uiso   1.00
C6     C     0.53250   0.85770   0.62960   0.01267  Uiso   1.00
C7     C     0.36530   0.39420   0.19300   0.01267  Uiso   1.00
C8     C     0.41670   0.12000   0.76610   0.01267  Uiso   1.00
C9     C     0.46750   0.14230   0.37040   0.01267  Uiso   1.00
C10    C     0.60960   0.82610   0.51420   0.01267  Uiso   1.00
C11    C     0.40450   0.30540   0.25660   0.01267  Uiso   1.00
C12    C     0.87590   0.04860   0.38220   0.01267  Uiso   1.00
C13    C     0.07140   0.62510   0.79060   0.01267  Uiso   1.00
C14    C     0.92860   0.37490   0.20940   0.01267  Uiso   1.00
C15    C     0.71850   0.20210   0.55720   0.01267  Uiso   1.00
C16    C     0.95970   0.04050   0.13270   0.01267  Uiso   1.00
C17    C     0.03060   0.12370   0.65500   0.01267  Uiso   1.00
C18    C     0.86820   0.80610   0.83290   0.01267  Uiso   1.00
C19    C     0.08110   0.07020   0.14500   0.01267  Uiso   1.00
C20    C     0.37670   0.71790   0.17140   0.01267  Uiso   1.00
C21    C     0.23460   0.30450   0.89110   0.01267  Uiso   1.00
C22    C     0.17600   0.26910   0.08460   0.01267  Uiso   1.00
C23    C     0.49860   0.15530   0.86940   0.01267  Uiso   1.00
C24    C     0.55140   0.75310   0.76930   0.01267  Uiso   1.00
C25    C     0.62330   0.28210   0.82860   0.01267  Uiso   1.00
C26    C     0.01000   0.32760   0.27380   0.01267  Uiso   1.00
C27    C     0.13180   0.19390   0.16710   0.01267  Uiso   1.00
C28    C     0.39760   0.69200   0.25230   0.01267  Uiso   1.00
C29    C     0.51970   0.83480   0.71330   0.01267  Uiso   1.00
C30    C     0.39570   0.82550   0.02330   0.01267  Uiso   1.00
C31    C     0.89770   0.14680   0.15270   0.01267  Uiso   1.00
C32    C     0.90280   0.05730   0.89440   0.01267  Uiso   1.00
C33    C     0.52910   0.10230   0.25920   0.01267  Uiso   1.00
C34    C     0.63470   0.60580   0.80700   0.01267  Uiso   1.00
C35    C     0.12410   0.95140   0.61780   0.01267  Uiso   1.00
C36    C     0.58330   0.88000   0.23390   0.01267  Uiso   1.00
C37    C     0.05340   0.19000   0.67540   0.01267  Uiso   1.00
C38    C     0.11510   0.07440   0.40000   0.01267  Uiso   1.00
C39    C     0.70970   0.75440   0.96250   0.01267  Uiso   1.00
C40    C     0.79100   0.28620   0.51630   0.01267  Uiso   1.00
C41    C     0.81500   0.21520   0.16040   0.01267  Uiso   1.00
C42    C     0.77920   0.02770   0.87960   0.01267  Uiso   1.00
C43    C     0.13860   0.33130   0.74660   0.01267  Uiso   1.00
C44    C     0.44860   0.24690   0.23070   0.01267  Uiso   1.00
C45    C     0.19930   0.59140   0.78090   0.01267  Uiso   1.00
C46    C     0.51970   0.82040   0.21230   0.01267  Uiso   1.00
C47    C     0.76550   0.14510   0.64250   0.01267  Uiso   1.00
C48    C     0.97000   0.09460   0.39680   0.01267  Uiso   1.00
C49    C     0.94660   0.81000   0.32460   0.01267  Uiso   1.00
C50    C     0.22080   0.97230   0.12040   0.01267  Uiso   1.00
C51    C     0.04030   0.95950   0.86730   0.01267  Uiso   1.00
C52    C     0.07680   0.96390   0.37300   0.01267  Uiso   1.00
C53    C     0.08420   0.26580   0.82270   0.01267  Uiso   1.00
C54    C     0.86140   0.66870   0.25340   0.01267  Uiso   1.00
C55    C     0.60240   0.30800   0.74770   0.01267  Uiso   1.00
C56    C     0.28830   0.37050   0.81760   0.01267  Uiso   1.00
C57    C     0.42670   0.79480   0.11030   0.01267  Uiso   1.00
C58    C     0.58040   0.79990   0.60340   0.01267  Uiso   1.00
C59    C     0.23670   0.38420   0.74490   0.01267  Uiso   1.00
C60    C     0.34090   0.61030   0.31920   0.01267  Uiso   1.00
C61    C     0.74990   0.39050   0.29850   0.01267  Uiso   1.00
C62    C     0.96260   0.30930   0.35200   0.01267  Uiso   1.00
C63    C     0.50770   0.60510   0.04140   0.01267  Uiso   1.00
C64    C     0.20900   0.71380   0.48370   0.01267  Uiso   1.00
C65    C     0.52160   0.39410   0.46580   0.01267  Uiso   1.00
C66    C     0.03000   0.90540   0.60320   0.01267  Uiso   1.00
C67    C     0.09720   0.94270   0.10560   0.01267  Uiso   1.00
C68    C     0.21650   0.03630   0.14010   0.01267  Uiso   1.00
C69    C     0.10230   0.85320   0.84730   0.01267  Uiso   1.00
C70    C     0.17160   0.65850   0.63620   0.01267  Uiso   1.00
C71    C     0.96720   0.97570   0.11300   0.01267  Uiso   1.00
C72    C     0.91890   0.92980   0.85500   0.01267  Uiso   1.00
C73    C     0.48030   0.17960   0.78770   0.01267  Uiso   1.00
C74    C     0.48030   0.16520   0.28670   0.01267  Uiso   1.00
C75    C     0.93250   0.98390   0.36890   0.01267  Uiso   1.00
C76    C     0.96940   0.87630   0.34500   0.01267  Uiso   1.00
C77    C     0.17130   0.00960   0.38870   0.01267  Uiso   1.00
C78    C     0.60320   0.62730   0.08550   0.01267  Uiso   1.00
C79    C     0.47840   0.60590   0.53420   0.01267  Uiso   1.00
C80    C     0.36860   0.61760   0.59170   0.01267  Uiso   1.00
C81    C     0.99000   0.67240   0.72620   0.01267  Uiso   1.00
C82    C     0.06750   0.01610   0.63110   0.01267  Uiso   1.00
C83    C     0.03740   0.69070   0.64800   0.01267  Uiso   1.00
C84    C     0.86710   0.74770   0.10570   0.01267  Uiso   1.00
C85    C     0.91580   0.73420   0.17730   0.01267  Uiso   1.00
C86    C     0.46740   0.74470   0.27240   0.01267  Uiso   1.00
C87    C     0.63140   0.38240   0.40830   0.01267  Uiso   1.00
C88    C     0.71170   0.62950   0.18240   0.01267  Uiso   1.00
C89    C     0.61140   0.71790   0.66070   0.01267  Uiso   1.00
C90    C     0.39040   0.17390   0.48580   0.01267  Uiso   1.00
C91    C     0.82870   0.99040   0.61130   0.01267  Uiso   1.00
C92    C     0.76540   0.69550   0.10890   0.01267  Uiso   1.00
C93    C     0.39680   0.37270   0.91450   0.01267  Uiso   1.00
C94    C     0.76330   0.61580   0.25510   0.01267  Uiso   1.00
C95    C     0.47090   0.89770   0.74080   0.01267  Uiso   1.00
C96    C     0.03280   0.02430   0.88700   0.01267  Uiso   1.00
C97    C     0.18500   0.78480   0.83960   0.01267  Uiso   1.00
C98    C     0.28150   0.79790   0.44280   0.01267  Uiso   1.00
C99    C     0.50140   0.84470   0.13060   0.01267  Uiso   1.00
C100   C     0.53260   0.25530   0.72760   0.01267  Uiso   1.00
C101   C     0.57330   0.20520   0.88970   0.01267  Uiso   1.00
C102   C     0.29030   0.24560   0.03750   0.01267  Uiso   1.00
C103   C     0.80070   0.40860   0.21910   0.01267  Uiso   1.00
C104   C     0.49230   0.39490   0.95860   0.01267  Uiso   1.00
C105   C     0.60430   0.17450   0.97670   0.01267  Uiso   1.00
C106   C     0.82840   0.34150   0.36380   0.01267  Uiso   1.00
C107   C     0.23450   0.85490   0.35750   0.01267  Uiso   1.00
C108   C     0.82400   0.73090   0.91540   0.01267  Uiso   1.00
C109   C     0.41960   0.20010   0.39660   0.01267  Uiso   1.00
C110   C     0.25010   0.60950   0.70150   0.01267  Uiso   1.00
C111   C     0.78350   0.96370   0.85990   0.01267  Uiso   1.00
C112   C     0.92320   0.03610   0.62700   0.01267  Uiso   1.00
N1     N     0.13180   0.07180   0.64900   0.01267  Uiso   1.00
N2     N     0.24900   0.66350   0.56700   0.01267  Uiso   1.00
N3     N     0.09640   0.89610   0.35800   0.01267  Uiso   1.00
N4     N     0.75100   0.33650   0.43300   0.01267  Uiso   1.00
N5     N     0.84530   0.08870   0.13930   0.01267  Uiso   1.00
N6     N     0.86820   0.92820   0.35100   0.01267  Uiso   1.00
N7     N     0.96270   0.86250   0.84160   0.01267  Uiso   1.00
N8     N     0.90360   0.10390   0.64200   0.01267  Uiso   1.00
N9     N     0.30750   0.30720   0.95030   0.01267  Uiso   1.00
N10    N     0.69250   0.69280   0.04970   0.01267  Uiso   1.00
N11    N     0.03730   0.13750   0.15840   0.01267  Uiso   1.00
N12    N     0.62570   0.41580   0.32870   0.01267  Uiso   1.00
N13    N     0.38900   0.41190   0.83360   0.01267  Uiso   1.00
N14    N     0.61100   0.58810   0.16640   0.01267  Uiso   1.00
N15    N     0.15470   0.91130   0.86070   0.01267  Uiso   1.00
N16    N     0.37430   0.58420   0.67130   0.01267  Uiso   1.00
O1     O     0.57010   0.89970   0.46490   0.01267  Uiso   1.00
O2     O     0.35950   0.45070   0.21620   0.01267  Uiso   1.00
O3     O     0.62860   0.94810   0.17830   0.01267  Uiso   1.00
O4     O     0.57210   0.09930   0.02680   0.01267  Uiso   1.00
O5     O     0.66160   0.22060   0.99630   0.01267  Uiso   1.00
O6     O     0.33670   0.40450   0.12740   0.01267  Uiso   1.00
O7     O     0.58610   0.03710   0.30860   0.01267  Uiso   1.00
O8     O     0.42790   0.90070   0.97320   0.01267  Uiso   1.00
O9     O     0.48610   0.88040   0.81330   0.01267  Uiso   1.00
O10    O     0.33840   0.77940   0.00370   0.01267  Uiso   1.00
O11    O     0.64250   0.45450   0.68960   0.01267  Uiso   1.00
O12    O     0.58190   0.85840   0.30920   0.01267  Uiso   1.00
O13    O     0.27970   0.61020   0.38000   0.01267  Uiso   1.00
O14    O     0.66330   0.59550   0.87260   0.01267  Uiso   1.00
O15    O     0.33050   0.22110   0.50920   0.01267  Uiso   1.00
O16    O     0.41390   0.96290   0.69140   0.01267  Uiso   1.00
O17    O     0.35750   0.54550   0.31040   0.01267  Uiso   1.00
O18    O     0.66950   0.77890   0.49080   0.01267  Uiso   1.00
O19    O     0.64050   0.54930   0.78380   0.01267  Uiso   1.00
O20    O     0.51390   0.11960   0.18670   0.01267  Uiso   1.00
O21    O     0.42990   0.10030   0.53510   0.01267  Uiso   1.00
O22    O     0.37140   0.05190   0.82170   0.01267  Uiso   1.00
O23    O     0.41810   0.14160   0.69080   0.01267  Uiso   1.00
O24    O     0.72030   0.38980   0.62000   0.01267  Uiso   1.00
