data_image0
_cell_length_a       8.7796
_cell_length_b       14.857
_cell_length_c       21.621
_cell_angle_alpha    72.212
_cell_angle_beta     81.686
_cell_angle_gamma    83.572

_symmetry_space_group_name_H-M    "P 1"
_symmetry_int_tables_number       1

loop_
  _symmetry_equiv_pos_as_xyz
  'x, y, z'

loop_
  _atom_site_label
  _atom_site_occupancy
  _atom_site_fract_x
  _atom_site_fract_y
  _atom_site_fract_z
  _atom_site_thermal_displace_type
  _atom_site_B_iso_or_equiv
  _atom_site_type_symbol
  C1       1.0000 0.96190  0.80040  0.60320  Biso   1.000  C
  H1       1.0000 0.99690  0.82200  0.63440  Biso   1.000  H
  C2       1.0000 0.88440  0.79570  0.51520  Biso   1.000  C
  H2       1.0000 0.85490  0.81360  0.47320  Biso   1.000  H
  C3       1.0000 0.88780  0.70670  0.55660  Biso   1.000  C
  H3       1.0000 0.86150  0.65290  0.54830  Biso   1.000  H
  C4       1.0000 0.95740  0.63030  0.67150  Biso   1.000  C
  H4       1.0000 0.00290  0.65190  0.70230  Biso   1.000  H
  H5       1.0000 0.02830  0.58160  0.65980  Biso   1.000  H
  C5       1.0000 0.80610  0.58820  0.70400  Biso   1.000  C
  C6       1.0000 0.76860  0.50290  0.69990  Biso   1.000  C
  H6       1.0000 0.83950  0.46880  0.67780  Biso   1.000  H
  C7       1.0000 0.69850  0.63720  0.73720  Biso   1.000  C
  H7       1.0000 0.72140  0.69530  0.74000  Biso   1.000  H
  C8       1.0000 0.62710  0.46640  0.72810  Biso   1.000  C
  H8       1.0000 0.60500  0.40820  0.72500  Biso   1.000  H
  C9       1.0000 0.55830  0.60270  0.76600  Biso   1.000  C
  H9       1.0000 0.48970  0.63670  0.78900  Biso   1.000  H
  C10      1.0000 0.51790  0.51700  0.76120  Biso   1.000  C
  C11      1.0000 0.36330  0.48080  0.78980  Biso   1.000  C
  C12      1.0000 0.33790  0.38520  0.80850  Biso   1.000  C
  H10      1.0000 0.42050  0.34180  0.80380  Biso   1.000  H
  C13      1.0000 0.23490  0.54300  0.79830  Biso   1.000  C
  H11      1.0000 0.24710  0.60770  0.78650  Biso   1.000  H
  C14      1.0000 0.19340  0.35200  0.83380  Biso   1.000  C
  H12      1.0000 0.18080  0.28740  0.84550  Biso   1.000  H
  C15      1.0000 0.09270  0.51100  0.82340  Biso   1.000  C
  H13      1.0000 0.01040  0.55440  0.82840  Biso   1.000  H
  C16      1.0000 0.06750  0.41460  0.84190  Biso   1.000  C
  C17      1.0000 0.90650  0.38510  0.86900  Biso   1.000  C
  H14      1.0000 0.87600  0.40270  0.90900  Biso   1.000  H
  H15      1.0000 0.83570  0.41950  0.83790  Biso   1.000  H
  C18      1.0000 0.93810  0.21460  0.93480  Biso   1.000  C
  H16      1.0000 0.97640  0.22620  0.96930  Biso   1.000  H
  C19      1.0000 0.84280  0.23790  0.84370  Biso   1.000  C
  H17      1.0000 0.80440  0.26690  0.80390  Biso   1.000  H
  C20      1.0000 0.86020  0.14410  0.87380  Biso   1.000  C
  H18      1.0000 0.83420  0.09660  0.85820  Biso   1.000  H
  C21      1.0000 0.96470  0.06030  0.62810  Biso   1.000  C
  H19      1.0000 0.86430  0.08580  0.62220  Biso   1.000  H
  C22      1.0000 0.18480  0.98390  0.61890  Biso   1.000  C
  H20      1.0000 0.26590  0.94630  0.60480  Biso   1.000  H
  C23      1.0000 0.18470  0.02260  0.66650  Biso   1.000  C
  H21      1.0000 0.26540  0.01700  0.69120  Biso   1.000  H
  C24      1.0000 0.00370  0.13630  0.71350  Biso   1.000  C
  H22      1.0000 0.04480  0.10890  0.75510  Biso   1.000  H
  H23      1.0000 0.89220  0.14430  0.72220  Biso   1.000  H
  C25      1.0000 0.06700  0.23090  0.67960  Biso   1.000  C
  C26      1.0000 0.00470  0.29420  0.62560  Biso   1.000  C
  H24      1.0000 0.91740  0.27900  0.61220  Biso   1.000  H
  C27      1.0000 0.19770  0.25660  0.69800  Biso   1.000  C
  H25      1.0000 0.24280  0.21540  0.73350  Biso   1.000  H
  C28      1.0000 0.06730  0.37700  0.59210  Biso   1.000  C
  H26      1.0000 0.02220  0.41690  0.55620  Biso   1.000  H
  C29      1.0000 0.26140  0.34030  0.66560  Biso   1.000  C
  H27      1.0000 0.34690  0.35520  0.68030  Biso   1.000  H
  C30      1.0000 0.20170  0.40490  0.61040  Biso   1.000  C
  C31      1.0000 0.27380  0.49290  0.57380  Biso   1.000  C
  C32      1.0000 0.28190  0.52690  0.50520  Biso   1.000  C
  H28      1.0000 0.23810  0.49410  0.48270  Biso   1.000  H
  C33      1.0000 0.34220  0.54430  0.60600  Biso   1.000  C
  H29      1.0000 0.33820  0.52350  0.65130  Biso   1.000  H
  C34      1.0000 0.35340  0.60770  0.47120  Biso   1.000  C
  H30      1.0000 0.35630  0.62940  0.42590  Biso   1.000  H
  C35      1.0000 0.41440  0.62410  0.57160  Biso   1.000  C
  H31      1.0000 0.45950  0.65680  0.59380  Biso   1.000  H
  C36      1.0000 0.42200  0.65800  0.50330  Biso   1.000  C
  C37      1.0000 0.50520  0.74580  0.46510  Biso   1.000  C
  H32      1.0000 0.60170  0.74310  0.48280  Biso   1.000  H
  H33      1.0000 0.53000  0.74560  0.42000  Biso   1.000  H
  C38      1.0000 0.27260  0.84900  0.49230  Biso   1.000  C
  H34      1.0000 0.20940  0.80040  0.51500  Biso   1.000  H
  C39      1.0000 0.46530  0.91790  0.43690  Biso   1.000  C
  H35      1.0000 0.56160  0.93030  0.41300  Biso   1.000  H
  C40      1.0000 0.34730  0.98640  0.44690  Biso   1.000  C
  H36      1.0000 0.35160  0.05180  0.43170  Biso   1.000  H
  C41      1.0000 0.69960  0.92140  0.97770  Biso   1.000  C
  H37      1.0000 0.73140  0.93290  0.93320  Biso   1.000  H
  C42      1.0000 0.69440  0.91010  0.07860  Biso   1.000  C
  H38      1.0000 0.72350  0.91290  0.11760  Biso   1.000  H
  C43      1.0000 0.56400  0.87620  0.07250  Biso   1.000  C
  H39      1.0000 0.48680  0.85240  0.10610  Biso   1.000  H
  C44      1.0000 0.45040  0.85260  0.97710  Biso   1.000  C
  H40      1.0000 0.46040  0.88640  0.93070  Biso   1.000  H
  H41      1.0000 0.34820  0.86980  0.99580  Biso   1.000  H
  C45      1.0000 0.46420  0.74690  0.98540  Biso   1.000  C
  C46      1.0000 0.41000  0.71510  0.94110  Biso   1.000  C
  H42      1.0000 0.36250  0.75730  0.90670  Biso   1.000  H
  C47      1.0000 0.50450  0.68020  0.03950  Biso   1.000  C
  H43      1.0000 0.52520  0.69940  0.07440  Biso   1.000  H
  C48      1.0000 0.42500  0.61800  0.94740  Biso   1.000  C
  H44      1.0000 0.38750  0.59750  0.91640  Biso   1.000  H
  C49      1.0000 0.51660  0.58460  0.04550  Biso   1.000  C
  H45      1.0000 0.54230  0.54170  0.08460  Biso   1.000  H
  C50      1.0000 0.49250  0.55150  0.99700  Biso   1.000  C
  N1       1.0000 0.93190  0.85580  0.54510  Biso   1.000  N
  N2       1.0000 0.93640  0.71020  0.61250  Biso   1.000  N
  N3       1.0000 0.92260  0.12970  0.93120  Biso   1.000  N
  N4       1.0000 0.89250  0.28220  0.88320  Biso   1.000  N
  N5       1.0000 0.04400  0.00830  0.59350  Biso   1.000  N
  N6       1.0000 0.04500  0.07250  0.67290  Biso   1.000  N
  N7       1.0000 0.22900  0.93940  0.48220  Biso   1.000  N
  N8       1.0000 0.41610  0.83460  0.46680  Biso   1.000  N
  N9       1.0000 0.77930  0.94040  0.01770  Biso   1.000  N
  N10      1.0000 0.56550  0.88330  0.00760  Biso   1.000  N
  C51      1.0000 0.03810  0.19960  0.39680  Biso   1.000  C
  H46      1.0000 0.00310  0.17800  0.36560  Biso   1.000  H
  C52      1.0000 0.11560  0.20430  0.48480  Biso   1.000  C
  H47      1.0000 0.14510  0.18640  0.52680  Biso   1.000  H
  C53      1.0000 0.11220  0.29330  0.44340  Biso   1.000  C
  H48      1.0000 0.13850  0.34710  0.45170  Biso   1.000  H
  C54      1.0000 0.04260  0.36970  0.32850  Biso   1.000  C
  H49      1.0000 0.99710  0.34810  0.29770  Biso   1.000  H
  H50      1.0000 0.97170  0.41840  0.34020  Biso   1.000  H
  C55      1.0000 0.19390  0.41180  0.29600  Biso   1.000  C
  C56      1.0000 0.23140  0.49710  0.30010  Biso   1.000  C
  H51      1.0000 0.16050  0.53120  0.32220  Biso   1.000  H
  C57      1.0000 0.30150  0.36280  0.26280  Biso   1.000  C
  H52      1.0000 0.27860  0.30470  0.26000  Biso   1.000  H
  C58      1.0000 0.37290  0.53360  0.27190  Biso   1.000  C
  H53      1.0000 0.39500  0.59180  0.27500  Biso   1.000  H
  C59      1.0000 0.44170  0.39730  0.23400  Biso   1.000  C
  H54      1.0000 0.51030  0.36330  0.21100  Biso   1.000  H
  C60      1.0000 0.48210  0.48300  0.23880  Biso   1.000  C
  C61      1.0000 0.63670  0.51920  0.21020  Biso   1.000  C
  C62      1.0000 0.66210  0.61480  0.19150  Biso   1.000  C
  H55      1.0000 0.57950  0.65820  0.19620  Biso   1.000  H
  C63      1.0000 0.76510  0.45700  0.20170  Biso   1.000  C
  H56      1.0000 0.75290  0.39230  0.21350  Biso   1.000  H
  C64      1.0000 0.80660  0.64800  0.16620  Biso   1.000  C
  H57      1.0000 0.81920  0.71260  0.15450  Biso   1.000  H
  C65      1.0000 0.90730  0.48900  0.17660  Biso   1.000  C
  H58      1.0000 0.98960  0.44560  0.17160  Biso   1.000  H
  C66      1.0000 0.93250  0.58540  0.15810  Biso   1.000  C
  C67      1.0000 0.09350  0.61490  0.13100  Biso   1.000  C
  H59      1.0000 0.12400  0.59730  0.09100  Biso   1.000  H
  H60      1.0000 0.16430  0.58050  0.16210  Biso   1.000  H
  C68      1.0000 0.06190  0.78540  0.06520  Biso   1.000  C
  H61      1.0000 0.02360  0.77380  0.03070  Biso   1.000  H
  C69      1.0000 0.15720  0.76210  0.15630  Biso   1.000  C
  H62      1.0000 0.19560  0.73310  0.19610  Biso   1.000  H
  C70      1.0000 0.13980  0.85590  0.12620  Biso   1.000  C
  H63      1.0000 0.16580  0.90340  0.14180  Biso   1.000  H
  C71      1.0000 0.03530  0.93970  0.37190  Biso   1.000  C
  H64      1.0000 0.13570  0.91420  0.37780  Biso   1.000  H
  C72      1.0000 0.81520  0.01610  0.38110  Biso   1.000  C
  H65      1.0000 0.73410  0.05370  0.39520  Biso   1.000  H
  C73      1.0000 0.81530  0.97740  0.33350  Biso   1.000  C
  H66      1.0000 0.73460  0.98300  0.30880  Biso   1.000  H
  C74      1.0000 0.99630  0.86370  0.28650  Biso   1.000  C
  H67      1.0000 0.95520  0.89110  0.24490  Biso   1.000  H
  H68      1.0000 0.10780  0.85570  0.27780  Biso   1.000  H
  C75      1.0000 0.93300  0.76910  0.32040  Biso   1.000  C
  C76      1.0000 0.99530  0.70580  0.37440  Biso   1.000  C
  H69      1.0000 0.08260  0.72100  0.38780  Biso   1.000  H
  C77      1.0000 0.80230  0.74340  0.30200  Biso   1.000  C
  H70      1.0000 0.75720  0.78460  0.26650  Biso   1.000  H
  C78      1.0000 0.93270  0.62300  0.40790  Biso   1.000  C
  H71      1.0000 0.97780  0.58310  0.44380  Biso   1.000  H
  C79      1.0000 0.73860  0.65970  0.33440  Biso   1.000  C
  H72      1.0000 0.65310  0.64480  0.31970  Biso   1.000  H
  C80      1.0000 0.79830  0.59510  0.38960  Biso   1.000  C
  C81      1.0000 0.72620  0.50710  0.42620  Biso   1.000  C
  C82      1.0000 0.71810  0.47310  0.49480  Biso   1.000  C
  H73      1.0000 0.76190  0.50590  0.51730  Biso   1.000  H
  C83      1.0000 0.65780  0.45570  0.39400  Biso   1.000  C
  H74      1.0000 0.66180  0.47650  0.34870  Biso   1.000  H
  C84      1.0000 0.64660  0.39230  0.52880  Biso   1.000  C
  H75      1.0000 0.64370  0.37060  0.57410  Biso   1.000  H
  C85      1.0000 0.58560  0.37590  0.42840  Biso   1.000  C
  H76      1.0000 0.54050  0.34320  0.40620  Biso   1.000  H
  C86      1.0000 0.57800  0.34200  0.49670  Biso   1.000  C
  C87      1.0000 0.49480  0.25420  0.53490  Biso   1.000  C
  H77      1.0000 0.39830  0.25690  0.51720  Biso   1.000  H
  H78      1.0000 0.47000  0.25440  0.58000  Biso   1.000  H
  C88      1.0000 0.72740  0.15100  0.50770  Biso   1.000  C
  H79      1.0000 0.79060  0.19960  0.48500  Biso   1.000  H
  C89      1.0000 0.53470  0.08210  0.56310  Biso   1.000  C
  H80      1.0000 0.43840  0.06970  0.58700  Biso   1.000  H
  C90      1.0000 0.65270  0.01360  0.55310  Biso   1.000  C
  H81      1.0000 0.64840  0.94820  0.56830  Biso   1.000  H
  C91      1.0000 0.30040  0.07860  0.02230  Biso   1.000  C
  H82      1.0000 0.26860  0.06710  0.06680  Biso   1.000  H
  C92      1.0000 0.30560  0.08990  0.92140  Biso   1.000  C
  H83      1.0000 0.27650  0.08710  0.88240  Biso   1.000  H
  C93      1.0000 0.43600  0.12380  0.92750  Biso   1.000  C
  H84      1.0000 0.51320  0.14760  0.89390  Biso   1.000  H
  C94      1.0000 0.54960  0.14740  0.02290  Biso   1.000  C
  H85      1.0000 0.53960  0.11360  0.06930  Biso   1.000  H
  H86      1.0000 0.65180  0.13020  0.00420  Biso   1.000  H
  C95      1.0000 0.53580  0.25310  0.01460  Biso   1.000  C
  C96      1.0000 0.59000  0.28490  0.05890  Biso   1.000  C
  H87      1.0000 0.63750  0.24270  0.09330  Biso   1.000  H
  C97      1.0000 0.49550  0.31980  0.96050  Biso   1.000  C
  H88      1.0000 0.47480  0.30060  0.92560  Biso   1.000  H
  C98      1.0000 0.57500  0.38200  0.05260  Biso   1.000  C
  H89      1.0000 0.61250  0.40250  0.08360  Biso   1.000  H
  C99      1.0000 0.48340  0.41540  0.95450  Biso   1.000  C
  H90      1.0000 0.45770  0.45830  0.91540  Biso   1.000  H
  C100     1.0000 0.50750  0.44850  0.00300  Biso   1.000  C
  N11      1.0000 0.06810  0.14420  0.45490  Biso   1.000  N
  N12      1.0000 0.06360  0.28980  0.38750  Biso   1.000  N
  N13      1.0000 0.07740  0.87030  0.06880  Biso   1.000  N
  N14      1.0000 0.10750  0.71780  0.11680  Biso   1.000  N
  N15      1.0000 0.95600  0.99170  0.40650  Biso   1.000  N
  N16      1.0000 0.95500  0.92750  0.32710  Biso   1.000  N
  N17      1.0000 0.77100  0.06060  0.51780  Biso   1.000  N
  N18      1.0000 0.58390  0.16540  0.53320  Biso   1.000  N
  N19      1.0000 0.22070  0.05960  0.98230  Biso   1.000  N
  N20      1.0000 0.43450  0.11670  0.99240  Biso   1.000  N
  Co1      1.0000 0.00000  0.00000  0.50000  Biso   1.000  Co
  Co2      1.0000 0.00000  0.00000  0.00000  Biso   1.000  Co
