data_image0
_cell_length_a       8.3576
_cell_length_b       10.5283
_cell_length_c       17.4675
_cell_angle_alpha    98.741
_cell_angle_beta     97.008
_cell_angle_gamma    100.523

_symmetry_space_group_name_H-M    "P 1"
_symmetry_int_tables_number       1

loop_
  _symmetry_equiv_pos_as_xyz
  'x, y, z'

loop_
  _atom_site_label
  _atom_site_occupancy
  _atom_site_fract_x
  _atom_site_fract_y
  _atom_site_fract_z
  _atom_site_thermal_displace_type
  _atom_site_B_iso_or_equiv
  _atom_site_type_symbol
  Gd1      1.0000 0.03334  0.18963  0.23674  Biso   1.000  Gd
  Gd2      1.0000 0.52029  0.13507  0.29528  Biso   1.000  Gd
  C1       1.0000 0.27590  0.20730  0.41010  Biso   1.000  C
  C2       1.0000 0.18410  0.19620  0.47840  Biso   1.000  C
  C3       1.0000 0.21890  0.11210  0.52870  Biso   1.000  C
  H1       1.0000 0.30360  0.06720  0.52190  Biso   1.000  H
  C4       1.0000 0.12870  0.09400  0.58940  Biso   1.000  C
  C5       1.0000 0.00460  0.16270  0.59870  Biso   1.000  C
  H2       1.0000 0.94230  0.15060  0.63870  Biso   1.000  H
  C6       1.0000 0.97170  0.24810  0.55020  Biso   1.000  C
  H3       1.0000 0.88890  0.29470  0.55800  Biso   1.000  H
  C7       1.0000 0.06070  0.26590  0.48960  Biso   1.000  C
  H4       1.0000 0.03800  0.32410  0.45670  Biso   1.000  H
  C8       1.0000 0.16410  0.99860  0.64160  Biso   1.000  C
  C9       1.0000 0.33950  0.22710  0.14020  Biso   1.000  C
  C10      1.0000 0.41630  0.20240  0.06820  Biso   1.000  C
  C11      1.0000 0.32750  0.12000  0.00070  Biso   1.000  C
  H5       1.0000 0.21760  0.08190  0.99980  Biso   1.000  H
  C12      1.0000 0.40150  0.09410  0.93480  Biso   1.000  C
  C13      1.0000 0.56570  0.15390  0.93680  Biso   1.000  C
  H6       1.0000 0.61570  0.13870  0.89250  Biso   1.000  H
  C14      1.0000 0.65430  0.23470  0.00330  Biso   1.000  C
  H7       1.0000 0.76400  0.27330  0.00400  Biso   1.000  H
  C15      1.0000 0.58030  0.25900  0.06920  Biso   1.000  C
  H8       1.0000 0.64070  0.31340  0.11430  Biso   1.000  H
  C16      1.0000 0.31320  0.00140  0.86310  Biso   1.000  C
  C17      1.0000 0.02650  0.43860  0.19400  Biso   1.000  C
  C18      1.0000 0.02740  0.56960  0.17090  Biso   1.000  C
  C19      1.0000 0.12260  0.68300  0.21760  Biso   1.000  C
  H9       1.0000 0.18440  0.67790  0.26460  Biso   1.000  H
  C20      1.0000 0.12640  0.80470  0.19470  Biso   1.000  C
  C21      1.0000 0.03300  0.81210  0.12480  Biso   1.000  C
  H10      1.0000 0.03270  0.89300  0.10960  Biso   1.000  H
  C22      1.0000 0.94020  0.69810  0.07750  Biso   1.000  C
  H11      1.0000 0.88000  0.70310  0.03010  Biso   1.000  H
  C23      1.0000 0.93580  0.57800  0.09970  Biso   1.000  C
  H12      1.0000 0.87230  0.50250  0.06770  Biso   1.000  H
  C24      1.0000 0.24050  0.92230  0.24240  Biso   1.000  C
  C25      1.0000 0.78420  0.36740  0.33620  Biso   1.000  C
  H13      1.0000 0.86600  0.44320  0.35060  Biso   1.000  H
  O1       1.0000 0.22000  0.26130  0.35555  Biso   1.000  O
  O2       1.0000 0.40280  0.16040  0.41014  Biso   1.000  O
  O3       1.0000 0.06390  0.96940  0.68729  Biso   1.000  O
  O4       1.0000 0.29190  0.95250  0.63458  Biso   1.000  O
  O5       1.0000 0.18570  0.20880  0.13264  Biso   1.000  O
  O6       1.0000 0.43370  0.26490  0.20630  Biso   1.000  O
  O7       1.0000 0.16220  0.95450  0.85882  Biso   1.000  O
  O8       1.0000 0.39730  0.97320  0.80983  Biso   1.000  O
  O9       1.0000 0.12470  0.43160  0.25459  Biso   1.000  O
  O10      1.0000 0.92960  0.33990  0.15591  Biso   1.000  O
  O11      1.0000 0.36100  0.90800  0.28845  Biso   1.000  O
  O12      1.0000 0.22390  0.03700  0.23258  Biso   1.000  O
  O13      1.0000 0.64870  0.36710  0.35893  Biso   1.000  O
  O14      1.0000 0.81420  0.27070  0.29500  Biso   1.000  O
  Gd3      1.0000 0.96666  0.81037  0.76326  Biso   1.000  Gd
  Gd4      1.0000 0.47971  0.86493  0.70472  Biso   1.000  Gd
  C26      1.0000 0.72410  0.79270  0.58990  Biso   1.000  C
  C27      1.0000 0.81590  0.80380  0.52160  Biso   1.000  C
  C28      1.0000 0.78110  0.88790  0.47130  Biso   1.000  C
  H14      1.0000 0.69640  0.93280  0.47810  Biso   1.000  H
  C29      1.0000 0.87130  0.90600  0.41060  Biso   1.000  C
  C30      1.0000 0.99540  0.83730  0.40130  Biso   1.000  C
  H15      1.0000 0.05770  0.84940  0.36130  Biso   1.000  H
  C31      1.0000 0.02830  0.75190  0.44980  Biso   1.000  C
  H16      1.0000 0.11110  0.70530  0.44200  Biso   1.000  H
  C32      1.0000 0.93930  0.73410  0.51040  Biso   1.000  C
  H17      1.0000 0.96200  0.67590  0.54330  Biso   1.000  H
  C33      1.0000 0.83590  0.00140  0.35840  Biso   1.000  C
  C34      1.0000 0.66050  0.77290  0.85980  Biso   1.000  C
  C35      1.0000 0.58370  0.79760  0.93180  Biso   1.000  C
  C36      1.0000 0.67250  0.88000  0.99930  Biso   1.000  C
  H18      1.0000 0.78240  0.91810  0.00020  Biso   1.000  H
  C37      1.0000 0.59850  0.90590  0.06520  Biso   1.000  C
  C38      1.0000 0.43430  0.84610  0.06320  Biso   1.000  C
  H19      1.0000 0.38430  0.86130  0.10750  Biso   1.000  H
  C39      1.0000 0.34570  0.76530  0.99670  Biso   1.000  C
  H20      1.0000 0.23600  0.72670  0.99600  Biso   1.000  H
  C40      1.0000 0.41970  0.74100  0.93080  Biso   1.000  C
  H21      1.0000 0.35930  0.68660  0.88570  Biso   1.000  H
  C41      1.0000 0.68680  0.99860  0.13690  Biso   1.000  C
  C42      1.0000 0.97350  0.56140  0.80600  Biso   1.000  C
  C43      1.0000 0.97260  0.43040  0.82910  Biso   1.000  C
  C44      1.0000 0.87740  0.31700  0.78240  Biso   1.000  C
  H22      1.0000 0.81560  0.32210  0.73540  Biso   1.000  H
  C45      1.0000 0.87360  0.19530  0.80530  Biso   1.000  C
  C46      1.0000 0.96700  0.18790  0.87520  Biso   1.000  C
  H23      1.0000 0.96730  0.10700  0.89040  Biso   1.000  H
  C47      1.0000 0.05980  0.30190  0.92250  Biso   1.000  C
  H24      1.0000 0.12000  0.29690  0.96990  Biso   1.000  H
  C48      1.0000 0.06420  0.42200  0.90030  Biso   1.000  C
  H25      1.0000 0.12770  0.49750  0.93230  Biso   1.000  H
  C49      1.0000 0.75950  0.07770  0.75760  Biso   1.000  C
  C50      1.0000 0.21580  0.63260  0.66380  Biso   1.000  C
  H26      1.0000 0.13400  0.55680  0.64940  Biso   1.000  H
  O15      1.0000 0.78000  0.73870  0.64445  Biso   1.000  O
  O16      1.0000 0.59720  0.83960  0.58986  Biso   1.000  O
  O17      1.0000 0.93610  0.03060  0.31271  Biso   1.000  O
  O18      1.0000 0.70810  0.04750  0.36542  Biso   1.000  O
  O19      1.0000 0.81430  0.79120  0.86736  Biso   1.000  O
  O20      1.0000 0.56630  0.73510  0.79370  Biso   1.000  O
  O21      1.0000 0.83780  0.04550  0.14118  Biso   1.000  O
  O22      1.0000 0.60270  0.02680  0.19017  Biso   1.000  O
  O23      1.0000 0.87530  0.56840  0.74541  Biso   1.000  O
  O24      1.0000 0.07040  0.66010  0.84409  Biso   1.000  O
  O25      1.0000 0.63900  0.09200  0.71155  Biso   1.000  O
  O26      1.0000 0.77610  0.96300  0.76742  Biso   1.000  O
  O27      1.0000 0.35130  0.63290  0.64107  Biso   1.000  O
  O28      1.0000 0.18580  0.72930  0.70500  Biso   1.000  O
