data_image0
_cell_length_a       26.0349
_cell_length_b       26.0349
_cell_length_c       6.8508
_cell_angle_alpha    90
_cell_angle_beta     90
_cell_angle_gamma    120

_symmetry_space_group_name_H-M    "P 1"
_symmetry_int_tables_number       1

loop_
  _symmetry_equiv_pos_as_xyz
  'x, y, z'

loop_
  _atom_site_label
  _atom_site_occupancy
  _atom_site_fract_x
  _atom_site_fract_y
  _atom_site_fract_z
  _atom_site_thermal_displace_type
  _atom_site_B_iso_or_equiv
  _atom_site_type_symbol
  Fe1      1.0000 0.38439  0.35309  0.14000  Biso   1.000  Fe
  O1       1.0000 0.32563  0.29358  0.36230  Biso   1.000  O
  O2       1.0000 0.30203  0.22925  0.60310  Biso   1.000  O
  O3       1.0000 0.35372  0.27267  0.01170  Biso   1.000  O
  C1       1.0000 0.31741  0.24599  0.42000  Biso   1.000  C
  C2       1.0000 0.32779  0.20396  0.28930  Biso   1.000  C
  C3       1.0000 0.34479  0.22365  0.09160  Biso   1.000  C
  C4       1.0000 0.35013  0.18239  0.97610  Biso   1.000  C
  H1       1.0000 0.36090  0.19340  0.82740  Biso   1.000  H
  Fe2      1.0000 0.05106  0.68642  0.47333  Biso   1.000  Fe
  O4       1.0000 0.99230  0.62691  0.69563  Biso   1.000  O
  O5       1.0000 0.96870  0.56258  0.93643  Biso   1.000  O
  O6       1.0000 0.02039  0.60600  0.34503  Biso   1.000  O
  C5       1.0000 0.98408  0.57932  0.75333  Biso   1.000  C
  C6       1.0000 0.99446  0.53729  0.62263  Biso   1.000  C
  C7       1.0000 0.01146  0.55698  0.42493  Biso   1.000  C
  C8       1.0000 0.01680  0.51572  0.30943  Biso   1.000  C
  H2       1.0000 0.02757  0.52673  0.16073  Biso   1.000  H
  Fe3      1.0000 0.71772  0.01976  0.80667  Biso   1.000  Fe
  O7       1.0000 0.65896  0.96025  0.02897  Biso   1.000  O
  O8       1.0000 0.63536  0.89592  0.26977  Biso   1.000  O
  O9       1.0000 0.68705  0.93934  0.67837  Biso   1.000  O
  C9       1.0000 0.65074  0.91266  0.08667  Biso   1.000  C
  C10      1.0000 0.66112  0.87063  0.95597  Biso   1.000  C
  C11      1.0000 0.67812  0.89032  0.75827  Biso   1.000  C
  C12      1.0000 0.68346  0.84906  0.64277  Biso   1.000  C
  H3       1.0000 0.69423  0.86007  0.49407  Biso   1.000  H
  Fe4      1.0000 0.64691  0.03130  0.14000  Biso   1.000  Fe
  O10      1.0000 0.70642  0.03205  0.36230  Biso   1.000  O
  O11      1.0000 0.77075  0.07278  0.60310  Biso   1.000  O
  O12      1.0000 0.72733  0.08105  0.01170  Biso   1.000  O
  C13      1.0000 0.75401  0.07142  0.42000  Biso   1.000  C
  C14      1.0000 0.79604  0.12383  0.28930  Biso   1.000  C
  C15      1.0000 0.77635  0.12114  0.09160  Biso   1.000  C
  C16      1.0000 0.81761  0.16774  0.97610  Biso   1.000  C
  H4       1.0000 0.80660  0.16750  0.82740  Biso   1.000  H
  Fe5      1.0000 0.31358  0.36463  0.47333  Biso   1.000  Fe
  O13      1.0000 0.37309  0.36538  0.69563  Biso   1.000  O
  O14      1.0000 0.43742  0.40611  0.93643  Biso   1.000  O
  O15      1.0000 0.39400  0.41438  0.34503  Biso   1.000  O
  C17      1.0000 0.42068  0.40475  0.75333  Biso   1.000  C
  C18      1.0000 0.46271  0.45716  0.62263  Biso   1.000  C
  C19      1.0000 0.44302  0.45447  0.42493  Biso   1.000  C
  C20      1.0000 0.48428  0.50107  0.30943  Biso   1.000  C
  H5       1.0000 0.47327  0.50083  0.16073  Biso   1.000  H
  Fe6      1.0000 0.98024  0.69797  0.80667  Biso   1.000  Fe
  O16      1.0000 0.03975  0.69872  0.02897  Biso   1.000  O
  O17      1.0000 0.10408  0.73945  0.26977  Biso   1.000  O
  O18      1.0000 0.06066  0.74772  0.67837  Biso   1.000  O
  C21      1.0000 0.08734  0.73809  0.08667  Biso   1.000  C
  C22      1.0000 0.12937  0.79050  0.95597  Biso   1.000  C
  C23      1.0000 0.10968  0.78781  0.75827  Biso   1.000  C
  C24      1.0000 0.15094  0.83441  0.64277  Biso   1.000  C
  H6       1.0000 0.13993  0.83417  0.49407  Biso   1.000  H
  Fe7      1.0000 0.96870  0.61561  0.14000  Biso   1.000  Fe
  O19      1.0000 0.96795  0.67437  0.36230  Biso   1.000  O
  O20      1.0000 0.92722  0.69797  0.60310  Biso   1.000  O
  O21      1.0000 0.91895  0.64628  0.01170  Biso   1.000  O
  C25      1.0000 0.92858  0.68259  0.42000  Biso   1.000  C
  C26      1.0000 0.87617  0.67221  0.28930  Biso   1.000  C
  C27      1.0000 0.87886  0.65521  0.09160  Biso   1.000  C
  C28      1.0000 0.83226  0.64987  0.97610  Biso   1.000  C
  H7       1.0000 0.83250  0.63910  0.82740  Biso   1.000  H
  Fe8      1.0000 0.63537  0.94894  0.47333  Biso   1.000  Fe
  O22      1.0000 0.63462  0.00770  0.69563  Biso   1.000  O
  O23      1.0000 0.59389  0.03130  0.93643  Biso   1.000  O
  O24      1.0000 0.58562  0.97961  0.34503  Biso   1.000  O
  C29      1.0000 0.59525  0.01592  0.75333  Biso   1.000  C
  C30      1.0000 0.54284  0.00554  0.62263  Biso   1.000  C
  C31      1.0000 0.54553  0.98854  0.42493  Biso   1.000  C
  C32      1.0000 0.49893  0.98320  0.30943  Biso   1.000  C
  H8       1.0000 0.49917  0.97243  0.16073  Biso   1.000  H
  Fe9      1.0000 0.30203  0.28228  0.80667  Biso   1.000  Fe
  O25      1.0000 0.30128  0.34104  0.02897  Biso   1.000  O
  O26      1.0000 0.26055  0.36464  0.26977  Biso   1.000  O
  O27      1.0000 0.25228  0.31295  0.67837  Biso   1.000  O
  C33      1.0000 0.26191  0.34926  0.08667  Biso   1.000  C
  C34      1.0000 0.20950  0.33888  0.95597  Biso   1.000  C
  C35      1.0000 0.21219  0.32188  0.75827  Biso   1.000  C
  C36      1.0000 0.16559  0.31654  0.64277  Biso   1.000  C
  H9       1.0000 0.16583  0.30577  0.49407  Biso   1.000  H
  Fe10     1.0000 0.61561  0.64691  0.86000  Biso   1.000  Fe
  O28      1.0000 0.67437  0.70642  0.63770  Biso   1.000  O
  O29      1.0000 0.69797  0.77075  0.39690  Biso   1.000  O
  O30      1.0000 0.64628  0.72733  0.98830  Biso   1.000  O
  C37      1.0000 0.68259  0.75401  0.58000  Biso   1.000  C
  C38      1.0000 0.67221  0.79604  0.71070  Biso   1.000  C
  C39      1.0000 0.65521  0.77635  0.90840  Biso   1.000  C
  C40      1.0000 0.64987  0.81761  0.02390  Biso   1.000  C
  H10      1.0000 0.63910  0.80660  0.17260  Biso   1.000  H
  Fe11     1.0000 0.28228  0.98024  0.19333  Biso   1.000  Fe
  O31      1.0000 0.34104  0.03975  0.97103  Biso   1.000  O
  O32      1.0000 0.36464  0.10408  0.73023  Biso   1.000  O
  O33      1.0000 0.31295  0.06066  0.32163  Biso   1.000  O
  C41      1.0000 0.34926  0.08734  0.91333  Biso   1.000  C
  C42      1.0000 0.33888  0.12937  0.04403  Biso   1.000  C
  C43      1.0000 0.32188  0.10968  0.24173  Biso   1.000  C
  C44      1.0000 0.31654  0.15094  0.35723  Biso   1.000  C
  H11      1.0000 0.30577  0.13993  0.50593  Biso   1.000  H
  Fe12     1.0000 0.94894  0.31358  0.52667  Biso   1.000  Fe
  O34      1.0000 0.00770  0.37309  0.30437  Biso   1.000  O
  O35      1.0000 0.03130  0.43742  0.06357  Biso   1.000  O
  O36      1.0000 0.97961  0.39400  0.65497  Biso   1.000  O
  C45      1.0000 0.01592  0.42068  0.24667  Biso   1.000  C
  C46      1.0000 0.00554  0.46271  0.37737  Biso   1.000  C
  C47      1.0000 0.98854  0.44302  0.57507  Biso   1.000  C
  C48      1.0000 0.98320  0.48428  0.69057  Biso   1.000  C
  H12      1.0000 0.97243  0.47327  0.83927  Biso   1.000  H
  Fe13     1.0000 0.35309  0.96870  0.86000  Biso   1.000  Fe
  O37      1.0000 0.29358  0.96795  0.63770  Biso   1.000  O
  O38      1.0000 0.22925  0.92722  0.39690  Biso   1.000  O
  O39      1.0000 0.27267  0.91895  0.98830  Biso   1.000  O
  C49      1.0000 0.24599  0.92858  0.58000  Biso   1.000  C
  C50      1.0000 0.20396  0.87617  0.71070  Biso   1.000  C
  C51      1.0000 0.22365  0.87886  0.90840  Biso   1.000  C
  C52      1.0000 0.18239  0.83226  0.02390  Biso   1.000  C
  H13      1.0000 0.19340  0.83250  0.17260  Biso   1.000  H
  Fe14     1.0000 0.01976  0.30203  0.19333  Biso   1.000  Fe
  O40      1.0000 0.96025  0.30128  0.97103  Biso   1.000  O
  O41      1.0000 0.89592  0.26055  0.73023  Biso   1.000  O
  O42      1.0000 0.93934  0.25228  0.32163  Biso   1.000  O
  C53      1.0000 0.91266  0.26191  0.91333  Biso   1.000  C
  C54      1.0000 0.87063  0.20950  0.04403  Biso   1.000  C
  C55      1.0000 0.89032  0.21219  0.24173  Biso   1.000  C
  C56      1.0000 0.84906  0.16559  0.35723  Biso   1.000  C
  H14      1.0000 0.86007  0.16583  0.50593  Biso   1.000  H
  Fe15     1.0000 0.68642  0.63537  0.52667  Biso   1.000  Fe
  O43      1.0000 0.62691  0.63462  0.30437  Biso   1.000  O
  O44      1.0000 0.56258  0.59389  0.06357  Biso   1.000  O
  O45      1.0000 0.60600  0.58562  0.65497  Biso   1.000  O
  C57      1.0000 0.57932  0.59525  0.24667  Biso   1.000  C
  C58      1.0000 0.53729  0.54284  0.37737  Biso   1.000  C
  C59      1.0000 0.55698  0.54553  0.57507  Biso   1.000  C
  C60      1.0000 0.51572  0.49893  0.69057  Biso   1.000  C
  H15      1.0000 0.52673  0.49917  0.83927  Biso   1.000  H
  Fe16     1.0000 0.03130  0.38439  0.86000  Biso   1.000  Fe
  O46      1.0000 0.03205  0.32563  0.63770  Biso   1.000  O
  O47      1.0000 0.07278  0.30203  0.39690  Biso   1.000  O
  O48      1.0000 0.08105  0.35372  0.98830  Biso   1.000  O
  C61      1.0000 0.07142  0.31741  0.58000  Biso   1.000  C
  C62      1.0000 0.12383  0.32779  0.71070  Biso   1.000  C
  C63      1.0000 0.12114  0.34479  0.90840  Biso   1.000  C
  C64      1.0000 0.16774  0.35013  0.02390  Biso   1.000  C
  H16      1.0000 0.16750  0.36090  0.17260  Biso   1.000  H
  Fe17     1.0000 0.69797  0.71772  0.19333  Biso   1.000  Fe
  O49      1.0000 0.69872  0.65896  0.97103  Biso   1.000  O
  O50      1.0000 0.73945  0.63536  0.73023  Biso   1.000  O
  O51      1.0000 0.74772  0.68705  0.32163  Biso   1.000  O
  C65      1.0000 0.73809  0.65074  0.91333  Biso   1.000  C
  C66      1.0000 0.79050  0.66112  0.04403  Biso   1.000  C
  C67      1.0000 0.78781  0.67812  0.24173  Biso   1.000  C
  C68      1.0000 0.83441  0.68346  0.35723  Biso   1.000  C
  H17      1.0000 0.83417  0.69423  0.50593  Biso   1.000  H
  Fe18     1.0000 0.36463  0.05106  0.52667  Biso   1.000  Fe
  O52      1.0000 0.36538  0.99230  0.30437  Biso   1.000  O
  O53      1.0000 0.40611  0.96870  0.06357  Biso   1.000  O
  O54      1.0000 0.41438  0.02039  0.65497  Biso   1.000  O
  C69      1.0000 0.40475  0.98408  0.24667  Biso   1.000  C
  C70      1.0000 0.45716  0.99446  0.37737  Biso   1.000  C
  C71      1.0000 0.45447  0.01146  0.57507  Biso   1.000  C
  C72      1.0000 0.50107  0.01680  0.69057  Biso   1.000  C
  H18      1.0000 0.50083  0.02757  0.83927  Biso   1.000  H
