data_image0
_cell_length_a       25.8977
_cell_length_b       25.8977
_cell_length_c       6.846
_cell_angle_alpha    90
_cell_angle_beta     90
_cell_angle_gamma    120

_symmetry_space_group_name_H-M    "P 1"
_symmetry_int_tables_number       1

loop_
  _symmetry_equiv_pos_as_xyz
  'x, y, z'

loop_
  _atom_site_label
  _atom_site_occupancy
  _atom_site_fract_x
  _atom_site_fract_y
  _atom_site_fract_z
  _atom_site_thermal_displace_type
  _atom_site_B_iso_or_equiv
  _atom_site_type_symbol
  Co1      1.0000 0.38160  0.34880  0.13300  Biso   1.000  Co
  O1       1.0000 0.32600  0.29730  0.37200  Biso   1.000  O
  O2       1.0000 0.30220  0.22750  0.60110  Biso   1.000  O
  O3       1.0000 0.35620  0.27400  0.00470  Biso   1.000  O
  C1       1.0000 0.31650  0.24700  0.42750  Biso   1.000  C
  C2       1.0000 0.33020  0.20820  0.28790  Biso   1.000  C
  C3       1.0000 0.34730  0.22550  0.08910  Biso   1.000  C
  C4       1.0000 0.35170  0.18090  0.97210  Biso   1.000  C
  H1       1.0000 0.36160  0.19280  0.82600  Biso   1.000  H
  Co2      1.0000 0.04827  0.68213  0.46633  Biso   1.000  Co
  O4       1.0000 0.99267  0.63063  0.70533  Biso   1.000  O
  O5       1.0000 0.96887  0.56083  0.93443  Biso   1.000  O
  O6       1.0000 0.02287  0.60733  0.33803  Biso   1.000  O
  C5       1.0000 0.98317  0.58033  0.76083  Biso   1.000  C
  C6       1.0000 0.99687  0.54153  0.62123  Biso   1.000  C
  C7       1.0000 0.01397  0.55883  0.42243  Biso   1.000  C
  C8       1.0000 0.01837  0.51423  0.30543  Biso   1.000  C
  H2       1.0000 0.02827  0.52613  0.15933  Biso   1.000  H
  Co3      1.0000 0.71493  0.01547  0.79967  Biso   1.000  Co
  O7       1.0000 0.65933  0.96397  0.03867  Biso   1.000  O
  O8       1.0000 0.63553  0.89417  0.26777  Biso   1.000  O
  O9       1.0000 0.68953  0.94067  0.67137  Biso   1.000  O
  C9       1.0000 0.64983  0.91367  0.09417  Biso   1.000  C
  C10      1.0000 0.66353  0.87487  0.95457  Biso   1.000  C
  C11      1.0000 0.68063  0.89217  0.75577  Biso   1.000  C
  C12      1.0000 0.68503  0.84757  0.63877  Biso   1.000  C
  H3       1.0000 0.69493  0.85947  0.49267  Biso   1.000  H
  Co4      1.0000 0.65120  0.03280  0.13300  Biso   1.000  Co
  O10      1.0000 0.70270  0.02870  0.37200  Biso   1.000  O
  O11      1.0000 0.77250  0.07470  0.60110  Biso   1.000  O
  O12      1.0000 0.72600  0.08220  0.00470  Biso   1.000  O
  C13      1.0000 0.75300  0.06950  0.42750  Biso   1.000  C
  C14      1.0000 0.79180  0.12200  0.28790  Biso   1.000  C
  C15      1.0000 0.77450  0.12180  0.08910  Biso   1.000  C
  C16      1.0000 0.81910  0.17080  0.97210  Biso   1.000  C
  H4       1.0000 0.80720  0.16880  0.82600  Biso   1.000  H
  Co5      1.0000 0.31787  0.36613  0.46633  Biso   1.000  Co
  O13      1.0000 0.36937  0.36203  0.70533  Biso   1.000  O
  O14      1.0000 0.43917  0.40803  0.93443  Biso   1.000  O
  O15      1.0000 0.39267  0.41553  0.33803  Biso   1.000  O
  C17      1.0000 0.41967  0.40283  0.76083  Biso   1.000  C
  C18      1.0000 0.45847  0.45533  0.62123  Biso   1.000  C
  C19      1.0000 0.44117  0.45513  0.42243  Biso   1.000  C
  C20      1.0000 0.48577  0.50413  0.30543  Biso   1.000  C
  H5       1.0000 0.47387  0.50213  0.15933  Biso   1.000  H
  Co6      1.0000 0.98453  0.69947  0.79967  Biso   1.000  Co
  O16      1.0000 0.03603  0.69537  0.03867  Biso   1.000  O
  O17      1.0000 0.10583  0.74137  0.26777  Biso   1.000  O
  O18      1.0000 0.05933  0.74887  0.67137  Biso   1.000  O
  C21      1.0000 0.08633  0.73617  0.09417  Biso   1.000  C
  C22      1.0000 0.12513  0.78867  0.95457  Biso   1.000  C
  C23      1.0000 0.10783  0.78847  0.75577  Biso   1.000  C
  C24      1.0000 0.15243  0.83747  0.63877  Biso   1.000  C
  H6       1.0000 0.14053  0.83547  0.49267  Biso   1.000  H
  Co7      1.0000 0.96720  0.61840  0.13300  Biso   1.000  Co
  O19      1.0000 0.97130  0.67400  0.37200  Biso   1.000  O
  O20      1.0000 0.92530  0.69780  0.60110  Biso   1.000  O
  O21      1.0000 0.91780  0.64380  0.00470  Biso   1.000  O
  C25      1.0000 0.93050  0.68350  0.42750  Biso   1.000  C
  C26      1.0000 0.87800  0.66980  0.28790  Biso   1.000  C
  C27      1.0000 0.87820  0.65270  0.08910  Biso   1.000  C
  C28      1.0000 0.82920  0.64830  0.97210  Biso   1.000  C
  H7       1.0000 0.83120  0.63840  0.82600  Biso   1.000  H
  Co8      1.0000 0.63387  0.95173  0.46633  Biso   1.000  Co
  O22      1.0000 0.63797  0.00733  0.70533  Biso   1.000  O
  O23      1.0000 0.59197  0.03113  0.93443  Biso   1.000  O
  O24      1.0000 0.58447  0.97713  0.33803  Biso   1.000  O
  C29      1.0000 0.59717  0.01683  0.76083  Biso   1.000  C
  C30      1.0000 0.54467  0.00313  0.62123  Biso   1.000  C
  C31      1.0000 0.54487  0.98603  0.42243  Biso   1.000  C
  C32      1.0000 0.49587  0.98163  0.30543  Biso   1.000  C
  H8       1.0000 0.49787  0.97173  0.15933  Biso   1.000  H
  Co9      1.0000 0.30053  0.28507  0.79967  Biso   1.000  Co
  O25      1.0000 0.30463  0.34067  0.03867  Biso   1.000  O
  O26      1.0000 0.25863  0.36447  0.26777  Biso   1.000  O
  O27      1.0000 0.25113  0.31047  0.67137  Biso   1.000  O
  C33      1.0000 0.26383  0.35017  0.09417  Biso   1.000  C
  C34      1.0000 0.21133  0.33647  0.95457  Biso   1.000  C
  C35      1.0000 0.21153  0.31937  0.75577  Biso   1.000  C
  C36      1.0000 0.16253  0.31497  0.63877  Biso   1.000  C
  H9       1.0000 0.16453  0.30507  0.49267  Biso   1.000  H
  Co10     1.0000 0.61840  0.65120  0.86700  Biso   1.000  Co
  O28      1.0000 0.67400  0.70270  0.62800  Biso   1.000  O
  O29      1.0000 0.69780  0.77250  0.39890  Biso   1.000  O
  O30      1.0000 0.64380  0.72600  0.99530  Biso   1.000  O
  C37      1.0000 0.68350  0.75300  0.57250  Biso   1.000  C
  C38      1.0000 0.66980  0.79180  0.71210  Biso   1.000  C
  C39      1.0000 0.65270  0.77450  0.91090  Biso   1.000  C
  C40      1.0000 0.64830  0.81910  0.02790  Biso   1.000  C
  H10      1.0000 0.63840  0.80720  0.17400  Biso   1.000  H
  Co11     1.0000 0.28507  0.98453  0.20033  Biso   1.000  Co
  O31      1.0000 0.34067  0.03603  0.96133  Biso   1.000  O
  O32      1.0000 0.36447  0.10583  0.73223  Biso   1.000  O
  O33      1.0000 0.31047  0.05933  0.32863  Biso   1.000  O
  C41      1.0000 0.35017  0.08633  0.90583  Biso   1.000  C
  C42      1.0000 0.33647  0.12513  0.04543  Biso   1.000  C
  C43      1.0000 0.31937  0.10783  0.24423  Biso   1.000  C
  C44      1.0000 0.31497  0.15243  0.36123  Biso   1.000  C
  H11      1.0000 0.30507  0.14053  0.50733  Biso   1.000  H
  Co12     1.0000 0.95173  0.31787  0.53367  Biso   1.000  Co
  O34      1.0000 0.00733  0.36937  0.29467  Biso   1.000  O
  O35      1.0000 0.03113  0.43917  0.06557  Biso   1.000  O
  O36      1.0000 0.97713  0.39267  0.66197  Biso   1.000  O
  C45      1.0000 0.01683  0.41967  0.23917  Biso   1.000  C
  C46      1.0000 0.00313  0.45847  0.37877  Biso   1.000  C
  C47      1.0000 0.98603  0.44117  0.57757  Biso   1.000  C
  C48      1.0000 0.98163  0.48577  0.69457  Biso   1.000  C
  H12      1.0000 0.97173  0.47387  0.84067  Biso   1.000  H
  Co13     1.0000 0.34880  0.96720  0.86700  Biso   1.000  Co
  O37      1.0000 0.29730  0.97130  0.62800  Biso   1.000  O
  O38      1.0000 0.22750  0.92530  0.39890  Biso   1.000  O
  O39      1.0000 0.27400  0.91780  0.99530  Biso   1.000  O
  C49      1.0000 0.24700  0.93050  0.57250  Biso   1.000  C
  C50      1.0000 0.20820  0.87800  0.71210  Biso   1.000  C
  C51      1.0000 0.22550  0.87820  0.91090  Biso   1.000  C
  C52      1.0000 0.18090  0.82920  0.02790  Biso   1.000  C
  H13      1.0000 0.19280  0.83120  0.17400  Biso   1.000  H
  Co14     1.0000 0.01547  0.30053  0.20033  Biso   1.000  Co
  O40      1.0000 0.96397  0.30463  0.96133  Biso   1.000  O
  O41      1.0000 0.89417  0.25863  0.73223  Biso   1.000  O
  O42      1.0000 0.94067  0.25113  0.32863  Biso   1.000  O
  C53      1.0000 0.91367  0.26383  0.90583  Biso   1.000  C
  C54      1.0000 0.87487  0.21133  0.04543  Biso   1.000  C
  C55      1.0000 0.89217  0.21153  0.24423  Biso   1.000  C
  C56      1.0000 0.84757  0.16253  0.36123  Biso   1.000  C
  H14      1.0000 0.85947  0.16453  0.50733  Biso   1.000  H
  Co15     1.0000 0.68213  0.63387  0.53367  Biso   1.000  Co
  O43      1.0000 0.63063  0.63797  0.29467  Biso   1.000  O
  O44      1.0000 0.56083  0.59197  0.06557  Biso   1.000  O
  O45      1.0000 0.60733  0.58447  0.66197  Biso   1.000  O
  C57      1.0000 0.58033  0.59717  0.23917  Biso   1.000  C
  C58      1.0000 0.54153  0.54467  0.37877  Biso   1.000  C
  C59      1.0000 0.55883  0.54487  0.57757  Biso   1.000  C
  C60      1.0000 0.51423  0.49587  0.69457  Biso   1.000  C
  H15      1.0000 0.52613  0.49787  0.84067  Biso   1.000  H
  Co16     1.0000 0.03280  0.38160  0.86700  Biso   1.000  Co
  O46      1.0000 0.02870  0.32600  0.62800  Biso   1.000  O
  O47      1.0000 0.07470  0.30220  0.39890  Biso   1.000  O
  O48      1.0000 0.08220  0.35620  0.99530  Biso   1.000  O
  C61      1.0000 0.06950  0.31650  0.57250  Biso   1.000  C
  C62      1.0000 0.12200  0.33020  0.71210  Biso   1.000  C
  C63      1.0000 0.12180  0.34730  0.91090  Biso   1.000  C
  C64      1.0000 0.17080  0.35170  0.02790  Biso   1.000  C
  H16      1.0000 0.16880  0.36160  0.17400  Biso   1.000  H
  Co17     1.0000 0.69947  0.71493  0.20033  Biso   1.000  Co
  O49      1.0000 0.69537  0.65933  0.96133  Biso   1.000  O
  O50      1.0000 0.74137  0.63553  0.73223  Biso   1.000  O
  O51      1.0000 0.74887  0.68953  0.32863  Biso   1.000  O
  C65      1.0000 0.73617  0.64983  0.90583  Biso   1.000  C
  C66      1.0000 0.78867  0.66353  0.04543  Biso   1.000  C
  C67      1.0000 0.78847  0.68063  0.24423  Biso   1.000  C
  C68      1.0000 0.83747  0.68503  0.36123  Biso   1.000  C
  H17      1.0000 0.83547  0.69493  0.50733  Biso   1.000  H
  Co18     1.0000 0.36613  0.04827  0.53367  Biso   1.000  Co
  O52      1.0000 0.36203  0.99267  0.29467  Biso   1.000  O
  O53      1.0000 0.40803  0.96887  0.06557  Biso   1.000  O
  O54      1.0000 0.41553  0.02287  0.66197  Biso   1.000  O
  C69      1.0000 0.40283  0.98317  0.23917  Biso   1.000  C
  C70      1.0000 0.45533  0.99687  0.37877  Biso   1.000  C
  C71      1.0000 0.45513  0.01397  0.57757  Biso   1.000  C
  C72      1.0000 0.50413  0.01837  0.69457  Biso   1.000  C
  H18      1.0000 0.50213  0.02827  0.84067  Biso   1.000  H
