data_image0
_cell_length_a       25.914
_cell_length_b       25.914
_cell_length_c       6.7986
_cell_angle_alpha    90
_cell_angle_beta     90
_cell_angle_gamma    120

_symmetry_space_group_name_H-M    "P 1"
_symmetry_int_tables_number       1

loop_
  _symmetry_equiv_pos_as_xyz
  'x, y, z'

loop_
  _atom_site_label
  _atom_site_occupancy
  _atom_site_fract_x
  _atom_site_fract_y
  _atom_site_fract_z
  _atom_site_thermal_displace_type
  _atom_site_B_iso_or_equiv
  _atom_site_type_symbol
  Zn1      1.0000 0.38360  0.35460  0.14360  Biso   1.000  Zn
  O1       1.0000 0.32810  0.29660  0.37510  Biso   1.000  O
  O2       1.0000 0.30010  0.22670  0.61120  Biso   1.000  O
  O3       1.0000 0.35370  0.27430  0.01660  Biso   1.000  O
  C1       1.0000 0.31570  0.24480  0.43390  Biso   1.000  C
  C2       1.0000 0.32700  0.20640  0.28370  Biso   1.000  C
  C3       1.0000 0.34310  0.22120  0.09190  Biso   1.000  C
  C4       1.0000 0.35250  0.18410  0.96440  Biso   1.000  C
  H1       1.0000 0.36090  0.19100  0.83500  Biso   1.000  H
  Zn2      1.0000 0.05027  0.68793  0.47693  Biso   1.000  Zn
  O4       1.0000 0.99477  0.62993  0.70843  Biso   1.000  O
  O5       1.0000 0.96677  0.56003  0.94453  Biso   1.000  O
  O6       1.0000 0.02037  0.60763  0.34993  Biso   1.000  O
  C5       1.0000 0.98237  0.57813  0.76723  Biso   1.000  C
  C6       1.0000 0.99367  0.53973  0.61703  Biso   1.000  C
  C7       1.0000 0.00977  0.55453  0.42523  Biso   1.000  C
  C8       1.0000 0.01917  0.51743  0.29773  Biso   1.000  C
  H2       1.0000 0.02757  0.52433  0.16833  Biso   1.000  H
  Zn3      1.0000 0.71693  0.02127  0.81027  Biso   1.000  Zn
  O7       1.0000 0.66143  0.96327  0.04177  Biso   1.000  O
  O8       1.0000 0.63343  0.89337  0.27787  Biso   1.000  O
  O9       1.0000 0.68703  0.94097  0.68327  Biso   1.000  O
  C9       1.0000 0.64903  0.91147  0.10057  Biso   1.000  C
  C10      1.0000 0.66033  0.87307  0.95037  Biso   1.000  C
  C11      1.0000 0.67643  0.88787  0.75857  Biso   1.000  C
  C12      1.0000 0.68583  0.85077  0.63107  Biso   1.000  C
  H3       1.0000 0.69423  0.85767  0.50167  Biso   1.000  H
  Zn4      1.0000 0.64540  0.02900  0.14360  Biso   1.000  Zn
  O10      1.0000 0.70340  0.03150  0.37510  Biso   1.000  O
  O11      1.0000 0.77330  0.07340  0.61120  Biso   1.000  O
  O12      1.0000 0.72570  0.07940  0.01660  Biso   1.000  O
  C13      1.0000 0.75520  0.07090  0.43390  Biso   1.000  C
  C14      1.0000 0.79360  0.12060  0.28370  Biso   1.000  C
  C15      1.0000 0.77880  0.12190  0.09190  Biso   1.000  C
  C16      1.0000 0.81590  0.16840  0.96440  Biso   1.000  C
  H4       1.0000 0.80900  0.16990  0.83500  Biso   1.000  H
  Zn5      1.0000 0.31207  0.36233  0.47693  Biso   1.000  Zn
  O13      1.0000 0.37007  0.36483  0.70843  Biso   1.000  O
  O14      1.0000 0.43997  0.40673  0.94453  Biso   1.000  O
  O15      1.0000 0.39237  0.41273  0.34993  Biso   1.000  O
  C17      1.0000 0.42187  0.40423  0.76723  Biso   1.000  C
  C18      1.0000 0.46027  0.45393  0.61703  Biso   1.000  C
  C19      1.0000 0.44547  0.45523  0.42523  Biso   1.000  C
  C20      1.0000 0.48257  0.50173  0.29773  Biso   1.000  C
  H5       1.0000 0.47567  0.50323  0.16833  Biso   1.000  H
  Zn6      1.0000 0.97873  0.69567  0.81027  Biso   1.000  Zn
  O16      1.0000 0.03673  0.69817  0.04177  Biso   1.000  O
  O17      1.0000 0.10663  0.74007  0.27787  Biso   1.000  O
  O18      1.0000 0.05903  0.74607  0.68327  Biso   1.000  O
  C21      1.0000 0.08853  0.73757  0.10057  Biso   1.000  C
  C22      1.0000 0.12693  0.78727  0.95037  Biso   1.000  C
  C23      1.0000 0.11213  0.78857  0.75857  Biso   1.000  C
  C24      1.0000 0.14923  0.83507  0.63107  Biso   1.000  C
  H6       1.0000 0.14233  0.83657  0.50167  Biso   1.000  H
  Zn7      1.0000 0.97100  0.61640  0.14360  Biso   1.000  Zn
  O19      1.0000 0.96850  0.67190  0.37510  Biso   1.000  O
  O20      1.0000 0.92660  0.69990  0.61120  Biso   1.000  O
  O21      1.0000 0.92060  0.64630  0.01660  Biso   1.000  O
  C25      1.0000 0.92910  0.68430  0.43390  Biso   1.000  C
  C26      1.0000 0.87940  0.67300  0.28370  Biso   1.000  C
  C27      1.0000 0.87810  0.65690  0.09190  Biso   1.000  C
  C28      1.0000 0.83160  0.64750  0.96440  Biso   1.000  C
  H7       1.0000 0.83010  0.63910  0.83500  Biso   1.000  H
  Zn8      1.0000 0.63767  0.94973  0.47693  Biso   1.000  Zn
  O22      1.0000 0.63517  0.00523  0.70843  Biso   1.000  O
  O23      1.0000 0.59327  0.03323  0.94453  Biso   1.000  O
  O24      1.0000 0.58727  0.97963  0.34993  Biso   1.000  O
  C29      1.0000 0.59577  0.01763  0.76723  Biso   1.000  C
  C30      1.0000 0.54607  0.00633  0.61703  Biso   1.000  C
  C31      1.0000 0.54477  0.99023  0.42523  Biso   1.000  C
  C32      1.0000 0.49827  0.98083  0.29773  Biso   1.000  C
  H8       1.0000 0.49677  0.97243  0.16833  Biso   1.000  H
  Zn9      1.0000 0.30433  0.28307  0.81027  Biso   1.000  Zn
  O25      1.0000 0.30183  0.33857  0.04177  Biso   1.000  O
  O26      1.0000 0.25993  0.36657  0.27787  Biso   1.000  O
  O27      1.0000 0.25393  0.31297  0.68327  Biso   1.000  O
  C33      1.0000 0.26243  0.35097  0.10057  Biso   1.000  C
  C34      1.0000 0.21273  0.33967  0.95037  Biso   1.000  C
  C35      1.0000 0.21143  0.32357  0.75857  Biso   1.000  C
  C36      1.0000 0.16493  0.31417  0.63107  Biso   1.000  C
  H9       1.0000 0.16343  0.30577  0.50167  Biso   1.000  H
  Zn10     1.0000 0.61640  0.64540  0.85640  Biso   1.000  Zn
  O28      1.0000 0.67190  0.70340  0.62490  Biso   1.000  O
  O29      1.0000 0.69990  0.77330  0.38880  Biso   1.000  O
  O30      1.0000 0.64630  0.72570  0.98340  Biso   1.000  O
  C37      1.0000 0.68430  0.75520  0.56610  Biso   1.000  C
  C38      1.0000 0.67300  0.79360  0.71630  Biso   1.000  C
  C39      1.0000 0.65690  0.77880  0.90810  Biso   1.000  C
  C40      1.0000 0.64750  0.81590  0.03560  Biso   1.000  C
  H10      1.0000 0.63910  0.80900  0.16500  Biso   1.000  H
  Zn11     1.0000 0.28307  0.97873  0.18973  Biso   1.000  Zn
  O31      1.0000 0.33857  0.03673  0.95823  Biso   1.000  O
  O32      1.0000 0.36657  0.10663  0.72213  Biso   1.000  O
  O33      1.0000 0.31297  0.05903  0.31673  Biso   1.000  O
  C41      1.0000 0.35097  0.08853  0.89943  Biso   1.000  C
  C42      1.0000 0.33967  0.12693  0.04963  Biso   1.000  C
  C43      1.0000 0.32357  0.11213  0.24143  Biso   1.000  C
  C44      1.0000 0.31417  0.14923  0.36893  Biso   1.000  C
  H11      1.0000 0.30577  0.14233  0.49833  Biso   1.000  H
  Zn12     1.0000 0.94973  0.31207  0.52307  Biso   1.000  Zn
  O34      1.0000 0.00523  0.37007  0.29157  Biso   1.000  O
  O35      1.0000 0.03323  0.43997  0.05547  Biso   1.000  O
  O36      1.0000 0.97963  0.39237  0.65007  Biso   1.000  O
  C45      1.0000 0.01763  0.42187  0.23277  Biso   1.000  C
  C46      1.0000 0.00633  0.46027  0.38297  Biso   1.000  C
  C47      1.0000 0.99023  0.44547  0.57477  Biso   1.000  C
  C48      1.0000 0.98083  0.48257  0.70227  Biso   1.000  C
  H12      1.0000 0.97243  0.47567  0.83167  Biso   1.000  H
  Zn13     1.0000 0.35460  0.97100  0.85640  Biso   1.000  Zn
  O37      1.0000 0.29660  0.96850  0.62490  Biso   1.000  O
  O38      1.0000 0.22670  0.92660  0.38880  Biso   1.000  O
  O39      1.0000 0.27430  0.92060  0.98340  Biso   1.000  O
  C49      1.0000 0.24480  0.92910  0.56610  Biso   1.000  C
  C50      1.0000 0.20640  0.87940  0.71630  Biso   1.000  C
  C51      1.0000 0.22120  0.87810  0.90810  Biso   1.000  C
  C52      1.0000 0.18410  0.83160  0.03560  Biso   1.000  C
  H13      1.0000 0.19100  0.83010  0.16500  Biso   1.000  H
  Zn14     1.0000 0.02127  0.30433  0.18973  Biso   1.000  Zn
  O40      1.0000 0.96327  0.30183  0.95823  Biso   1.000  O
  O41      1.0000 0.89337  0.25993  0.72213  Biso   1.000  O
  O42      1.0000 0.94097  0.25393  0.31673  Biso   1.000  O
  C53      1.0000 0.91147  0.26243  0.89943  Biso   1.000  C
  C54      1.0000 0.87307  0.21273  0.04963  Biso   1.000  C
  C55      1.0000 0.88787  0.21143  0.24143  Biso   1.000  C
  C56      1.0000 0.85077  0.16493  0.36893  Biso   1.000  C
  H14      1.0000 0.85767  0.16343  0.49833  Biso   1.000  H
  Zn15     1.0000 0.68793  0.63767  0.52307  Biso   1.000  Zn
  O43      1.0000 0.62993  0.63517  0.29157  Biso   1.000  O
  O44      1.0000 0.56003  0.59327  0.05547  Biso   1.000  O
  O45      1.0000 0.60763  0.58727  0.65007  Biso   1.000  O
  C57      1.0000 0.57813  0.59577  0.23277  Biso   1.000  C
  C58      1.0000 0.53973  0.54607  0.38297  Biso   1.000  C
  C59      1.0000 0.55453  0.54477  0.57477  Biso   1.000  C
  C60      1.0000 0.51743  0.49827  0.70227  Biso   1.000  C
  H15      1.0000 0.52433  0.49677  0.83167  Biso   1.000  H
  Zn16     1.0000 0.02900  0.38360  0.85640  Biso   1.000  Zn
  O46      1.0000 0.03150  0.32810  0.62490  Biso   1.000  O
  O47      1.0000 0.07340  0.30010  0.38880  Biso   1.000  O
  O48      1.0000 0.07940  0.35370  0.98340  Biso   1.000  O
  C61      1.0000 0.07090  0.31570  0.56610  Biso   1.000  C
  C62      1.0000 0.12060  0.32700  0.71630  Biso   1.000  C
  C63      1.0000 0.12190  0.34310  0.90810  Biso   1.000  C
  C64      1.0000 0.16840  0.35250  0.03560  Biso   1.000  C
  H16      1.0000 0.16990  0.36090  0.16500  Biso   1.000  H
  Zn17     1.0000 0.69567  0.71693  0.18973  Biso   1.000  Zn
  O49      1.0000 0.69817  0.66143  0.95823  Biso   1.000  O
  O50      1.0000 0.74007  0.63343  0.72213  Biso   1.000  O
  O51      1.0000 0.74607  0.68703  0.31673  Biso   1.000  O
  C65      1.0000 0.73757  0.64903  0.89943  Biso   1.000  C
  C66      1.0000 0.78727  0.66033  0.04963  Biso   1.000  C
  C67      1.0000 0.78857  0.67643  0.24143  Biso   1.000  C
  C68      1.0000 0.83507  0.68583  0.36893  Biso   1.000  C
  H17      1.0000 0.83657  0.69423  0.49833  Biso   1.000  H
  Zn18     1.0000 0.36233  0.05027  0.52307  Biso   1.000  Zn
  O52      1.0000 0.36483  0.99477  0.29157  Biso   1.000  O
  O53      1.0000 0.40673  0.96677  0.05547  Biso   1.000  O
  O54      1.0000 0.41273  0.02037  0.65007  Biso   1.000  O
  C69      1.0000 0.40423  0.98237  0.23277  Biso   1.000  C
  C70      1.0000 0.45393  0.99367  0.38297  Biso   1.000  C
  C71      1.0000 0.45523  0.00977  0.57477  Biso   1.000  C
  C72      1.0000 0.50173  0.01917  0.70227  Biso   1.000  C
  H18      1.0000 0.50323  0.02757  0.83167  Biso   1.000  H
