data_image0
_cell_length_a       25.8735
_cell_length_b       25.8735
_cell_length_c       6.8486
_cell_angle_alpha    90
_cell_angle_beta     90
_cell_angle_gamma    120

_symmetry_space_group_name_H-M    "P 1"
_symmetry_int_tables_number       1

loop_
  _symmetry_equiv_pos_as_xyz
  'x, y, z'

loop_
  _atom_site_label
  _atom_site_occupancy
  _atom_site_fract_x
  _atom_site_fract_y
  _atom_site_fract_z
  _atom_site_thermal_displace_type
  _atom_site_B_iso_or_equiv
  _atom_site_type_symbol
  Co1      1.0000 0.37860  0.34900  0.15100  Biso   1.000  Co
  O1       1.0000 0.32870  0.29590  0.36370  Biso   1.000  O
  O2       1.0000 0.30260  0.22910  0.59870  Biso   1.000  O
  O3       1.0000 0.35770  0.27580  0.00220  Biso   1.000  O
  C1       1.0000 0.31910  0.24760  0.42860  Biso   1.000  C
  C2       1.0000 0.32820  0.20690  0.28980  Biso   1.000  C
  C3       1.0000 0.34650  0.22390  0.09080  Biso   1.000  C
  C4       1.0000 0.35060  0.18160  0.97560  Biso   1.000  C
  H1       1.0000 0.35770  0.19130  0.83200  Biso   1.000  H
  Co2      1.0000 0.04527  0.68233  0.48433  Biso   1.000  Co
  O4       1.0000 0.99537  0.62923  0.69703  Biso   1.000  O
  O5       1.0000 0.96927  0.56243  0.93203  Biso   1.000  O
  O6       1.0000 0.02437  0.60913  0.33553  Biso   1.000  O
  C5       1.0000 0.98577  0.58093  0.76193  Biso   1.000  C
  C6       1.0000 0.99487  0.54023  0.62313  Biso   1.000  C
  C7       1.0000 0.01317  0.55723  0.42413  Biso   1.000  C
  C8       1.0000 0.01727  0.51493  0.30893  Biso   1.000  C
  H2       1.0000 0.02437  0.52463  0.16533  Biso   1.000  H
  Co3      1.0000 0.71193  0.01567  0.81767  Biso   1.000  Co
  O7       1.0000 0.66203  0.96257  0.03037  Biso   1.000  O
  O8       1.0000 0.63593  0.89577  0.26537  Biso   1.000  O
  O9       1.0000 0.69103  0.94247  0.66887  Biso   1.000  O
  C9       1.0000 0.65243  0.91427  0.09527  Biso   1.000  C
  C10      1.0000 0.66153  0.87357  0.95647  Biso   1.000  C
  C11      1.0000 0.67983  0.89057  0.75747  Biso   1.000  C
  C12      1.0000 0.68393  0.84827  0.64227  Biso   1.000  C
  H3       1.0000 0.69103  0.85797  0.49867  Biso   1.000  H
  Co4      1.0000 0.65100  0.02960  0.15100  Biso   1.000  Co
  O10      1.0000 0.70410  0.03280  0.36370  Biso   1.000  O
  O11      1.0000 0.77090  0.07350  0.59870  Biso   1.000  O
  O12      1.0000 0.72420  0.08190  0.00220  Biso   1.000  O
  C13      1.0000 0.75240  0.07150  0.42860  Biso   1.000  C
  C14      1.0000 0.79310  0.12130  0.28980  Biso   1.000  C
  C15      1.0000 0.77610  0.12260  0.09080  Biso   1.000  C
  C16      1.0000 0.81840  0.16900  0.97560  Biso   1.000  C
  H4       1.0000 0.80870  0.16640  0.83200  Biso   1.000  H
  Co5      1.0000 0.31767  0.36293  0.48433  Biso   1.000  Co
  O13      1.0000 0.37077  0.36613  0.69703  Biso   1.000  O
  O14      1.0000 0.43757  0.40683  0.93203  Biso   1.000  O
  O15      1.0000 0.39087  0.41523  0.33553  Biso   1.000  O
  C17      1.0000 0.41907  0.40483  0.76193  Biso   1.000  C
  C18      1.0000 0.45977  0.45463  0.62313  Biso   1.000  C
  C19      1.0000 0.44277  0.45593  0.42413  Biso   1.000  C
  C20      1.0000 0.48507  0.50233  0.30893  Biso   1.000  C
  H5       1.0000 0.47537  0.49973  0.16533  Biso   1.000  H
  Co6      1.0000 0.98433  0.69627  0.81767  Biso   1.000  Co
  O16      1.0000 0.03743  0.69947  0.03037  Biso   1.000  O
  O17      1.0000 0.10423  0.74017  0.26537  Biso   1.000  O
  O18      1.0000 0.05753  0.74857  0.66887  Biso   1.000  O
  C21      1.0000 0.08573  0.73817  0.09527  Biso   1.000  C
  C22      1.0000 0.12643  0.78797  0.95647  Biso   1.000  C
  C23      1.0000 0.10943  0.78927  0.75747  Biso   1.000  C
  C24      1.0000 0.15173  0.83567  0.64227  Biso   1.000  C
  H6       1.0000 0.14203  0.83307  0.49867  Biso   1.000  H
  Co7      1.0000 0.97040  0.62140  0.15100  Biso   1.000  Co
  O19      1.0000 0.96720  0.67130  0.36370  Biso   1.000  O
  O20      1.0000 0.92650  0.69740  0.59870  Biso   1.000  O
  O21      1.0000 0.91810  0.64230  0.00220  Biso   1.000  O
  C25      1.0000 0.92850  0.68090  0.42860  Biso   1.000  C
  C26      1.0000 0.87870  0.67180  0.28980  Biso   1.000  C
  C27      1.0000 0.87740  0.65350  0.09080  Biso   1.000  C
  C28      1.0000 0.83100  0.64940  0.97560  Biso   1.000  C
  H7       1.0000 0.83360  0.64230  0.83200  Biso   1.000  H
  Co8      1.0000 0.63707  0.95473  0.48433  Biso   1.000  Co
  O22      1.0000 0.63387  0.00463  0.69703  Biso   1.000  O
  O23      1.0000 0.59317  0.03073  0.93203  Biso   1.000  O
  O24      1.0000 0.58477  0.97563  0.33553  Biso   1.000  O
  C29      1.0000 0.59517  0.01423  0.76193  Biso   1.000  C
  C30      1.0000 0.54537  0.00513  0.62313  Biso   1.000  C
  C31      1.0000 0.54407  0.98683  0.42413  Biso   1.000  C
  C32      1.0000 0.49767  0.98273  0.30893  Biso   1.000  C
  H8       1.0000 0.50027  0.97563  0.16533  Biso   1.000  H
  Co9      1.0000 0.30373  0.28807  0.81767  Biso   1.000  Co
  O25      1.0000 0.30053  0.33797  0.03037  Biso   1.000  O
  O26      1.0000 0.25983  0.36407  0.26537  Biso   1.000  O
  O27      1.0000 0.25143  0.30897  0.66887  Biso   1.000  O
  C33      1.0000 0.26183  0.34757  0.09527  Biso   1.000  C
  C34      1.0000 0.21203  0.33847  0.95647  Biso   1.000  C
  C35      1.0000 0.21073  0.32017  0.75747  Biso   1.000  C
  C36      1.0000 0.16433  0.31607  0.64227  Biso   1.000  C
  H9       1.0000 0.16693  0.30897  0.49867  Biso   1.000  H
  Co10     1.0000 0.62140  0.65100  0.84900  Biso   1.000  Co
  O28      1.0000 0.67130  0.70410  0.63630  Biso   1.000  O
  O29      1.0000 0.69740  0.77090  0.40130  Biso   1.000  O
  O30      1.0000 0.64230  0.72420  0.99780  Biso   1.000  O
  C37      1.0000 0.68090  0.75240  0.57140  Biso   1.000  C
  C38      1.0000 0.67180  0.79310  0.71020  Biso   1.000  C
  C39      1.0000 0.65350  0.77610  0.90920  Biso   1.000  C
  C40      1.0000 0.64940  0.81840  0.02440  Biso   1.000  C
  H10      1.0000 0.64230  0.80870  0.16800  Biso   1.000  H
  Co11     1.0000 0.28807  0.98433  0.18233  Biso   1.000  Co
  O31      1.0000 0.33797  0.03743  0.96963  Biso   1.000  O
  O32      1.0000 0.36407  0.10423  0.73463  Biso   1.000  O
  O33      1.0000 0.30897  0.05753  0.33113  Biso   1.000  O
  C41      1.0000 0.34757  0.08573  0.90473  Biso   1.000  C
  C42      1.0000 0.33847  0.12643  0.04353  Biso   1.000  C
  C43      1.0000 0.32017  0.10943  0.24253  Biso   1.000  C
  C44      1.0000 0.31607  0.15173  0.35773  Biso   1.000  C
  H11      1.0000 0.30897  0.14203  0.50133  Biso   1.000  H
  Co12     1.0000 0.95473  0.31767  0.51567  Biso   1.000  Co
  O34      1.0000 0.00463  0.37077  0.30297  Biso   1.000  O
  O35      1.0000 0.03073  0.43757  0.06797  Biso   1.000  O
  O36      1.0000 0.97563  0.39087  0.66447  Biso   1.000  O
  C45      1.0000 0.01423  0.41907  0.23807  Biso   1.000  C
  C46      1.0000 0.00513  0.45977  0.37687  Biso   1.000  C
  C47      1.0000 0.98683  0.44277  0.57587  Biso   1.000  C
  C48      1.0000 0.98273  0.48507  0.69107  Biso   1.000  C
  H12      1.0000 0.97563  0.47537  0.83467  Biso   1.000  H
  Co13     1.0000 0.34900  0.97040  0.84900  Biso   1.000  Co
  O37      1.0000 0.29590  0.96720  0.63630  Biso   1.000  O
  O38      1.0000 0.22910  0.92650  0.40130  Biso   1.000  O
  O39      1.0000 0.27580  0.91810  0.99780  Biso   1.000  O
  C49      1.0000 0.24760  0.92850  0.57140  Biso   1.000  C
  C50      1.0000 0.20690  0.87870  0.71020  Biso   1.000  C
  C51      1.0000 0.22390  0.87740  0.90920  Biso   1.000  C
  C52      1.0000 0.18160  0.83100  0.02440  Biso   1.000  C
  H13      1.0000 0.19130  0.83360  0.16800  Biso   1.000  H
  Co14     1.0000 0.01567  0.30373  0.18233  Biso   1.000  Co
  O40      1.0000 0.96257  0.30053  0.96963  Biso   1.000  O
  O41      1.0000 0.89577  0.25983  0.73463  Biso   1.000  O
  O42      1.0000 0.94247  0.25143  0.33113  Biso   1.000  O
  C53      1.0000 0.91427  0.26183  0.90473  Biso   1.000  C
  C54      1.0000 0.87357  0.21203  0.04353  Biso   1.000  C
  C55      1.0000 0.89057  0.21073  0.24253  Biso   1.000  C
  C56      1.0000 0.84827  0.16433  0.35773  Biso   1.000  C
  H14      1.0000 0.85797  0.16693  0.50133  Biso   1.000  H
  Co15     1.0000 0.68233  0.63707  0.51567  Biso   1.000  Co
  O43      1.0000 0.62923  0.63387  0.30297  Biso   1.000  O
  O44      1.0000 0.56243  0.59317  0.06797  Biso   1.000  O
  O45      1.0000 0.60913  0.58477  0.66447  Biso   1.000  O
  C57      1.0000 0.58093  0.59517  0.23807  Biso   1.000  C
  C58      1.0000 0.54023  0.54537  0.37687  Biso   1.000  C
  C59      1.0000 0.55723  0.54407  0.57587  Biso   1.000  C
  C60      1.0000 0.51493  0.49767  0.69107  Biso   1.000  C
  H15      1.0000 0.52463  0.50027  0.83467  Biso   1.000  H
  Co16     1.0000 0.02960  0.37860  0.84900  Biso   1.000  Co
  O46      1.0000 0.03280  0.32870  0.63630  Biso   1.000  O
  O47      1.0000 0.07350  0.30260  0.40130  Biso   1.000  O
  O48      1.0000 0.08190  0.35770  0.99780  Biso   1.000  O
  C61      1.0000 0.07150  0.31910  0.57140  Biso   1.000  C
  C62      1.0000 0.12130  0.32820  0.71020  Biso   1.000  C
  C63      1.0000 0.12260  0.34650  0.90920  Biso   1.000  C
  C64      1.0000 0.16900  0.35060  0.02440  Biso   1.000  C
  H16      1.0000 0.16640  0.35770  0.16800  Biso   1.000  H
  Co17     1.0000 0.69627  0.71193  0.18233  Biso   1.000  Co
  O49      1.0000 0.69947  0.66203  0.96963  Biso   1.000  O
  O50      1.0000 0.74017  0.63593  0.73463  Biso   1.000  O
  O51      1.0000 0.74857  0.69103  0.33113  Biso   1.000  O
  C65      1.0000 0.73817  0.65243  0.90473  Biso   1.000  C
  C66      1.0000 0.78797  0.66153  0.04353  Biso   1.000  C
  C67      1.0000 0.78927  0.67983  0.24253  Biso   1.000  C
  C68      1.0000 0.83567  0.68393  0.35773  Biso   1.000  C
  H17      1.0000 0.83307  0.69103  0.50133  Biso   1.000  H
  Co18     1.0000 0.36293  0.04527  0.51567  Biso   1.000  Co
  O52      1.0000 0.36613  0.99537  0.30297  Biso   1.000  O
  O53      1.0000 0.40683  0.96927  0.06797  Biso   1.000  O
  O54      1.0000 0.41523  0.02437  0.66447  Biso   1.000  O
  C69      1.0000 0.40483  0.98577  0.23807  Biso   1.000  C
  C70      1.0000 0.45463  0.99487  0.37687  Biso   1.000  C
  C71      1.0000 0.45593  0.01317  0.57587  Biso   1.000  C
  C72      1.0000 0.50233  0.01727  0.69107  Biso   1.000  C
  H18      1.0000 0.49973  0.02437  0.83467  Biso   1.000  H
