data_image0
_cell_length_a       25.8504
_cell_length_b       25.8504
_cell_length_c       6.8072
_cell_angle_alpha    90
_cell_angle_beta     90
_cell_angle_gamma    120

_symmetry_space_group_name_H-M    "P 1"
_symmetry_int_tables_number       1

loop_
  _symmetry_equiv_pos_as_xyz
  'x, y, z'

loop_
  _atom_site_label
  _atom_site_occupancy
  _atom_site_fract_x
  _atom_site_fract_y
  _atom_site_fract_z
  _atom_site_thermal_displace_type
  _atom_site_B_iso_or_equiv
  _atom_site_type_symbol
  Zn1      1.0000 0.38190  0.35090  0.14540  Biso   1.000  Zn
  O1       1.0000 0.33250  0.29550  0.37190  Biso   1.000  O
  O2       1.0000 0.35580  0.27420  0.00950  Biso   1.000  O
  O3       1.0000 0.43870  0.40930  0.93280  Biso   1.000  O
  C1       1.0000 0.31650  0.24520  0.42910  Biso   1.000  C
  C2       1.0000 0.34560  0.22120  0.09660  Biso   1.000  C
  C3       1.0000 0.32690  0.20810  0.28790  Biso   1.000  C
  C4       1.0000 0.35030  0.18160  0.96950  Biso   1.000  C
  H1       1.0000 0.36330  0.19050  0.84500  Biso   1.000  H
  Zn2      1.0000 0.04857  0.68423  0.47873  Biso   1.000  Zn
  O4       1.0000 0.99917  0.62883  0.70523  Biso   1.000  O
  O5       1.0000 0.02247  0.60753  0.34283  Biso   1.000  O
  O6       1.0000 0.10537  0.74263  0.26613  Biso   1.000  O
  C5       1.0000 0.98317  0.57853  0.76243  Biso   1.000  C
  C6       1.0000 0.01227  0.55453  0.42993  Biso   1.000  C
  C7       1.0000 0.99357  0.54143  0.62123  Biso   1.000  C
  C8       1.0000 0.01697  0.51493  0.30283  Biso   1.000  C
  H2       1.0000 0.02997  0.52383  0.17833  Biso   1.000  H
  Zn3      1.0000 0.71523  0.01757  0.81207  Biso   1.000  Zn
  O7       1.0000 0.66583  0.96217  0.03857  Biso   1.000  O
  O8       1.0000 0.68913  0.94087  0.67617  Biso   1.000  O
  O9       1.0000 0.77203  0.07597  0.59947  Biso   1.000  O
  C9       1.0000 0.64983  0.91187  0.09577  Biso   1.000  C
  C10      1.0000 0.67893  0.88787  0.76327  Biso   1.000  C
  C11      1.0000 0.66023  0.87477  0.95457  Biso   1.000  C
  C12      1.0000 0.68363  0.84827  0.63617  Biso   1.000  C
  H3       1.0000 0.69663  0.85717  0.51167  Biso   1.000  H
  Zn4      1.0000 0.64910  0.03100  0.14540  Biso   1.000  Zn
  O10      1.0000 0.70450  0.03700  0.37190  Biso   1.000  O
  O11      1.0000 0.72580  0.08160  0.00950  Biso   1.000  O
  O12      1.0000 0.59070  0.02940  0.93280  Biso   1.000  O
  C13      1.0000 0.75480  0.07130  0.42910  Biso   1.000  C
  C14      1.0000 0.77880  0.12440  0.09660  Biso   1.000  C
  C15      1.0000 0.79190  0.11880  0.28790  Biso   1.000  C
  C16      1.0000 0.81840  0.16870  0.96950  Biso   1.000  C
  H4       1.0000 0.80950  0.17280  0.84500  Biso   1.000  H
  Zn5      1.0000 0.31577  0.36433  0.47873  Biso   1.000  Zn
  O13      1.0000 0.37117  0.37033  0.70523  Biso   1.000  O
  O14      1.0000 0.39247  0.41493  0.34283  Biso   1.000  O
  O15      1.0000 0.25737  0.36273  0.26613  Biso   1.000  O
  C17      1.0000 0.42147  0.40463  0.76243  Biso   1.000  C
  C18      1.0000 0.44547  0.45773  0.42993  Biso   1.000  C
  C19      1.0000 0.45857  0.45213  0.62123  Biso   1.000  C
  C20      1.0000 0.48507  0.50203  0.30283  Biso   1.000  C
  H5       1.0000 0.47617  0.50613  0.17833  Biso   1.000  H
  Zn6      1.0000 0.98243  0.69767  0.81207  Biso   1.000  Zn
  O16      1.0000 0.03783  0.70367  0.03857  Biso   1.000  O
  O17      1.0000 0.05913  0.74827  0.67617  Biso   1.000  O
  O18      1.0000 0.92403  0.69607  0.59947  Biso   1.000  O
  C21      1.0000 0.08813  0.73797  0.09577  Biso   1.000  C
  C22      1.0000 0.11213  0.79107  0.76327  Biso   1.000  C
  C23      1.0000 0.12523  0.78547  0.95457  Biso   1.000  C
  C24      1.0000 0.15173  0.83537  0.63617  Biso   1.000  C
  H6       1.0000 0.14283  0.83947  0.51167  Biso   1.000  H
  Zn7      1.0000 0.96900  0.61810  0.14540  Biso   1.000  Zn
  O19      1.0000 0.96300  0.66750  0.37190  Biso   1.000  O
  O20      1.0000 0.91840  0.64420  0.00950  Biso   1.000  O
  O21      1.0000 0.97060  0.56130  0.93280  Biso   1.000  O
  C25      1.0000 0.92870  0.68350  0.42910  Biso   1.000  C
  C26      1.0000 0.87560  0.65440  0.09660  Biso   1.000  C
  C27      1.0000 0.88120  0.67310  0.28790  Biso   1.000  C
  C28      1.0000 0.83130  0.64970  0.96950  Biso   1.000  C
  H7       1.0000 0.82720  0.63670  0.84500  Biso   1.000  H
  Zn8      1.0000 0.63567  0.95143  0.47873  Biso   1.000  Zn
  O22      1.0000 0.62967  0.00083  0.70523  Biso   1.000  O
  O23      1.0000 0.58507  0.97753  0.34283  Biso   1.000  O
  O24      1.0000 0.63727  0.89463  0.26613  Biso   1.000  O
  C29      1.0000 0.59537  0.01683  0.76243  Biso   1.000  C
  C30      1.0000 0.54227  0.98773  0.42993  Biso   1.000  C
  C31      1.0000 0.54787  0.00643  0.62123  Biso   1.000  C
  C32      1.0000 0.49797  0.98303  0.30283  Biso   1.000  C
  H8       1.0000 0.49387  0.97003  0.17833  Biso   1.000  H
  Zn9      1.0000 0.30233  0.28477  0.81207  Biso   1.000  Zn
  O25      1.0000 0.29633  0.33417  0.03857  Biso   1.000  O
  O26      1.0000 0.25173  0.31087  0.67617  Biso   1.000  O
  O27      1.0000 0.30393  0.22797  0.59947  Biso   1.000  O
  C33      1.0000 0.26203  0.35017  0.09577  Biso   1.000  C
  C34      1.0000 0.20893  0.32107  0.76327  Biso   1.000  C
  C35      1.0000 0.21453  0.33977  0.95457  Biso   1.000  C
  C36      1.0000 0.16463  0.31637  0.63617  Biso   1.000  C
  H9       1.0000 0.16053  0.30337  0.51167  Biso   1.000  H
  Zn10     1.0000 0.61810  0.64910  0.85460  Biso   1.000  Zn
  O28      1.0000 0.66750  0.70450  0.62810  Biso   1.000  O
  O29      1.0000 0.64420  0.72580  0.99050  Biso   1.000  O
  O30      1.0000 0.56130  0.59070  0.06720  Biso   1.000  O
  C37      1.0000 0.68350  0.75480  0.57090  Biso   1.000  C
  C38      1.0000 0.65440  0.77880  0.90340  Biso   1.000  C
  C39      1.0000 0.67310  0.79190  0.71210  Biso   1.000  C
  C40      1.0000 0.64970  0.81840  0.03050  Biso   1.000  C
  H10      1.0000 0.63670  0.80950  0.15500  Biso   1.000  H
  Zn11     1.0000 0.28477  0.98243  0.18793  Biso   1.000  Zn
  O31      1.0000 0.33417  0.03783  0.96143  Biso   1.000  O
  O32      1.0000 0.31087  0.05913  0.32383  Biso   1.000  O
  O33      1.0000 0.22797  0.92403  0.40053  Biso   1.000  O
  C41      1.0000 0.35017  0.08813  0.90423  Biso   1.000  C
  C42      1.0000 0.32107  0.11213  0.23673  Biso   1.000  C
  C43      1.0000 0.33977  0.12523  0.04543  Biso   1.000  C
  C44      1.0000 0.31637  0.15173  0.36383  Biso   1.000  C
  H11      1.0000 0.30337  0.14283  0.48833  Biso   1.000  H
  Zn12     1.0000 0.95143  0.31577  0.52127  Biso   1.000  Zn
  O34      1.0000 0.00083  0.37117  0.29477  Biso   1.000  O
  O35      1.0000 0.97753  0.39247  0.65717  Biso   1.000  O
  O36      1.0000 0.89463  0.25737  0.73387  Biso   1.000  O
  C45      1.0000 0.01683  0.42147  0.23757  Biso   1.000  C
  C46      1.0000 0.98773  0.44547  0.57007  Biso   1.000  C
  C47      1.0000 0.00643  0.45857  0.37877  Biso   1.000  C
  C48      1.0000 0.98303  0.48507  0.69717  Biso   1.000  C
  H12      1.0000 0.97003  0.47617  0.82167  Biso   1.000  H
  Zn13     1.0000 0.35090  0.96900  0.85460  Biso   1.000  Zn
  O37      1.0000 0.29550  0.96300  0.62810  Biso   1.000  O
  O38      1.0000 0.27420  0.91840  0.99050  Biso   1.000  O
  O39      1.0000 0.40930  0.97060  0.06720  Biso   1.000  O
  C49      1.0000 0.24520  0.92870  0.57090  Biso   1.000  C
  C50      1.0000 0.22120  0.87560  0.90340  Biso   1.000  C
  C51      1.0000 0.20810  0.88120  0.71210  Biso   1.000  C
  C52      1.0000 0.18160  0.83130  0.03050  Biso   1.000  C
  H13      1.0000 0.19050  0.82720  0.15500  Biso   1.000  H
  Zn14     1.0000 0.01757  0.30233  0.18793  Biso   1.000  Zn
  O40      1.0000 0.96217  0.29633  0.96143  Biso   1.000  O
  O41      1.0000 0.94087  0.25173  0.32383  Biso   1.000  O
  O42      1.0000 0.07597  0.30393  0.40053  Biso   1.000  O
  C53      1.0000 0.91187  0.26203  0.90423  Biso   1.000  C
  C54      1.0000 0.88787  0.20893  0.23673  Biso   1.000  C
  C55      1.0000 0.87477  0.21453  0.04543  Biso   1.000  C
  C56      1.0000 0.84827  0.16463  0.36383  Biso   1.000  C
  H14      1.0000 0.85717  0.16053  0.48833  Biso   1.000  H
  Zn15     1.0000 0.68423  0.63567  0.52127  Biso   1.000  Zn
  O43      1.0000 0.62883  0.62967  0.29477  Biso   1.000  O
  O44      1.0000 0.60753  0.58507  0.65717  Biso   1.000  O
  O45      1.0000 0.74263  0.63727  0.73387  Biso   1.000  O
  C57      1.0000 0.57853  0.59537  0.23757  Biso   1.000  C
  C58      1.0000 0.55453  0.54227  0.57007  Biso   1.000  C
  C59      1.0000 0.54143  0.54787  0.37877  Biso   1.000  C
  C60      1.0000 0.51493  0.49797  0.69717  Biso   1.000  C
  H15      1.0000 0.52383  0.49387  0.82167  Biso   1.000  H
  Zn16     1.0000 0.03100  0.38190  0.85460  Biso   1.000  Zn
  O46      1.0000 0.03700  0.33250  0.62810  Biso   1.000  O
  O47      1.0000 0.08160  0.35580  0.99050  Biso   1.000  O
  O48      1.0000 0.02940  0.43870  0.06720  Biso   1.000  O
  C61      1.0000 0.07130  0.31650  0.57090  Biso   1.000  C
  C62      1.0000 0.12440  0.34560  0.90340  Biso   1.000  C
  C63      1.0000 0.11880  0.32690  0.71210  Biso   1.000  C
  C64      1.0000 0.16870  0.35030  0.03050  Biso   1.000  C
  H16      1.0000 0.17280  0.36330  0.15500  Biso   1.000  H
  Zn17     1.0000 0.69767  0.71523  0.18793  Biso   1.000  Zn
  O49      1.0000 0.70367  0.66583  0.96143  Biso   1.000  O
  O50      1.0000 0.74827  0.68913  0.32383  Biso   1.000  O
  O51      1.0000 0.69607  0.77203  0.40053  Biso   1.000  O
  C65      1.0000 0.73797  0.64983  0.90423  Biso   1.000  C
  C66      1.0000 0.79107  0.67893  0.23673  Biso   1.000  C
  C67      1.0000 0.78547  0.66023  0.04543  Biso   1.000  C
  C68      1.0000 0.83537  0.68363  0.36383  Biso   1.000  C
  H17      1.0000 0.83947  0.69663  0.48833  Biso   1.000  H
  Zn18     1.0000 0.36433  0.04857  0.52127  Biso   1.000  Zn
  O52      1.0000 0.37033  0.99917  0.29477  Biso   1.000  O
  O53      1.0000 0.41493  0.02247  0.65717  Biso   1.000  O
  O54      1.0000 0.36273  0.10537  0.73387  Biso   1.000  O
  C69      1.0000 0.40463  0.98317  0.23757  Biso   1.000  C
  C70      1.0000 0.45773  0.01227  0.57007  Biso   1.000  C
  C71      1.0000 0.45213  0.99357  0.37877  Biso   1.000  C
  C72      1.0000 0.50203  0.01697  0.69717  Biso   1.000  C
  H18      1.0000 0.50613  0.02997  0.82167  Biso   1.000  H
