data_image0
_cell_length_a       25.8728
_cell_length_b       25.8728
_cell_length_c       6.87
_cell_angle_alpha    90
_cell_angle_beta     90
_cell_angle_gamma    120

_symmetry_space_group_name_H-M    "P 1"
_symmetry_int_tables_number       1

loop_
  _symmetry_equiv_pos_as_xyz
  'x, y, z'

loop_
  _atom_site_label
  _atom_site_occupancy
  _atom_site_fract_x
  _atom_site_fract_y
  _atom_site_fract_z
  _atom_site_thermal_displace_type
  _atom_site_B_iso_or_equiv
  _atom_site_type_symbol
  Mg1      1.0000 0.38040  0.35150  0.13820  Biso   1.000  Mg
  O1       1.0000 0.32522  0.29556  0.36200  Biso   1.000  O
  O2       1.0000 0.30284  0.22880  0.59760  Biso   1.000  O
  O3       1.0000 0.35390  0.27440  0.00230  Biso   1.000  O
  C1       1.0000 0.31582  0.24659  0.42390  Biso   1.000  C
  C2       1.0000 0.32894  0.20868  0.28580  Biso   1.000  C
  C3       1.0000 0.34593  0.22389  0.09190  Biso   1.000  C
  C4       1.0000 0.35265  0.18251  0.97280  Biso   1.000  C
  H1       1.0000 0.36060  0.19040  0.82630  Biso   1.000  H
  Mg2      1.0000 0.04707  0.68483  0.47153  Biso   1.000  Mg
  O4       1.0000 0.99189  0.62889  0.69533  Biso   1.000  O
  O5       1.0000 0.96951  0.56213  0.93093  Biso   1.000  O
  O6       1.0000 0.02057  0.60773  0.33563  Biso   1.000  O
  C5       1.0000 0.98249  0.57992  0.75723  Biso   1.000  C
  C6       1.0000 0.99561  0.54201  0.61913  Biso   1.000  C
  C7       1.0000 0.01260  0.55722  0.42523  Biso   1.000  C
  C8       1.0000 0.01932  0.51584  0.30613  Biso   1.000  C
  H2       1.0000 0.02727  0.52373  0.15963  Biso   1.000  H
  Mg3      1.0000 0.71373  0.01817  0.80487  Biso   1.000  Mg
  O7       1.0000 0.65855  0.96223  0.02867  Biso   1.000  O
  O8       1.0000 0.63617  0.89547  0.26427  Biso   1.000  O
  O9       1.0000 0.68723  0.94107  0.66897  Biso   1.000  O
  C9       1.0000 0.64915  0.91326  0.09057  Biso   1.000  C
  C10      1.0000 0.66227  0.87535  0.95247  Biso   1.000  C
  C11      1.0000 0.67926  0.89056  0.75857  Biso   1.000  C
  C12      1.0000 0.68598  0.84918  0.63947  Biso   1.000  C
  H3       1.0000 0.69393  0.85707  0.49297  Biso   1.000  H
  Mg4      1.0000 0.64850  0.02890  0.13820  Biso   1.000  Mg
  O10      1.0000 0.70444  0.02966  0.36200  Biso   1.000  O
  O11      1.0000 0.77120  0.07404  0.59760  Biso   1.000  O
  O12      1.0000 0.72560  0.07950  0.00230  Biso   1.000  O
  C13      1.0000 0.75341  0.06923  0.42390  Biso   1.000  C
  C14      1.0000 0.79132  0.12026  0.28580  Biso   1.000  C
  C15      1.0000 0.77611  0.12204  0.09190  Biso   1.000  C
  C16      1.0000 0.81749  0.17014  0.97280  Biso   1.000  C
  H4       1.0000 0.80960  0.17020  0.82630  Biso   1.000  H
  Mg5      1.0000 0.31517  0.36223  0.47153  Biso   1.000  Mg
  O13      1.0000 0.37111  0.36299  0.69533  Biso   1.000  O
  O14      1.0000 0.43787  0.40737  0.93093  Biso   1.000  O
  O15      1.0000 0.39227  0.41283  0.33563  Biso   1.000  O
  C17      1.0000 0.42008  0.40256  0.75723  Biso   1.000  C
  C18      1.0000 0.45799  0.45359  0.61913  Biso   1.000  C
  C19      1.0000 0.44278  0.45537  0.42523  Biso   1.000  C
  C20      1.0000 0.48416  0.50347  0.30613  Biso   1.000  C
  H5       1.0000 0.47627  0.50353  0.15963  Biso   1.000  H
  Mg6      1.0000 0.98183  0.69557  0.80487  Biso   1.000  Mg
  O16      1.0000 0.03777  0.69633  0.02867  Biso   1.000  O
  O17      1.0000 0.10453  0.74071  0.26427  Biso   1.000  O
  O18      1.0000 0.05893  0.74617  0.66897  Biso   1.000  O
  C21      1.0000 0.08674  0.73590  0.09057  Biso   1.000  C
  C22      1.0000 0.12465  0.78693  0.95247  Biso   1.000  C
  C23      1.0000 0.10944  0.78871  0.75857  Biso   1.000  C
  C24      1.0000 0.15082  0.83681  0.63947  Biso   1.000  C
  H6       1.0000 0.14293  0.83687  0.49297  Biso   1.000  H
  Mg7      1.0000 0.97110  0.61960  0.13820  Biso   1.000  Mg
  O19      1.0000 0.97034  0.67478  0.36200  Biso   1.000  O
  O20      1.0000 0.92596  0.69716  0.59760  Biso   1.000  O
  O21      1.0000 0.92050  0.64610  0.00230  Biso   1.000  O
  C25      1.0000 0.93077  0.68418  0.42390  Biso   1.000  C
  C26      1.0000 0.87974  0.67106  0.28580  Biso   1.000  C
  C27      1.0000 0.87796  0.65407  0.09190  Biso   1.000  C
  C28      1.0000 0.82986  0.64735  0.97280  Biso   1.000  C
  H7       1.0000 0.82980  0.63940  0.82630  Biso   1.000  H
  Mg8      1.0000 0.63777  0.95293  0.47153  Biso   1.000  Mg
  O22      1.0000 0.63701  0.00811  0.69533  Biso   1.000  O
  O23      1.0000 0.59263  0.03049  0.93093  Biso   1.000  O
  O24      1.0000 0.58717  0.97943  0.33563  Biso   1.000  O
  C29      1.0000 0.59744  0.01751  0.75723  Biso   1.000  C
  C30      1.0000 0.54641  0.00439  0.61913  Biso   1.000  C
  C31      1.0000 0.54463  0.98740  0.42523  Biso   1.000  C
  C32      1.0000 0.49653  0.98068  0.30613  Biso   1.000  C
  H8       1.0000 0.49647  0.97273  0.15963  Biso   1.000  H
  Mg9      1.0000 0.30443  0.28627  0.80487  Biso   1.000  Mg
  O25      1.0000 0.30367  0.34145  0.02867  Biso   1.000  O
  O26      1.0000 0.25929  0.36383  0.26427  Biso   1.000  O
  O27      1.0000 0.25383  0.31277  0.66897  Biso   1.000  O
  C33      1.0000 0.26410  0.35085  0.09057  Biso   1.000  C
  C34      1.0000 0.21307  0.33773  0.95247  Biso   1.000  C
  C35      1.0000 0.21129  0.32074  0.75857  Biso   1.000  C
  C36      1.0000 0.16319  0.31402  0.63947  Biso   1.000  C
  H9       1.0000 0.16313  0.30607  0.49297  Biso   1.000  H
  Mg10     1.0000 0.61960  0.64850  0.86180  Biso   1.000  Mg
  O28      1.0000 0.67478  0.70444  0.63800  Biso   1.000  O
  O29      1.0000 0.69716  0.77120  0.40240  Biso   1.000  O
  O30      1.0000 0.64610  0.72560  0.99770  Biso   1.000  O
  C37      1.0000 0.68418  0.75341  0.57610  Biso   1.000  C
  C38      1.0000 0.67106  0.79132  0.71420  Biso   1.000  C
  C39      1.0000 0.65407  0.77611  0.90810  Biso   1.000  C
  C40      1.0000 0.64735  0.81749  0.02720  Biso   1.000  C
  H10      1.0000 0.63940  0.80960  0.17370  Biso   1.000  H
  Mg11     1.0000 0.28627  0.98183  0.19513  Biso   1.000  Mg
  O31      1.0000 0.34145  0.03777  0.97133  Biso   1.000  O
  O32      1.0000 0.36383  0.10453  0.73573  Biso   1.000  O
  O33      1.0000 0.31277  0.05893  0.33103  Biso   1.000  O
  C41      1.0000 0.35085  0.08674  0.90943  Biso   1.000  C
  C42      1.0000 0.33773  0.12465  0.04753  Biso   1.000  C
  C43      1.0000 0.32074  0.10944  0.24143  Biso   1.000  C
  C44      1.0000 0.31402  0.15082  0.36053  Biso   1.000  C
  H11      1.0000 0.30607  0.14293  0.50703  Biso   1.000  H
  Mg12     1.0000 0.95293  0.31517  0.52847  Biso   1.000  Mg
  O34      1.0000 0.00811  0.37111  0.30467  Biso   1.000  O
  O35      1.0000 0.03049  0.43787  0.06907  Biso   1.000  O
  O36      1.0000 0.97943  0.39227  0.66437  Biso   1.000  O
  C45      1.0000 0.01751  0.42008  0.24277  Biso   1.000  C
  C46      1.0000 0.00439  0.45799  0.38087  Biso   1.000  C
  C47      1.0000 0.98740  0.44278  0.57477  Biso   1.000  C
  C48      1.0000 0.98068  0.48416  0.69387  Biso   1.000  C
  H12      1.0000 0.97273  0.47627  0.84037  Biso   1.000  H
  Mg13     1.0000 0.35150  0.97110  0.86180  Biso   1.000  Mg
  O37      1.0000 0.29556  0.97034  0.63800  Biso   1.000  O
  O38      1.0000 0.22880  0.92596  0.40240  Biso   1.000  O
  O39      1.0000 0.27440  0.92050  0.99770  Biso   1.000  O
  C49      1.0000 0.24659  0.93077  0.57610  Biso   1.000  C
  C50      1.0000 0.20868  0.87974  0.71420  Biso   1.000  C
  C51      1.0000 0.22389  0.87796  0.90810  Biso   1.000  C
  C52      1.0000 0.18251  0.82986  0.02720  Biso   1.000  C
  H13      1.0000 0.19040  0.82980  0.17370  Biso   1.000  H
  Mg14     1.0000 0.01817  0.30443  0.19513  Biso   1.000  Mg
  O40      1.0000 0.96223  0.30367  0.97133  Biso   1.000  O
  O41      1.0000 0.89547  0.25929  0.73573  Biso   1.000  O
  O42      1.0000 0.94107  0.25383  0.33103  Biso   1.000  O
  C53      1.0000 0.91326  0.26410  0.90943  Biso   1.000  C
  C54      1.0000 0.87535  0.21307  0.04753  Biso   1.000  C
  C55      1.0000 0.89056  0.21129  0.24143  Biso   1.000  C
  C56      1.0000 0.84918  0.16319  0.36053  Biso   1.000  C
  H14      1.0000 0.85707  0.16313  0.50703  Biso   1.000  H
  Mg15     1.0000 0.68483  0.63777  0.52847  Biso   1.000  Mg
  O43      1.0000 0.62889  0.63701  0.30467  Biso   1.000  O
  O44      1.0000 0.56213  0.59263  0.06907  Biso   1.000  O
  O45      1.0000 0.60773  0.58717  0.66437  Biso   1.000  O
  C57      1.0000 0.57992  0.59744  0.24277  Biso   1.000  C
  C58      1.0000 0.54201  0.54641  0.38087  Biso   1.000  C
  C59      1.0000 0.55722  0.54463  0.57477  Biso   1.000  C
  C60      1.0000 0.51584  0.49653  0.69387  Biso   1.000  C
  H15      1.0000 0.52373  0.49647  0.84037  Biso   1.000  H
  Mg16     1.0000 0.02890  0.38040  0.86180  Biso   1.000  Mg
  O46      1.0000 0.02966  0.32522  0.63800  Biso   1.000  O
  O47      1.0000 0.07404  0.30284  0.40240  Biso   1.000  O
  O48      1.0000 0.07950  0.35390  0.99770  Biso   1.000  O
  C61      1.0000 0.06923  0.31582  0.57610  Biso   1.000  C
  C62      1.0000 0.12026  0.32894  0.71420  Biso   1.000  C
  C63      1.0000 0.12204  0.34593  0.90810  Biso   1.000  C
  C64      1.0000 0.17014  0.35265  0.02720  Biso   1.000  C
  H16      1.0000 0.17020  0.36060  0.17370  Biso   1.000  H
  Mg17     1.0000 0.69557  0.71373  0.19513  Biso   1.000  Mg
  O49      1.0000 0.69633  0.65855  0.97133  Biso   1.000  O
  O50      1.0000 0.74071  0.63617  0.73573  Biso   1.000  O
  O51      1.0000 0.74617  0.68723  0.33103  Biso   1.000  O
  C65      1.0000 0.73590  0.64915  0.90943  Biso   1.000  C
  C66      1.0000 0.78693  0.66227  0.04753  Biso   1.000  C
  C67      1.0000 0.78871  0.67926  0.24143  Biso   1.000  C
  C68      1.0000 0.83681  0.68598  0.36053  Biso   1.000  C
  H17      1.0000 0.83687  0.69393  0.50703  Biso   1.000  H
  Mg18     1.0000 0.36223  0.04707  0.52847  Biso   1.000  Mg
  O52      1.0000 0.36299  0.99189  0.30467  Biso   1.000  O
  O53      1.0000 0.40737  0.96951  0.06907  Biso   1.000  O
  O54      1.0000 0.41283  0.02057  0.66437  Biso   1.000  O
  C69      1.0000 0.40256  0.98249  0.24277  Biso   1.000  C
  C70      1.0000 0.45359  0.99561  0.38087  Biso   1.000  C
  C71      1.0000 0.45537  0.01260  0.57477  Biso   1.000  C
  C72      1.0000 0.50347  0.01932  0.69387  Biso   1.000  C
  H18      1.0000 0.50353  0.02727  0.84037  Biso   1.000  H
