data_image0
_cell_length_a       25.887
_cell_length_b       25.887
_cell_length_c       6.821
_cell_angle_alpha    90
_cell_angle_beta     90
_cell_angle_gamma    120

_symmetry_space_group_name_H-M    "P 1"
_symmetry_int_tables_number       1

loop_
  _symmetry_equiv_pos_as_xyz
  'x, y, z'

loop_
  _atom_site_label
  _atom_site_occupancy
  _atom_site_fract_x
  _atom_site_fract_y
  _atom_site_fract_z
  _atom_site_thermal_displace_type
  _atom_site_B_iso_or_equiv
  _atom_site_type_symbol
  Zn1      1.0000 0.38360  0.35240  0.13550  Biso   1.000  Zn
  O1       1.0000 0.32710  0.29440  0.36180  Biso   1.000  O
  O2       1.0000 0.30330  0.22830  0.60770  Biso   1.000  O
  O3       1.0000 0.35420  0.27380  0.00260  Biso   1.000  O
  C1       1.0000 0.31600  0.24470  0.42950  Biso   1.000  C
  C2       1.0000 0.32590  0.20640  0.28330  Biso   1.000  C
  C3       1.0000 0.34120  0.22020  0.09390  Biso   1.000  C
  C4       1.0000 0.34930  0.18070  0.97230  Biso   1.000  C
  H1       1.0000 0.36370  0.19400  0.84700  Biso   1.000  H
  Zn2      1.0000 0.05027  0.68573  0.46883  Biso   1.000  Zn
  O4       1.0000 0.99377  0.62773  0.69513  Biso   1.000  O
  O5       1.0000 0.96997  0.56163  0.94103  Biso   1.000  O
  O6       1.0000 0.02087  0.60713  0.33593  Biso   1.000  O
  C5       1.0000 0.98267  0.57803  0.76283  Biso   1.000  C
  C6       1.0000 0.99257  0.53973  0.61663  Biso   1.000  C
  C7       1.0000 0.00787  0.55353  0.42723  Biso   1.000  C
  C8       1.0000 0.01597  0.51403  0.30563  Biso   1.000  C
  H2       1.0000 0.03037  0.52733  0.18033  Biso   1.000  H
  Zn3      1.0000 0.71693  0.01907  0.80217  Biso   1.000  Zn
  O7       1.0000 0.66043  0.96107  0.02847  Biso   1.000  O
  O8       1.0000 0.63663  0.89497  0.27437  Biso   1.000  O
  O9       1.0000 0.68753  0.94047  0.66927  Biso   1.000  O
  C9       1.0000 0.64933  0.91137  0.09617  Biso   1.000  C
  C10      1.0000 0.65923  0.87307  0.94997  Biso   1.000  C
  C11      1.0000 0.67453  0.88687  0.76057  Biso   1.000  C
  C12      1.0000 0.68263  0.84737  0.63897  Biso   1.000  C
  H3       1.0000 0.69703  0.86067  0.51367  Biso   1.000  H
  Zn4      1.0000 0.64760  0.03120  0.13550  Biso   1.000  Zn
  O10      1.0000 0.70560  0.03270  0.36180  Biso   1.000  O
  O11      1.0000 0.77170  0.07500  0.60770  Biso   1.000  O
  O12      1.0000 0.72620  0.08040  0.00260  Biso   1.000  O
  C13      1.0000 0.75530  0.07130  0.42950  Biso   1.000  C
  C14      1.0000 0.79360  0.11950  0.28330  Biso   1.000  C
  C15      1.0000 0.77980  0.12100  0.09390  Biso   1.000  C
  C16      1.0000 0.81930  0.16860  0.97230  Biso   1.000  C
  H4       1.0000 0.80600  0.16970  0.84700  Biso   1.000  H
  Zn5      1.0000 0.31427  0.36453  0.46883  Biso   1.000  Zn
  O13      1.0000 0.37227  0.36603  0.69513  Biso   1.000  O
  O14      1.0000 0.43837  0.40833  0.94103  Biso   1.000  O
  O15      1.0000 0.39287  0.41373  0.33593  Biso   1.000  O
  C17      1.0000 0.42197  0.40463  0.76283  Biso   1.000  C
  C18      1.0000 0.46027  0.45283  0.61663  Biso   1.000  C
  C19      1.0000 0.44647  0.45433  0.42723  Biso   1.000  C
  C20      1.0000 0.48597  0.50193  0.30563  Biso   1.000  C
  H5       1.0000 0.47267  0.50303  0.18033  Biso   1.000  H
  Zn6      1.0000 0.98093  0.69787  0.80217  Biso   1.000  Zn
  O16      1.0000 0.03893  0.69937  0.02847  Biso   1.000  O
  O17      1.0000 0.10503  0.74167  0.27437  Biso   1.000  O
  O18      1.0000 0.05953  0.74707  0.66927  Biso   1.000  O
  C21      1.0000 0.08863  0.73797  0.09617  Biso   1.000  C
  C22      1.0000 0.12693  0.78617  0.94997  Biso   1.000  C
  C23      1.0000 0.11313  0.78767  0.76057  Biso   1.000  C
  C24      1.0000 0.15263  0.83527  0.63897  Biso   1.000  C
  H6       1.0000 0.13933  0.83637  0.51367  Biso   1.000  H
  Zn7      1.0000 0.96880  0.61640  0.13550  Biso   1.000  Zn
  O19      1.0000 0.96730  0.67290  0.36180  Biso   1.000  O
  O20      1.0000 0.92500  0.69670  0.60770  Biso   1.000  O
  O21      1.0000 0.91960  0.64580  0.00260  Biso   1.000  O
  C25      1.0000 0.92870  0.68400  0.42950  Biso   1.000  C
  C26      1.0000 0.88050  0.67410  0.28330  Biso   1.000  C
  C27      1.0000 0.87900  0.65880  0.09390  Biso   1.000  C
  C28      1.0000 0.83140  0.65070  0.97230  Biso   1.000  C
  H7       1.0000 0.83030  0.63630  0.84700  Biso   1.000  H
  Zn8      1.0000 0.63547  0.94973  0.46883  Biso   1.000  Zn
  O22      1.0000 0.63397  0.00623  0.69513  Biso   1.000  O
  O23      1.0000 0.59167  0.03003  0.94103  Biso   1.000  O
  O24      1.0000 0.58627  0.97913  0.33593  Biso   1.000  O
  C29      1.0000 0.59537  0.01733  0.76283  Biso   1.000  C
  C30      1.0000 0.54717  0.00743  0.61663  Biso   1.000  C
  C31      1.0000 0.54567  0.99213  0.42723  Biso   1.000  C
  C32      1.0000 0.49807  0.98403  0.30563  Biso   1.000  C
  H8       1.0000 0.49697  0.96963  0.18033  Biso   1.000  H
  Zn9      1.0000 0.30213  0.28307  0.80217  Biso   1.000  Zn
  O25      1.0000 0.30063  0.33957  0.02847  Biso   1.000  O
  O26      1.0000 0.25833  0.36337  0.27437  Biso   1.000  O
  O27      1.0000 0.25293  0.31247  0.66927  Biso   1.000  O
  C33      1.0000 0.26203  0.35067  0.09617  Biso   1.000  C
  C34      1.0000 0.21383  0.34077  0.94997  Biso   1.000  C
  C35      1.0000 0.21233  0.32547  0.76057  Biso   1.000  C
  C36      1.0000 0.16473  0.31737  0.63897  Biso   1.000  C
  H9       1.0000 0.16363  0.30297  0.51367  Biso   1.000  H
  Zn10     1.0000 0.61640  0.64760  0.86450  Biso   1.000  Zn
  O28      1.0000 0.67290  0.70560  0.63820  Biso   1.000  O
  O29      1.0000 0.69670  0.77170  0.39230  Biso   1.000  O
  O30      1.0000 0.64580  0.72620  0.99740  Biso   1.000  O
  C37      1.0000 0.68400  0.75530  0.57050  Biso   1.000  C
  C38      1.0000 0.67410  0.79360  0.71670  Biso   1.000  C
  C39      1.0000 0.65880  0.77980  0.90610  Biso   1.000  C
  C40      1.0000 0.65070  0.81930  0.02770  Biso   1.000  C
  H10      1.0000 0.63630  0.80600  0.15300  Biso   1.000  H
  Zn11     1.0000 0.28307  0.98093  0.19783  Biso   1.000  Zn
  O31      1.0000 0.33957  0.03893  0.97153  Biso   1.000  O
  O32      1.0000 0.36337  0.10503  0.72563  Biso   1.000  O
  O33      1.0000 0.31247  0.05953  0.33073  Biso   1.000  O
  C41      1.0000 0.35067  0.08863  0.90383  Biso   1.000  C
  C42      1.0000 0.34077  0.12693  0.05003  Biso   1.000  C
  C43      1.0000 0.32547  0.11313  0.23943  Biso   1.000  C
  C44      1.0000 0.31737  0.15263  0.36103  Biso   1.000  C
  H11      1.0000 0.30297  0.13933  0.48633  Biso   1.000  H
  Zn12     1.0000 0.94973  0.31427  0.53117  Biso   1.000  Zn
  O34      1.0000 0.00623  0.37227  0.30487  Biso   1.000  O
  O35      1.0000 0.03003  0.43837  0.05897  Biso   1.000  O
  O36      1.0000 0.97913  0.39287  0.66407  Biso   1.000  O
  C45      1.0000 0.01733  0.42197  0.23717  Biso   1.000  C
  C46      1.0000 0.00743  0.46027  0.38337  Biso   1.000  C
  C47      1.0000 0.99213  0.44647  0.57277  Biso   1.000  C
  C48      1.0000 0.98403  0.48597  0.69437  Biso   1.000  C
  H12      1.0000 0.96963  0.47267  0.81967  Biso   1.000  H
  Zn13     1.0000 0.35240  0.96880  0.86450  Biso   1.000  Zn
  O37      1.0000 0.29440  0.96730  0.63820  Biso   1.000  O
  O38      1.0000 0.22830  0.92500  0.39230  Biso   1.000  O
  O39      1.0000 0.27380  0.91960  0.99740  Biso   1.000  O
  C49      1.0000 0.24470  0.92870  0.57050  Biso   1.000  C
  C50      1.0000 0.20640  0.88050  0.71670  Biso   1.000  C
  C51      1.0000 0.22020  0.87900  0.90610  Biso   1.000  C
  C52      1.0000 0.18070  0.83140  0.02770  Biso   1.000  C
  H13      1.0000 0.19400  0.83030  0.15300  Biso   1.000  H
  Zn14     1.0000 0.01907  0.30213  0.19783  Biso   1.000  Zn
  O40      1.0000 0.96107  0.30063  0.97153  Biso   1.000  O
  O41      1.0000 0.89497  0.25833  0.72563  Biso   1.000  O
  O42      1.0000 0.94047  0.25293  0.33073  Biso   1.000  O
  C53      1.0000 0.91137  0.26203  0.90383  Biso   1.000  C
  C54      1.0000 0.87307  0.21383  0.05003  Biso   1.000  C
  C55      1.0000 0.88687  0.21233  0.23943  Biso   1.000  C
  C56      1.0000 0.84737  0.16473  0.36103  Biso   1.000  C
  H14      1.0000 0.86067  0.16363  0.48633  Biso   1.000  H
  Zn15     1.0000 0.68573  0.63547  0.53117  Biso   1.000  Zn
  O43      1.0000 0.62773  0.63397  0.30487  Biso   1.000  O
  O44      1.0000 0.56163  0.59167  0.05897  Biso   1.000  O
  O45      1.0000 0.60713  0.58627  0.66407  Biso   1.000  O
  C57      1.0000 0.57803  0.59537  0.23717  Biso   1.000  C
  C58      1.0000 0.53973  0.54717  0.38337  Biso   1.000  C
  C59      1.0000 0.55353  0.54567  0.57277  Biso   1.000  C
  C60      1.0000 0.51403  0.49807  0.69437  Biso   1.000  C
  H15      1.0000 0.52733  0.49697  0.81967  Biso   1.000  H
  Zn16     1.0000 0.03120  0.38360  0.86450  Biso   1.000  Zn
  O46      1.0000 0.03270  0.32710  0.63820  Biso   1.000  O
  O47      1.0000 0.07500  0.30330  0.39230  Biso   1.000  O
  O48      1.0000 0.08040  0.35420  0.99740  Biso   1.000  O
  C61      1.0000 0.07130  0.31600  0.57050  Biso   1.000  C
  C62      1.0000 0.11950  0.32590  0.71670  Biso   1.000  C
  C63      1.0000 0.12100  0.34120  0.90610  Biso   1.000  C
  C64      1.0000 0.16860  0.34930  0.02770  Biso   1.000  C
  H16      1.0000 0.16970  0.36370  0.15300  Biso   1.000  H
  Zn17     1.0000 0.69787  0.71693  0.19783  Biso   1.000  Zn
  O49      1.0000 0.69937  0.66043  0.97153  Biso   1.000  O
  O50      1.0000 0.74167  0.63663  0.72563  Biso   1.000  O
  O51      1.0000 0.74707  0.68753  0.33073  Biso   1.000  O
  C65      1.0000 0.73797  0.64933  0.90383  Biso   1.000  C
  C66      1.0000 0.78617  0.65923  0.05003  Biso   1.000  C
  C67      1.0000 0.78767  0.67453  0.23943  Biso   1.000  C
  C68      1.0000 0.83527  0.68263  0.36103  Biso   1.000  C
  H17      1.0000 0.83637  0.69703  0.48633  Biso   1.000  H
  Zn18     1.0000 0.36453  0.05027  0.53117  Biso   1.000  Zn
  O52      1.0000 0.36603  0.99377  0.30487  Biso   1.000  O
  O53      1.0000 0.40833  0.96997  0.05897  Biso   1.000  O
  O54      1.0000 0.41373  0.02087  0.66407  Biso   1.000  O
  C69      1.0000 0.40463  0.98267  0.23717  Biso   1.000  C
  C70      1.0000 0.45283  0.99257  0.38337  Biso   1.000  C
  C71      1.0000 0.45433  0.00787  0.57277  Biso   1.000  C
  C72      1.0000 0.50193  0.01597  0.69437  Biso   1.000  C
  H18      1.0000 0.50303  0.03037  0.81967  Biso   1.000  H
