data_image0
_cell_length_a       7.6333
_cell_length_b       24.1332
_cell_length_c       30.5291
_cell_angle_alpha    90
_cell_angle_beta     93.505
_cell_angle_gamma    90

_symmetry_space_group_name_H-M    "P 1"
_symmetry_int_tables_number       1

loop_
  _symmetry_equiv_pos_as_xyz
  'x, y, z'

loop_
  _atom_site_label
  _atom_site_occupancy
  _atom_site_fract_x
  _atom_site_fract_y
  _atom_site_fract_z
  _atom_site_thermal_displace_type
  _atom_site_B_iso_or_equiv
  _atom_site_type_symbol
  O1       1.0000 0.53890  0.91441  0.19453  Biso   1.000  O
  O2       1.0000 0.75640  0.87886  0.23327  Biso   1.000  O
  O3       1.0000 0.09020  0.27080  0.20450  Biso   1.000  O
  O4       1.0000 0.83530  0.30850  0.19777  Biso   1.000  O
  N1       1.0000 0.28110  0.94956  0.00132  Biso   1.000  N
  N2       1.0000 0.44500  0.03346  0.06024  Biso   1.000  N
  C1       1.0000 0.94080  0.27230  0.18750  Biso   1.000  C
  C2       1.0000 0.75950  0.14640  0.09650  Biso   1.000  C
  C3       1.0000 0.98810  0.18310  0.14620  Biso   1.000  C
  H1       1.0000 0.10030  0.17940  0.16040  Biso   1.000  H
  C4       1.0000 0.88540  0.23010  0.15410  Biso   1.000  C
  C5       1.0000 0.31020  0.01600  0.08561  Biso   1.000  C
  C6       1.0000 0.72570  0.23450  0.13210  Biso   1.000  C
  H2       1.0000 0.65660  0.26590  0.13680  Biso   1.000  H
  C7       1.0000 0.92400  0.14220  0.11770  Biso   1.000  C
  H3       1.0000 0.99370  0.11100  0.11270  Biso   1.000  H
  C8       1.0000 0.53710  0.07410  0.08213  Biso   1.000  C
  C9       1.0000 0.82470  0.92900  0.16951  Biso   1.000  C
  C10      1.0000 0.06160  0.96110  0.10877  Biso   1.000  C
  C11      1.0000 0.17330  0.94450  0.03609  Biso   1.000  C
  C12      1.0000 0.88510  0.97390  0.10216  Biso   1.000  C
  H4       1.0000 0.84480  0.99310  0.07670  Biso   1.000  H
  C13      1.0000 0.00320  0.91690  0.17663  Biso   1.000  C
  H5       1.0000 0.04420  0.89760  0.20200  Biso   1.000  H
  C14      1.0000 0.76720  0.95840  0.13293  Biso   1.000  C
  H6       1.0000 0.64810  0.96800  0.12860  Biso   1.000  H
  C15      1.0000 0.68660  0.10170  0.06771  Biso   1.000  C
  C16      1.0000 0.66120  0.19420  0.10320  Biso   1.000  C
  H7       1.0000 0.55130  0.19900  0.08810  Biso   1.000  H
  C17      1.0000 0.46070  0.08310  0.12355  Biso   1.000  C
  H8       1.0000 0.49860  0.10870  0.14530  Biso   1.000  H
  C18      1.0000 0.18810  0.97530  0.07453  Biso   1.000  C
  C19      1.0000 0.23270  0.90920  0.97168  Biso   1.000  C
  C20      1.0000 0.32380  0.04750  0.12507  Biso   1.000  C
  H9       1.0000 0.24960  0.04430  0.14840  Biso   1.000  H
  C21      1.0000 0.08470  0.87910  0.98670  Biso   1.000  C
  H10      1.0000 0.02410  0.84990  0.97200  Biso   1.000  H
  C22      1.0000 0.05060  0.90080  0.02570  Biso   1.000  C
  H11      1.0000 0.96080  0.88920  0.04340  Biso   1.000  H
  C23      1.0000 0.11920  0.93350  0.14602  Biso   1.000  C
  H12      1.0000 0.23940  0.92570  0.15090  Biso   1.000  H
  C24      1.0000 0.69730  0.90740  0.20137  Biso   1.000  C
  O5       1.0000 0.03890  0.41441  0.19453  Biso   1.000  O
  O6       1.0000 0.25640  0.37886  0.23327  Biso   1.000  O
  O7       1.0000 0.59020  0.77080  0.20450  Biso   1.000  O
  O8       1.0000 0.33530  0.80850  0.19777  Biso   1.000  O
  N3       1.0000 0.78110  0.44956  0.00132  Biso   1.000  N
  N4       1.0000 0.94500  0.53346  0.06024  Biso   1.000  N
  C25      1.0000 0.44080  0.77230  0.18750  Biso   1.000  C
  C26      1.0000 0.25950  0.64640  0.09650  Biso   1.000  C
  C27      1.0000 0.48810  0.68310  0.14620  Biso   1.000  C
  H13      1.0000 0.60030  0.67940  0.16040  Biso   1.000  H
  C28      1.0000 0.38540  0.73010  0.15410  Biso   1.000  C
  C29      1.0000 0.81020  0.51600  0.08561  Biso   1.000  C
  C30      1.0000 0.22570  0.73450  0.13210  Biso   1.000  C
  H14      1.0000 0.15660  0.76590  0.13680  Biso   1.000  H
  C31      1.0000 0.42400  0.64220  0.11770  Biso   1.000  C
  H15      1.0000 0.49370  0.61100  0.11270  Biso   1.000  H
  C32      1.0000 0.03710  0.57410  0.08213  Biso   1.000  C
  C33      1.0000 0.32470  0.42900  0.16951  Biso   1.000  C
  C34      1.0000 0.56160  0.46110  0.10877  Biso   1.000  C
  C35      1.0000 0.67330  0.44450  0.03609  Biso   1.000  C
  C36      1.0000 0.38510  0.47390  0.10216  Biso   1.000  C
  H16      1.0000 0.34480  0.49310  0.07670  Biso   1.000  H
  C37      1.0000 0.50320  0.41690  0.17663  Biso   1.000  C
  H17      1.0000 0.54420  0.39760  0.20200  Biso   1.000  H
  C38      1.0000 0.26720  0.45840  0.13293  Biso   1.000  C
  H18      1.0000 0.14810  0.46800  0.12860  Biso   1.000  H
  C39      1.0000 0.18660  0.60170  0.06771  Biso   1.000  C
  C40      1.0000 0.16120  0.69420  0.10320  Biso   1.000  C
  H19      1.0000 0.05130  0.69900  0.08810  Biso   1.000  H
  C41      1.0000 0.96070  0.58310  0.12355  Biso   1.000  C
  H20      1.0000 0.99860  0.60870  0.14530  Biso   1.000  H
  C42      1.0000 0.68810  0.47530  0.07453  Biso   1.000  C
  C43      1.0000 0.73270  0.40920  0.97168  Biso   1.000  C
  C44      1.0000 0.82380  0.54750  0.12507  Biso   1.000  C
  H21      1.0000 0.74960  0.54430  0.14840  Biso   1.000  H
  C45      1.0000 0.58470  0.37910  0.98670  Biso   1.000  C
  H22      1.0000 0.52410  0.34990  0.97200  Biso   1.000  H
  C46      1.0000 0.55060  0.40080  0.02570  Biso   1.000  C
  H23      1.0000 0.46080  0.38920  0.04340  Biso   1.000  H
  C47      1.0000 0.61920  0.43350  0.14602  Biso   1.000  C
  H24      1.0000 0.73940  0.42570  0.15090  Biso   1.000  H
  C48      1.0000 0.19730  0.40740  0.20137  Biso   1.000  C
  O9       1.0000 0.46110  0.91441  0.30547  Biso   1.000  O
  O10      1.0000 0.24360  0.87886  0.26673  Biso   1.000  O
  O11      1.0000 0.90980  0.27080  0.29550  Biso   1.000  O
  O12      1.0000 0.16470  0.30850  0.30223  Biso   1.000  O
  N5       1.0000 0.71890  0.94956  0.49868  Biso   1.000  N
  N6       1.0000 0.55500  0.03346  0.43976  Biso   1.000  N
  C49      1.0000 0.05920  0.27230  0.31250  Biso   1.000  C
  C50      1.0000 0.24050  0.14640  0.40350  Biso   1.000  C
  C51      1.0000 0.01190  0.18310  0.35380  Biso   1.000  C
  H25      1.0000 0.89970  0.17940  0.33960  Biso   1.000  H
  C52      1.0000 0.11460  0.23010  0.34590  Biso   1.000  C
  C53      1.0000 0.68980  0.01600  0.41439  Biso   1.000  C
  C54      1.0000 0.27430  0.23450  0.36790  Biso   1.000  C
  H26      1.0000 0.34340  0.26590  0.36320  Biso   1.000  H
  C55      1.0000 0.07600  0.14220  0.38230  Biso   1.000  C
  H27      1.0000 0.00630  0.11100  0.38730  Biso   1.000  H
  C56      1.0000 0.46290  0.07410  0.41787  Biso   1.000  C
  C57      1.0000 0.17530  0.92900  0.33049  Biso   1.000  C
  C58      1.0000 0.93840  0.96110  0.39123  Biso   1.000  C
  C59      1.0000 0.82670  0.94450  0.46391  Biso   1.000  C
  C60      1.0000 0.11490  0.97390  0.39784  Biso   1.000  C
  H28      1.0000 0.15520  0.99310  0.42330  Biso   1.000  H
  C61      1.0000 0.99680  0.91690  0.32337  Biso   1.000  C
  H29      1.0000 0.95580  0.89760  0.29800  Biso   1.000  H
  C62      1.0000 0.23280  0.95840  0.36707  Biso   1.000  C
  H30      1.0000 0.35190  0.96800  0.37140  Biso   1.000  H
  C63      1.0000 0.31340  0.10170  0.43229  Biso   1.000  C
  C64      1.0000 0.33880  0.19420  0.39680  Biso   1.000  C
  H31      1.0000 0.44870  0.19900  0.41190  Biso   1.000  H
  C65      1.0000 0.53930  0.08310  0.37645  Biso   1.000  C
  H32      1.0000 0.50140  0.10870  0.35470  Biso   1.000  H
  C66      1.0000 0.81190  0.97530  0.42547  Biso   1.000  C
  C67      1.0000 0.76730  0.90920  0.52832  Biso   1.000  C
  C68      1.0000 0.67620  0.04750  0.37493  Biso   1.000  C
  H33      1.0000 0.75040  0.04430  0.35160  Biso   1.000  H
  C69      1.0000 0.91530  0.87910  0.51330  Biso   1.000  C
  H34      1.0000 0.97590  0.84990  0.52800  Biso   1.000  H
  C70      1.0000 0.94940  0.90080  0.47430  Biso   1.000  C
  H35      1.0000 0.03920  0.88920  0.45660  Biso   1.000  H
  C71      1.0000 0.88080  0.93350  0.35398  Biso   1.000  C
  H36      1.0000 0.76060  0.92570  0.34910  Biso   1.000  H
  C72      1.0000 0.30270  0.90740  0.29863  Biso   1.000  C
  O13      1.0000 0.96110  0.41441  0.30547  Biso   1.000  O
  O14      1.0000 0.74360  0.37886  0.26673  Biso   1.000  O
  O15      1.0000 0.40980  0.77080  0.29550  Biso   1.000  O
  O16      1.0000 0.66470  0.80850  0.30223  Biso   1.000  O
  N7       1.0000 0.21890  0.44956  0.49868  Biso   1.000  N
  N8       1.0000 0.05500  0.53346  0.43976  Biso   1.000  N
  C73      1.0000 0.55920  0.77230  0.31250  Biso   1.000  C
  C74      1.0000 0.74050  0.64640  0.40350  Biso   1.000  C
  C75      1.0000 0.51190  0.68310  0.35380  Biso   1.000  C
  H37      1.0000 0.39970  0.67940  0.33960  Biso   1.000  H
  C76      1.0000 0.61460  0.73010  0.34590  Biso   1.000  C
  C77      1.0000 0.18980  0.51600  0.41439  Biso   1.000  C
  C78      1.0000 0.77430  0.73450  0.36790  Biso   1.000  C
  H38      1.0000 0.84340  0.76590  0.36320  Biso   1.000  H
  C79      1.0000 0.57600  0.64220  0.38230  Biso   1.000  C
  H39      1.0000 0.50630  0.61100  0.38730  Biso   1.000  H
  C80      1.0000 0.96290  0.57410  0.41787  Biso   1.000  C
  C81      1.0000 0.67530  0.42900  0.33049  Biso   1.000  C
  C82      1.0000 0.43840  0.46110  0.39123  Biso   1.000  C
  C83      1.0000 0.32670  0.44450  0.46391  Biso   1.000  C
  C84      1.0000 0.61490  0.47390  0.39784  Biso   1.000  C
  H40      1.0000 0.65520  0.49310  0.42330  Biso   1.000  H
  C85      1.0000 0.49680  0.41690  0.32337  Biso   1.000  C
  H41      1.0000 0.45580  0.39760  0.29800  Biso   1.000  H
  C86      1.0000 0.73280  0.45840  0.36707  Biso   1.000  C
  H42      1.0000 0.85190  0.46800  0.37140  Biso   1.000  H
  C87      1.0000 0.81340  0.60170  0.43229  Biso   1.000  C
  C88      1.0000 0.83880  0.69420  0.39680  Biso   1.000  C
  H43      1.0000 0.94870  0.69900  0.41190  Biso   1.000  H
  C89      1.0000 0.03930  0.58310  0.37645  Biso   1.000  C
  H44      1.0000 0.00140  0.60870  0.35470  Biso   1.000  H
  C90      1.0000 0.31190  0.47530  0.42547  Biso   1.000  C
  C91      1.0000 0.26730  0.40920  0.52832  Biso   1.000  C
  C92      1.0000 0.17620  0.54750  0.37493  Biso   1.000  C
  H45      1.0000 0.25040  0.54430  0.35160  Biso   1.000  H
  C93      1.0000 0.41530  0.37910  0.51330  Biso   1.000  C
  H46      1.0000 0.47590  0.34990  0.52800  Biso   1.000  H
  C94      1.0000 0.44940  0.40080  0.47430  Biso   1.000  C
  H47      1.0000 0.53920  0.38920  0.45660  Biso   1.000  H
  C95      1.0000 0.38080  0.43350  0.35398  Biso   1.000  C
  H48      1.0000 0.26060  0.42570  0.34910  Biso   1.000  H
  C96      1.0000 0.80270  0.40740  0.29863  Biso   1.000  C
  O17      1.0000 0.46110  0.08559  0.80547  Biso   1.000  O
  O18      1.0000 0.24360  0.12114  0.76673  Biso   1.000  O
  O19      1.0000 0.90980  0.72920  0.79550  Biso   1.000  O
  O20      1.0000 0.16470  0.69150  0.80223  Biso   1.000  O
  N9       1.0000 0.71890  0.05044  0.99868  Biso   1.000  N
  N10      1.0000 0.55500  0.96654  0.93976  Biso   1.000  N
  C97      1.0000 0.05920  0.72770  0.81250  Biso   1.000  C
  C98      1.0000 0.24050  0.85360  0.90350  Biso   1.000  C
  C99      1.0000 0.01190  0.81690  0.85380  Biso   1.000  C
  H49      1.0000 0.89970  0.82060  0.83960  Biso   1.000  H
  C100     1.0000 0.11460  0.76990  0.84590  Biso   1.000  C
  C101     1.0000 0.68980  0.98400  0.91439  Biso   1.000  C
  C102     1.0000 0.27430  0.76550  0.86790  Biso   1.000  C
  H50      1.0000 0.34340  0.73410  0.86320  Biso   1.000  H
  C103     1.0000 0.07600  0.85780  0.88230  Biso   1.000  C
  H51      1.0000 0.00630  0.88900  0.88730  Biso   1.000  H
  C104     1.0000 0.46290  0.92590  0.91787  Biso   1.000  C
  C105     1.0000 0.17530  0.07100  0.83049  Biso   1.000  C
  C106     1.0000 0.93840  0.03890  0.89123  Biso   1.000  C
  C107     1.0000 0.82670  0.05550  0.96391  Biso   1.000  C
  C108     1.0000 0.11490  0.02610  0.89784  Biso   1.000  C
  H52      1.0000 0.15520  0.00690  0.92330  Biso   1.000  H
  C109     1.0000 0.99680  0.08310  0.82337  Biso   1.000  C
  H53      1.0000 0.95580  0.10240  0.79800  Biso   1.000  H
  C110     1.0000 0.23280  0.04160  0.86707  Biso   1.000  C
  H54      1.0000 0.35190  0.03200  0.87140  Biso   1.000  H
  C111     1.0000 0.31340  0.89830  0.93229  Biso   1.000  C
  C112     1.0000 0.33880  0.80580  0.89680  Biso   1.000  C
  H55      1.0000 0.44870  0.80100  0.91190  Biso   1.000  H
  C113     1.0000 0.53930  0.91690  0.87645  Biso   1.000  C
  H56      1.0000 0.50140  0.89130  0.85470  Biso   1.000  H
  C114     1.0000 0.81190  0.02470  0.92547  Biso   1.000  C
  C115     1.0000 0.76730  0.09080  0.02832  Biso   1.000  C
  C116     1.0000 0.67620  0.95250  0.87493  Biso   1.000  C
  H57      1.0000 0.75040  0.95570  0.85160  Biso   1.000  H
  C117     1.0000 0.91530  0.12090  0.01330  Biso   1.000  C
  H58      1.0000 0.97590  0.15010  0.02800  Biso   1.000  H
  C118     1.0000 0.94940  0.09920  0.97430  Biso   1.000  C
  H59      1.0000 0.03920  0.11080  0.95660  Biso   1.000  H
  C119     1.0000 0.88080  0.06650  0.85398  Biso   1.000  C
  H60      1.0000 0.76060  0.07430  0.84910  Biso   1.000  H
  C120     1.0000 0.30270  0.09260  0.79863  Biso   1.000  C
  O21      1.0000 0.96110  0.58559  0.80547  Biso   1.000  O
  O22      1.0000 0.74360  0.62114  0.76673  Biso   1.000  O
  O23      1.0000 0.40980  0.22920  0.79550  Biso   1.000  O
  O24      1.0000 0.66470  0.19150  0.80223  Biso   1.000  O
  N11      1.0000 0.21890  0.55044  0.99868  Biso   1.000  N
  N12      1.0000 0.05500  0.46654  0.93976  Biso   1.000  N
  C121     1.0000 0.55920  0.22770  0.81250  Biso   1.000  C
  C122     1.0000 0.74050  0.35360  0.90350  Biso   1.000  C
  C123     1.0000 0.51190  0.31690  0.85380  Biso   1.000  C
  H61      1.0000 0.39970  0.32060  0.83960  Biso   1.000  H
  C124     1.0000 0.61460  0.26990  0.84590  Biso   1.000  C
  C125     1.0000 0.18980  0.48400  0.91439  Biso   1.000  C
  C126     1.0000 0.77430  0.26550  0.86790  Biso   1.000  C
  H62      1.0000 0.84340  0.23410  0.86320  Biso   1.000  H
  C127     1.0000 0.57600  0.35780  0.88230  Biso   1.000  C
  H63      1.0000 0.50630  0.38900  0.88730  Biso   1.000  H
  C128     1.0000 0.96290  0.42590  0.91787  Biso   1.000  C
  C129     1.0000 0.67530  0.57100  0.83049  Biso   1.000  C
  C130     1.0000 0.43840  0.53890  0.89123  Biso   1.000  C
  C131     1.0000 0.32670  0.55550  0.96391  Biso   1.000  C
  C132     1.0000 0.61490  0.52610  0.89784  Biso   1.000  C
  H64      1.0000 0.65520  0.50690  0.92330  Biso   1.000  H
  C133     1.0000 0.49680  0.58310  0.82337  Biso   1.000  C
  H65      1.0000 0.45580  0.60240  0.79800  Biso   1.000  H
  C134     1.0000 0.73280  0.54160  0.86707  Biso   1.000  C
  H66      1.0000 0.85190  0.53200  0.87140  Biso   1.000  H
  C135     1.0000 0.81340  0.39830  0.93229  Biso   1.000  C
  C136     1.0000 0.83880  0.30580  0.89680  Biso   1.000  C
  H67      1.0000 0.94870  0.30100  0.91190  Biso   1.000  H
  C137     1.0000 0.03930  0.41690  0.87645  Biso   1.000  C
  H68      1.0000 0.00140  0.39130  0.85470  Biso   1.000  H
  C138     1.0000 0.31190  0.52470  0.92547  Biso   1.000  C
  C139     1.0000 0.26730  0.59080  0.02832  Biso   1.000  C
  C140     1.0000 0.17620  0.45250  0.87493  Biso   1.000  C
  H69      1.0000 0.25040  0.45570  0.85160  Biso   1.000  H
  C141     1.0000 0.41530  0.62090  0.01330  Biso   1.000  C
  H70      1.0000 0.47590  0.65010  0.02800  Biso   1.000  H
  C142     1.0000 0.44940  0.59920  0.97430  Biso   1.000  C
  H71      1.0000 0.53920  0.61080  0.95660  Biso   1.000  H
  C143     1.0000 0.38080  0.56650  0.85398  Biso   1.000  C
  H72      1.0000 0.26060  0.57430  0.84910  Biso   1.000  H
  C144     1.0000 0.80270  0.59260  0.79863  Biso   1.000  C
  O25      1.0000 0.53890  0.08559  0.69453  Biso   1.000  O
  O26      1.0000 0.75640  0.12114  0.73327  Biso   1.000  O
  O27      1.0000 0.09020  0.72920  0.70450  Biso   1.000  O
  O28      1.0000 0.83530  0.69150  0.69777  Biso   1.000  O
  N13      1.0000 0.28110  0.05044  0.50132  Biso   1.000  N
  N14      1.0000 0.44500  0.96654  0.56024  Biso   1.000  N
  C145     1.0000 0.94080  0.72770  0.68750  Biso   1.000  C
  C146     1.0000 0.75950  0.85360  0.59650  Biso   1.000  C
  C147     1.0000 0.98810  0.81690  0.64620  Biso   1.000  C
  H73      1.0000 0.10030  0.82060  0.66040  Biso   1.000  H
  C148     1.0000 0.88540  0.76990  0.65410  Biso   1.000  C
  C149     1.0000 0.31020  0.98400  0.58561  Biso   1.000  C
  C150     1.0000 0.72570  0.76550  0.63210  Biso   1.000  C
  H74      1.0000 0.65660  0.73410  0.63680  Biso   1.000  H
  C151     1.0000 0.92400  0.85780  0.61770  Biso   1.000  C
  H75      1.0000 0.99370  0.88900  0.61270  Biso   1.000  H
  C152     1.0000 0.53710  0.92590  0.58213  Biso   1.000  C
  C153     1.0000 0.82470  0.07100  0.66951  Biso   1.000  C
  C154     1.0000 0.06160  0.03890  0.60877  Biso   1.000  C
  C155     1.0000 0.17330  0.05550  0.53609  Biso   1.000  C
  C156     1.0000 0.88510  0.02610  0.60216  Biso   1.000  C
  H76      1.0000 0.84480  0.00690  0.57670  Biso   1.000  H
  C157     1.0000 0.00320  0.08310  0.67663  Biso   1.000  C
  H77      1.0000 0.04420  0.10240  0.70200  Biso   1.000  H
  C158     1.0000 0.76720  0.04160  0.63293  Biso   1.000  C
  H78      1.0000 0.64810  0.03200  0.62860  Biso   1.000  H
  C159     1.0000 0.68660  0.89830  0.56771  Biso   1.000  C
  C160     1.0000 0.66120  0.80580  0.60320  Biso   1.000  C
  H79      1.0000 0.55130  0.80100  0.58810  Biso   1.000  H
  C161     1.0000 0.46070  0.91690  0.62355  Biso   1.000  C
  H80      1.0000 0.49860  0.89130  0.64530  Biso   1.000  H
  C162     1.0000 0.18810  0.02470  0.57453  Biso   1.000  C
  C163     1.0000 0.23270  0.09080  0.47168  Biso   1.000  C
  C164     1.0000 0.32380  0.95250  0.62507  Biso   1.000  C
  H81      1.0000 0.24960  0.95570  0.64840  Biso   1.000  H
  C165     1.0000 0.08470  0.12090  0.48670  Biso   1.000  C
  H82      1.0000 0.02410  0.15010  0.47200  Biso   1.000  H
  C166     1.0000 0.05060  0.09920  0.52570  Biso   1.000  C
  H83      1.0000 0.96080  0.11080  0.54340  Biso   1.000  H
  C167     1.0000 0.11920  0.06650  0.64602  Biso   1.000  C
  H84      1.0000 0.23940  0.07430  0.65090  Biso   1.000  H
  C168     1.0000 0.69730  0.09260  0.70137  Biso   1.000  C
  O29      1.0000 0.03890  0.58559  0.69453  Biso   1.000  O
  O30      1.0000 0.25640  0.62114  0.73327  Biso   1.000  O
  O31      1.0000 0.59020  0.22920  0.70450  Biso   1.000  O
  O32      1.0000 0.33530  0.19150  0.69777  Biso   1.000  O
  N15      1.0000 0.78110  0.55044  0.50132  Biso   1.000  N
  N16      1.0000 0.94500  0.46654  0.56024  Biso   1.000  N
  C169     1.0000 0.44080  0.22770  0.68750  Biso   1.000  C
  C170     1.0000 0.25950  0.35360  0.59650  Biso   1.000  C
  C171     1.0000 0.48810  0.31690  0.64620  Biso   1.000  C
  H85      1.0000 0.60030  0.32060  0.66040  Biso   1.000  H
  C172     1.0000 0.38540  0.26990  0.65410  Biso   1.000  C
  C173     1.0000 0.81020  0.48400  0.58561  Biso   1.000  C
  C174     1.0000 0.22570  0.26550  0.63210  Biso   1.000  C
  H86      1.0000 0.15660  0.23410  0.63680  Biso   1.000  H
  C175     1.0000 0.42400  0.35780  0.61770  Biso   1.000  C
  H87      1.0000 0.49370  0.38900  0.61270  Biso   1.000  H
  C176     1.0000 0.03710  0.42590  0.58213  Biso   1.000  C
  C177     1.0000 0.32470  0.57100  0.66951  Biso   1.000  C
  C178     1.0000 0.56160  0.53890  0.60877  Biso   1.000  C
  C179     1.0000 0.67330  0.55550  0.53609  Biso   1.000  C
  C180     1.0000 0.38510  0.52610  0.60216  Biso   1.000  C
  H88      1.0000 0.34480  0.50690  0.57670  Biso   1.000  H
  C181     1.0000 0.50320  0.58310  0.67663  Biso   1.000  C
  H89      1.0000 0.54420  0.60240  0.70200  Biso   1.000  H
  C182     1.0000 0.26720  0.54160  0.63293  Biso   1.000  C
  H90      1.0000 0.14810  0.53200  0.62860  Biso   1.000  H
  C183     1.0000 0.18660  0.39830  0.56771  Biso   1.000  C
  C184     1.0000 0.16120  0.30580  0.60320  Biso   1.000  C
  H91      1.0000 0.05130  0.30100  0.58810  Biso   1.000  H
  C185     1.0000 0.96070  0.41690  0.62355  Biso   1.000  C
  H92      1.0000 0.99860  0.39130  0.64530  Biso   1.000  H
  C186     1.0000 0.68810  0.52470  0.57453  Biso   1.000  C
  C187     1.0000 0.73270  0.59080  0.47168  Biso   1.000  C
  C188     1.0000 0.82380  0.45250  0.62507  Biso   1.000  C
  H93      1.0000 0.74960  0.45570  0.64840  Biso   1.000  H
  C189     1.0000 0.58470  0.62090  0.48670  Biso   1.000  C
  H94      1.0000 0.52410  0.65010  0.47200  Biso   1.000  H
  C190     1.0000 0.55060  0.59920  0.52570  Biso   1.000  C
  H95      1.0000 0.46080  0.61080  0.54340  Biso   1.000  H
  C191     1.0000 0.61920  0.56650  0.64602  Biso   1.000  C
  H96      1.0000 0.73940  0.57430  0.65090  Biso   1.000  H
  C192     1.0000 0.19730  0.59260  0.70137  Biso   1.000  C
  In1      1.0000 0.50000  0.84883  0.25000  Biso   1.000  In
  In2      1.0000 0.00000  0.34883  0.25000  Biso   1.000  In
  In3      1.0000 0.50000  0.15117  0.75000  Biso   1.000  In
  In4      1.0000 0.00000  0.65117  0.75000  Biso   1.000  In
  In5      1.0000 0.50000  0.00000  0.00000  Biso   1.000  In
  In6      1.0000 0.00000  0.50000  0.00000  Biso   1.000  In
  In7      1.0000 0.50000  0.00000  0.50000  Biso   1.000  In
  In8      1.0000 0.00000  0.50000  0.50000  Biso   1.000  In
