data_image0
_cell_length_a       17.554
_cell_length_b       28.815
_cell_length_c       8.4209
_cell_angle_alpha    90
_cell_angle_beta     108.753
_cell_angle_gamma    90

_symmetry_space_group_name_H-M    "P 1"
_symmetry_int_tables_number       1

loop_
  _symmetry_equiv_pos_as_xyz
  'x, y, z'

loop_
  _atom_site_label
  _atom_site_occupancy
  _atom_site_fract_x
  _atom_site_fract_y
  _atom_site_fract_z
  _atom_site_thermal_displace_type
  _atom_site_B_iso_or_equiv
  _atom_site_type_symbol
  Co1      1.0000 0.32240  0.21697  0.34476  Biso   1.000  Co
  Cl1      1.0000 0.14613  0.00008  0.60507  Biso   1.000  Cl
  O1       1.0000 0.19401  0.29419  0.92980  Biso   1.000  O
  O2       1.0000 0.01838  0.28384  0.81770  Biso   1.000  O
  O3       1.0000 0.29094  0.26464  0.14580  Biso   1.000  O
  O4       1.0000 0.94142  0.25444  0.95890  Biso   1.000  O
  N1       1.0000 0.19310  0.20123  0.21500  Biso   1.000  N
  N2       1.0000 0.06050  0.19995  0.14890  Biso   1.000  N
  C1       1.0000 0.14120  0.05276  0.49880  Biso   1.000  C
  C2       1.0000 0.20080  0.10703  0.35850  Biso   1.000  C
  H1       1.0000 0.24240  0.11560  0.31860  Biso   1.000  H
  C3       1.0000 0.13380  0.13606  0.33230  Biso   1.000  C
  C4       1.0000 0.20500  0.06538  0.44410  Biso   1.000  C
  H2       1.0000 0.24980  0.04630  0.46450  Biso   1.000  H
  C5       1.0000 0.00780  0.26043  0.93590  Biso   1.000  C
  C6       1.0000 0.07810  0.23554  0.05770  Biso   1.000  C
  C7       1.0000 0.07430  0.08057  0.47160  Biso   1.000  C
  H3       1.0000 0.03190  0.07120  0.50770  Biso   1.000  H
  C8       1.0000 0.13010  0.17956  0.23840  Biso   1.000  C
  C9       1.0000 0.21840  0.26696  0.05420  Biso   1.000  C
  C10      1.0000 0.07100  0.12279  0.38940  Biso   1.000  C
  H4       1.0000 0.02670  0.14220  0.37270  Biso   1.000  H
  C11      1.0000 0.16060  0.23602  0.10010  Biso   1.000  C
  Co2      1.0000 0.10503  0.28941  0.69993  Biso   1.000  Co
  Cl2      1.0000 0.86789  0.09290  0.91993  Biso   1.000  Cl
  O5       1.0000 0.28479  0.26417  0.49010  Biso   1.000  O
  O6       1.0000 0.35717  0.17093  0.54380  Biso   1.000  O
  O7       1.0000 0.35174  0.11768  0.73180  Biso   1.000  O
  O8       1.0000 0.19219  0.29758  0.57970  Biso   1.000  O
  N3       1.0000 0.14570  0.21704  0.68280  Biso   1.000  N
  C12      1.0000 0.25520  0.17654  0.67450  Biso   1.000  C
  C13      1.0000 0.07820  0.15498  0.79580  Biso   1.000  C
  C14      1.0000 0.02420  0.09714  0.93870  Biso   1.000  C
  H5       1.0000 0.03120  0.07140  0.00860  Biso   1.000  H
  N4       1.0000 0.21050  0.14984  0.74920  Biso   1.000  N
  C15      1.0000 0.94870  0.11709  0.87020  Biso   1.000  C
  C16      1.0000 0.00130  0.17331  0.72630  Biso   1.000  C
  H6       1.0000 0.99320  0.19820  0.65240  Biso   1.000  H
  C17      1.0000 0.93610  0.15493  0.76560  Biso   1.000  C
  H7       1.0000 0.88520  0.16800  0.72200  Biso   1.000  H
  C18      1.0000 0.14500  0.17476  0.74850  Biso   1.000  C
  C19      1.0000 0.23270  0.26232  0.56210  Biso   1.000  C
  C20      1.0000 0.21420  0.21819  0.63530  Biso   1.000  C
  C21      1.0000 0.32790  0.15378  0.64860  Biso   1.000  C
  C22      1.0000 0.08940  0.11630  0.90100  Biso   1.000  C
  H8       1.0000 0.14030  0.10330  0.94600  Biso   1.000  H
  Co3      1.0000 0.95415  0.57246  0.76618  Biso   1.000  Co
  Cl3      1.0000 0.36760  0.59271  0.41978  Biso   1.000  Cl
  O9       1.0000 0.90262  0.46981  0.40190  Biso   1.000  O
  O10      1.0000 0.99430  0.61752  0.61760  Biso   1.000  O
  H9       1.0000 0.03990  0.62640  0.66980  Biso   1.000  H
  O11      1.0000 0.00516  0.38722  0.47600  Biso   1.000  O
  O12      1.0000 0.08808  0.36289  0.72350  Biso   1.000  O
  O13      1.0000 0.89850  0.53275  0.55040  Biso   1.000  O
  N5       1.0000 0.04210  0.51584  0.78070  Biso   1.000  N
  C23      1.0000 0.16910  0.51873  0.02280  Biso   1.000  C
  C24      1.0000 0.28270  0.51653  0.27680  Biso   1.000  C
  H10      1.0000 0.31820  0.50000  0.36460  Biso   1.000  H
  N6       1.0000 0.11060  0.44986  0.84840  Biso   1.000  N
  C25      1.0000 0.04820  0.44071  0.70310  Biso   1.000  C
  C26      1.0000 0.29090  0.56435  0.26490  Biso   1.000  C
  C27      1.0000 0.24030  0.58971  0.13450  Biso   1.000  C
  H11      1.0000 0.24650  0.62170  0.12860  Biso   1.000  H
  C28      1.0000 0.18020  0.56658  0.01270  Biso   1.000  C
  H12      1.0000 0.14650  0.58310  0.92260  Biso   1.000  H
  C29      1.0000 0.22170  0.49394  0.15730  Biso   1.000  C
  H13      1.0000 0.21520  0.46210  0.16560  Biso   1.000  H
  C30      1.0000 0.10610  0.49541  0.88990  Biso   1.000  C
  C31      1.0000 0.93140  0.49525  0.52990  Biso   1.000  C
  C32      1.0000 0.00630  0.48243  0.66320  Biso   1.000  C
  C33      1.0000 0.04610  0.39377  0.62720  Biso   1.000  C
  Co4      1.0000 0.82240  0.71697  0.34476  Biso   1.000  Co
  Cl4      1.0000 0.64613  0.50008  0.60507  Biso   1.000  Cl
  O14      1.0000 0.69401  0.79419  0.92980  Biso   1.000  O
  O15      1.0000 0.51838  0.78384  0.81770  Biso   1.000  O
  O16      1.0000 0.79094  0.76464  0.14580  Biso   1.000  O
  O17      1.0000 0.44142  0.75444  0.95890  Biso   1.000  O
  N7       1.0000 0.69310  0.70123  0.21500  Biso   1.000  N
  N8       1.0000 0.56050  0.69995  0.14890  Biso   1.000  N
  C34      1.0000 0.64120  0.55276  0.49880  Biso   1.000  C
  C35      1.0000 0.70080  0.60703  0.35850  Biso   1.000  C
  H14      1.0000 0.74240  0.61560  0.31860  Biso   1.000  H
  C36      1.0000 0.63380  0.63606  0.33230  Biso   1.000  C
  C37      1.0000 0.70500  0.56538  0.44410  Biso   1.000  C
  H15      1.0000 0.74980  0.54630  0.46450  Biso   1.000  H
  C38      1.0000 0.50780  0.76043  0.93590  Biso   1.000  C
  C39      1.0000 0.57810  0.73554  0.05770  Biso   1.000  C
  C40      1.0000 0.57430  0.58057  0.47160  Biso   1.000  C
  H16      1.0000 0.53190  0.57120  0.50770  Biso   1.000  H
  C41      1.0000 0.63010  0.67956  0.23840  Biso   1.000  C
  C42      1.0000 0.71840  0.76696  0.05420  Biso   1.000  C
  C43      1.0000 0.57100  0.62279  0.38940  Biso   1.000  C
  H17      1.0000 0.52670  0.64220  0.37270  Biso   1.000  H
  C44      1.0000 0.66060  0.73602  0.10010  Biso   1.000  C
  Co5      1.0000 0.60503  0.78941  0.69993  Biso   1.000  Co
  Cl5      1.0000 0.36789  0.59290  0.91993  Biso   1.000  Cl
  O18      1.0000 0.78479  0.76417  0.49010  Biso   1.000  O
  O19      1.0000 0.85717  0.67093  0.54380  Biso   1.000  O
  O20      1.0000 0.85174  0.61768  0.73180  Biso   1.000  O
  O21      1.0000 0.69219  0.79758  0.57970  Biso   1.000  O
  N9       1.0000 0.64570  0.71704  0.68280  Biso   1.000  N
  C45      1.0000 0.75520  0.67654  0.67450  Biso   1.000  C
  C46      1.0000 0.57820  0.65498  0.79580  Biso   1.000  C
  C47      1.0000 0.52420  0.59714  0.93870  Biso   1.000  C
  H18      1.0000 0.53120  0.57140  0.00860  Biso   1.000  H
  N10      1.0000 0.71050  0.64984  0.74920  Biso   1.000  N
  C48      1.0000 0.44870  0.61709  0.87020  Biso   1.000  C
  C49      1.0000 0.50130  0.67331  0.72630  Biso   1.000  C
  H19      1.0000 0.49320  0.69820  0.65240  Biso   1.000  H
  C50      1.0000 0.43610  0.65493  0.76560  Biso   1.000  C
  H20      1.0000 0.38520  0.66800  0.72200  Biso   1.000  H
  C51      1.0000 0.64500  0.67476  0.74850  Biso   1.000  C
  C52      1.0000 0.73270  0.76232  0.56210  Biso   1.000  C
  C53      1.0000 0.71420  0.71819  0.63530  Biso   1.000  C
  C54      1.0000 0.82790  0.65378  0.64860  Biso   1.000  C
  C55      1.0000 0.58940  0.61630  0.90100  Biso   1.000  C
  H21      1.0000 0.64030  0.60330  0.94600  Biso   1.000  H
  Co6      1.0000 0.45415  0.07246  0.76618  Biso   1.000  Co
  Cl6      1.0000 0.86760  0.09271  0.41978  Biso   1.000  Cl
  O22      1.0000 0.40262  0.96981  0.40190  Biso   1.000  O
  O23      1.0000 0.49430  0.11752  0.61760  Biso   1.000  O
  H22      1.0000 0.53990  0.12640  0.66980  Biso   1.000  H
  O24      1.0000 0.50516  0.88722  0.47600  Biso   1.000  O
  O25      1.0000 0.58808  0.86289  0.72350  Biso   1.000  O
  O26      1.0000 0.39850  0.03275  0.55040  Biso   1.000  O
  N11      1.0000 0.54210  0.01584  0.78070  Biso   1.000  N
  C56      1.0000 0.66910  0.01873  0.02280  Biso   1.000  C
  C57      1.0000 0.78270  0.01653  0.27680  Biso   1.000  C
  H23      1.0000 0.81820  0.00000  0.36460  Biso   1.000  H
  N12      1.0000 0.61060  0.94986  0.84840  Biso   1.000  N
  C58      1.0000 0.54820  0.94071  0.70310  Biso   1.000  C
  C59      1.0000 0.79090  0.06435  0.26490  Biso   1.000  C
  C60      1.0000 0.74030  0.08971  0.13450  Biso   1.000  C
  H24      1.0000 0.74650  0.12170  0.12860  Biso   1.000  H
  C61      1.0000 0.68020  0.06658  0.01270  Biso   1.000  C
  H25      1.0000 0.64650  0.08310  0.92260  Biso   1.000  H
  C62      1.0000 0.72170  0.99394  0.15730  Biso   1.000  C
  H26      1.0000 0.71520  0.96210  0.16560  Biso   1.000  H
  C63      1.0000 0.60610  0.99541  0.88990  Biso   1.000  C
  C64      1.0000 0.43140  0.99525  0.52990  Biso   1.000  C
  C65      1.0000 0.50630  0.98243  0.66320  Biso   1.000  C
  C66      1.0000 0.54610  0.89377  0.62720  Biso   1.000  C
  Co7      1.0000 0.32240  0.78303  0.84476  Biso   1.000  Co
  Cl7      1.0000 0.14613  0.99992  0.10507  Biso   1.000  Cl
  O27      1.0000 0.19401  0.70581  0.42980  Biso   1.000  O
  O28      1.0000 0.01838  0.71616  0.31770  Biso   1.000  O
  O29      1.0000 0.29094  0.73536  0.64580  Biso   1.000  O
  O30      1.0000 0.94142  0.74556  0.45890  Biso   1.000  O
  N13      1.0000 0.19310  0.79877  0.71500  Biso   1.000  N
  N14      1.0000 0.06050  0.80005  0.64890  Biso   1.000  N
  C67      1.0000 0.14120  0.94724  0.99880  Biso   1.000  C
  C68      1.0000 0.20080  0.89297  0.85850  Biso   1.000  C
  H27      1.0000 0.24240  0.88440  0.81860  Biso   1.000  H
  C69      1.0000 0.13380  0.86394  0.83230  Biso   1.000  C
  C70      1.0000 0.20500  0.93462  0.94410  Biso   1.000  C
  H28      1.0000 0.24980  0.95370  0.96450  Biso   1.000  H
  C71      1.0000 0.00780  0.73957  0.43590  Biso   1.000  C
  C72      1.0000 0.07810  0.76446  0.55770  Biso   1.000  C
  C73      1.0000 0.07430  0.91943  0.97160  Biso   1.000  C
  H29      1.0000 0.03190  0.92880  0.00770  Biso   1.000  H
  C74      1.0000 0.13010  0.82044  0.73840  Biso   1.000  C
  C75      1.0000 0.21840  0.73304  0.55420  Biso   1.000  C
  C76      1.0000 0.07100  0.87721  0.88940  Biso   1.000  C
  H30      1.0000 0.02670  0.85780  0.87270  Biso   1.000  H
  C77      1.0000 0.16060  0.76398  0.60010  Biso   1.000  C
  Co8      1.0000 0.10503  0.71059  0.19993  Biso   1.000  Co
  Cl8      1.0000 0.86789  0.90710  0.41993  Biso   1.000  Cl
  O31      1.0000 0.28479  0.73583  0.99010  Biso   1.000  O
  O32      1.0000 0.35717  0.82907  0.04380  Biso   1.000  O
  O33      1.0000 0.35174  0.88232  0.23180  Biso   1.000  O
  O34      1.0000 0.19219  0.70242  0.07970  Biso   1.000  O
  N15      1.0000 0.14570  0.78296  0.18280  Biso   1.000  N
  C78      1.0000 0.25520  0.82346  0.17450  Biso   1.000  C
  C79      1.0000 0.07820  0.84502  0.29580  Biso   1.000  C
  C80      1.0000 0.02420  0.90286  0.43870  Biso   1.000  C
  H31      1.0000 0.03120  0.92860  0.50860  Biso   1.000  H
  N16      1.0000 0.21050  0.85016  0.24920  Biso   1.000  N
  C81      1.0000 0.94870  0.88291  0.37020  Biso   1.000  C
  C82      1.0000 0.00130  0.82669  0.22630  Biso   1.000  C
  H32      1.0000 0.99320  0.80180  0.15240  Biso   1.000  H
  C83      1.0000 0.93610  0.84507  0.26560  Biso   1.000  C
  H33      1.0000 0.88520  0.83200  0.22200  Biso   1.000  H
  C84      1.0000 0.14500  0.82524  0.24850  Biso   1.000  C
  C85      1.0000 0.23270  0.73768  0.06210  Biso   1.000  C
  C86      1.0000 0.21420  0.78181  0.13530  Biso   1.000  C
  C87      1.0000 0.32790  0.84622  0.14860  Biso   1.000  C
  C88      1.0000 0.08940  0.88370  0.40100  Biso   1.000  C
  H34      1.0000 0.14030  0.89670  0.44600  Biso   1.000  H
  Co9      1.0000 0.95415  0.42754  0.26618  Biso   1.000  Co
  Cl9      1.0000 0.36760  0.40729  0.91978  Biso   1.000  Cl
  O35      1.0000 0.90262  0.53019  0.90190  Biso   1.000  O
  O36      1.0000 0.99430  0.38248  0.11760  Biso   1.000  O
  H35      1.0000 0.03990  0.37360  0.16980  Biso   1.000  H
  O37      1.0000 0.00516  0.61278  0.97600  Biso   1.000  O
  O38      1.0000 0.08808  0.63711  0.22350  Biso   1.000  O
  O39      1.0000 0.89850  0.46725  0.05040  Biso   1.000  O
  N17      1.0000 0.04210  0.48416  0.28070  Biso   1.000  N
  C89      1.0000 0.16910  0.48127  0.52280  Biso   1.000  C
  C90      1.0000 0.28270  0.48347  0.77680  Biso   1.000  C
  H36      1.0000 0.31820  0.50000  0.86460  Biso   1.000  H
  N18      1.0000 0.11060  0.55014  0.34840  Biso   1.000  N
  C91      1.0000 0.04820  0.55929  0.20310  Biso   1.000  C
  C92      1.0000 0.29090  0.43565  0.76490  Biso   1.000  C
  C93      1.0000 0.24030  0.41029  0.63450  Biso   1.000  C
  H37      1.0000 0.24650  0.37830  0.62860  Biso   1.000  H
  C94      1.0000 0.18020  0.43342  0.51270  Biso   1.000  C
  H38      1.0000 0.14650  0.41690  0.42260  Biso   1.000  H
  C95      1.0000 0.22170  0.50606  0.65730  Biso   1.000  C
  H39      1.0000 0.21520  0.53790  0.66560  Biso   1.000  H
  C96      1.0000 0.10610  0.50459  0.38990  Biso   1.000  C
  C97      1.0000 0.93140  0.50475  0.02990  Biso   1.000  C
  C98      1.0000 0.00630  0.51757  0.16320  Biso   1.000  C
  C99      1.0000 0.04610  0.60623  0.12720  Biso   1.000  C
  Co10     1.0000 0.82240  0.28303  0.84476  Biso   1.000  Co
  Cl10     1.0000 0.64613  0.49992  0.10507  Biso   1.000  Cl
  O40      1.0000 0.69401  0.20581  0.42980  Biso   1.000  O
  O41      1.0000 0.51838  0.21616  0.31770  Biso   1.000  O
  O42      1.0000 0.79094  0.23536  0.64580  Biso   1.000  O
  O43      1.0000 0.44142  0.24556  0.45890  Biso   1.000  O
  N19      1.0000 0.69310  0.29877  0.71500  Biso   1.000  N
  N20      1.0000 0.56050  0.30005  0.64890  Biso   1.000  N
  C100     1.0000 0.64120  0.44724  0.99880  Biso   1.000  C
  C101     1.0000 0.70080  0.39297  0.85850  Biso   1.000  C
  H40      1.0000 0.74240  0.38440  0.81860  Biso   1.000  H
  C102     1.0000 0.63380  0.36394  0.83230  Biso   1.000  C
  C103     1.0000 0.70500  0.43462  0.94410  Biso   1.000  C
  H41      1.0000 0.74980  0.45370  0.96450  Biso   1.000  H
  C104     1.0000 0.50780  0.23957  0.43590  Biso   1.000  C
  C105     1.0000 0.57810  0.26446  0.55770  Biso   1.000  C
  C106     1.0000 0.57430  0.41943  0.97160  Biso   1.000  C
  H42      1.0000 0.53190  0.42880  0.00770  Biso   1.000  H
  C107     1.0000 0.63010  0.32044  0.73840  Biso   1.000  C
  C108     1.0000 0.71840  0.23304  0.55420  Biso   1.000  C
  C109     1.0000 0.57100  0.37721  0.88940  Biso   1.000  C
  H43      1.0000 0.52670  0.35780  0.87270  Biso   1.000  H
  C110     1.0000 0.66060  0.26398  0.60010  Biso   1.000  C
  Co11     1.0000 0.60503  0.21059  0.19993  Biso   1.000  Co
  Cl11     1.0000 0.36789  0.40710  0.41993  Biso   1.000  Cl
  O44      1.0000 0.78479  0.23583  0.99010  Biso   1.000  O
  O45      1.0000 0.85717  0.32907  0.04380  Biso   1.000  O
  O46      1.0000 0.85174  0.38232  0.23180  Biso   1.000  O
  O47      1.0000 0.69219  0.20242  0.07970  Biso   1.000  O
  N21      1.0000 0.64570  0.28296  0.18280  Biso   1.000  N
  C111     1.0000 0.75520  0.32346  0.17450  Biso   1.000  C
  C112     1.0000 0.57820  0.34502  0.29580  Biso   1.000  C
  C113     1.0000 0.52420  0.40286  0.43870  Biso   1.000  C
  H44      1.0000 0.53120  0.42860  0.50860  Biso   1.000  H
  N22      1.0000 0.71050  0.35016  0.24920  Biso   1.000  N
  C114     1.0000 0.44870  0.38291  0.37020  Biso   1.000  C
  C115     1.0000 0.50130  0.32669  0.22630  Biso   1.000  C
  H45      1.0000 0.49320  0.30180  0.15240  Biso   1.000  H
  C116     1.0000 0.43610  0.34507  0.26560  Biso   1.000  C
  H46      1.0000 0.38520  0.33200  0.22200  Biso   1.000  H
  C117     1.0000 0.64500  0.32524  0.24850  Biso   1.000  C
  C118     1.0000 0.73270  0.23768  0.06210  Biso   1.000  C
  C119     1.0000 0.71420  0.28181  0.13530  Biso   1.000  C
  C120     1.0000 0.82790  0.34622  0.14860  Biso   1.000  C
  C121     1.0000 0.58940  0.38370  0.40100  Biso   1.000  C
  H47      1.0000 0.64030  0.39670  0.44600  Biso   1.000  H
  Co12     1.0000 0.45415  0.92754  0.26618  Biso   1.000  Co
  Cl12     1.0000 0.86760  0.90729  0.91978  Biso   1.000  Cl
  O48      1.0000 0.40262  0.03019  0.90190  Biso   1.000  O
  O49      1.0000 0.49430  0.88248  0.11760  Biso   1.000  O
  H48      1.0000 0.53990  0.87360  0.16980  Biso   1.000  H
  O50      1.0000 0.50516  0.11278  0.97600  Biso   1.000  O
  O51      1.0000 0.58808  0.13711  0.22350  Biso   1.000  O
  O52      1.0000 0.39850  0.96725  0.05040  Biso   1.000  O
  N23      1.0000 0.54210  0.98416  0.28070  Biso   1.000  N
  C122     1.0000 0.66910  0.98127  0.52280  Biso   1.000  C
  C123     1.0000 0.78270  0.98347  0.77680  Biso   1.000  C
  H49      1.0000 0.81820  0.00000  0.86460  Biso   1.000  H
  N24      1.0000 0.61060  0.05014  0.34840  Biso   1.000  N
  C124     1.0000 0.54820  0.05929  0.20310  Biso   1.000  C
  C125     1.0000 0.79090  0.93565  0.76490  Biso   1.000  C
  C126     1.0000 0.74030  0.91029  0.63450  Biso   1.000  C
  H50      1.0000 0.74650  0.87830  0.62860  Biso   1.000  H
  C127     1.0000 0.68020  0.93342  0.51270  Biso   1.000  C
  H51      1.0000 0.64650  0.91690  0.42260  Biso   1.000  H
  C128     1.0000 0.72170  0.00606  0.65730  Biso   1.000  C
  H52      1.0000 0.71520  0.03790  0.66560  Biso   1.000  H
  C129     1.0000 0.60610  0.00459  0.38990  Biso   1.000  C
  C130     1.0000 0.43140  0.00475  0.02990  Biso   1.000  C
  C131     1.0000 0.50630  0.01757  0.16320  Biso   1.000  C
  C132     1.0000 0.54610  0.10623  0.12720  Biso   1.000  C
