data_COMDOY_clean
_audit_creation_date              2014-07-02
_audit_creation_method            'Materials Studio'
_symmetry_space_group_name_H-M    'P1'
_symmetry_Int_Tables_number       1
_symmetry_cell_setting            triclinic
loop_
_symmetry_equiv_pos_as_xyz
  x,y,z
_cell_length_a                    6.7340
_cell_length_b                    11.0620
_cell_length_c                    11.1809
_cell_angle_alpha                 119.6490
_cell_angle_beta                  107.5260
_cell_angle_gamma                 90.0000
loop_
_atom_site_label
_atom_site_type_symbol
_atom_site_fract_x
_atom_site_fract_y
_atom_site_fract_z
_atom_site_U_iso_or_equiv
_atom_site_adp_type
_atom_site_occupancy
Ga1    Ga    0.00000   0.50000  -0.00000   0.01267  Uiso   1.00
Ga2    Ga    0.50000   0.50000  -0.00000   0.01267  Uiso   1.00
H1     H     0.84850   0.51220   0.61480   0.01267  Uiso   1.00
H2     H     0.65150   0.89740   0.38520   0.01267  Uiso   1.00
H3     H     0.73370   0.48780   0.38520   0.01267  Uiso   1.00
H4     H     0.76630   0.10260   0.61480   0.01267  Uiso   1.00
H5     H     0.15150   0.48780   0.38520   0.01267  Uiso   1.00
H6     H     0.34850   0.10260   0.61480   0.01267  Uiso   1.00
H7     H     0.26630   0.51220   0.61480   0.01267  Uiso   1.00
H8     H     0.23370   0.89740   0.38520   0.01267  Uiso   1.00
H9     H     0.75000   0.34700  -0.00000   0.01267  Uiso   1.00
H10    H     0.25000   0.65300  -0.00000   0.01267  Uiso   1.00
C1     C     0.70560   0.50710   0.56940   0.01267  Uiso   1.00
C2     C     0.79440   0.93770   0.43060   0.01267  Uiso   1.00
C3     C     0.63620   0.49290   0.43060   0.01267  Uiso   1.00
C4     C     0.86380   0.06230   0.56940   0.01267  Uiso   1.00
C5     C     0.29440   0.49290   0.43060   0.01267  Uiso   1.00
C6     C     0.20560   0.06230   0.56940   0.01267  Uiso   1.00
C7     C     0.36380   0.50710   0.56940   0.01267  Uiso   1.00
C8     C     0.13620   0.93770   0.43060   0.01267  Uiso   1.00
C9     C     0.56870   0.51350   0.63740   0.01267  Uiso   1.00
C10    C     0.64420   0.52810   0.78840   0.01267  Uiso   1.00
C11    C     0.93130   0.87610   0.36260   0.01267  Uiso   1.00
C12    C     0.85580   0.73970   0.21160   0.01267  Uiso   1.00
C13    C     0.43130   0.48650   0.36260   0.01267  Uiso   1.00
C14    C     0.35580   0.47190   0.21160   0.01267  Uiso   1.00
C15    C     0.06870   0.12390   0.63740   0.01267  Uiso   1.00
C16    C     0.14420   0.26030   0.78840   0.01267  Uiso   1.00
O1     O     0.83180   0.53250   0.84200   0.01267  Uiso   1.00
O2     O     0.66820   0.69050   0.15800   0.01267  Uiso   1.00
O3     O     0.48980   0.46750   0.15800   0.01267  Uiso   1.00
O4     O     0.01020   0.30950   0.84200   0.01267  Uiso   1.00
O5     O     0.16820   0.46750   0.15800   0.01267  Uiso   1.00
O6     O     0.33180   0.30950   0.84200   0.01267  Uiso   1.00
O7     O     0.51020   0.53250   0.84200   0.01267  Uiso   1.00
O8     O     0.98980   0.69050   0.15800   0.01267  Uiso   1.00
O9     O     0.75000   0.42080  -0.00000   0.01267  Uiso   1.00
O10    O     0.25000   0.57920  -0.00000   0.01267  Uiso   1.00
