data_image0
_cell_length_a       23.2667
_cell_length_b       15.2352
_cell_length_c       16.8347
_cell_angle_alpha    90
_cell_angle_beta     90
_cell_angle_gamma    90

_symmetry_space_group_name_H-M    "P 1"
_symmetry_int_tables_number       1

loop_
  _symmetry_equiv_pos_as_xyz
  'x, y, z'

loop_
  _atom_site_label
  _atom_site_occupancy
  _atom_site_fract_x
  _atom_site_fract_y
  _atom_site_fract_z
  _atom_site_thermal_displace_type
  _atom_site_B_iso_or_equiv
  _atom_site_type_symbol
  Zn1      1.0000 0.01173  0.58342  0.24360  Biso   1.000  Zn
  O1       1.0000 0.95280  0.66890  0.26570  Biso   1.000  O
  O2       1.0000 0.90390  0.62350  0.16280  Biso   1.000  O
  O3       1.0000 0.59810  0.34940  0.17600  Biso   1.000  O
  O4       1.0000 0.57530  0.34400  0.30120  Biso   1.000  O
  O5       1.0000 0.78810  0.02570  0.36020  Biso   1.000  O
  N1       1.0000 0.76800  0.97660  0.23800  Biso   1.000  N
  H1       1.0000 0.74820  0.98600  0.19570  Biso   1.000  H
  N2       1.0000 0.00790  0.99830  0.83940  Biso   1.000  N
  N3       1.0000 0.00760  0.49210  0.15400  Biso   1.000  N
  C1       1.0000 0.64610  0.24570  0.25780  Biso   1.000  C
  C2       1.0000 0.67430  0.20900  0.19540  Biso   1.000  C
  H2       1.0000 0.66810  0.23040  0.14440  Biso   1.000  H
  C3       1.0000 0.71200  0.14010  0.20710  Biso   1.000  C
  H3       1.0000 0.73130  0.11610  0.16390  Biso   1.000  H
  C4       1.0000 0.72110  0.10770  0.27950  Biso   1.000  C
  C5       1.0000 0.69520  0.14580  0.34350  Biso   1.000  C
  H4       1.0000 0.70310  0.12580  0.39450  Biso   1.000  H
  C6       1.0000 0.65720  0.21420  0.33230  Biso   1.000  C
  H5       1.0000 0.63890  0.23920  0.37600  Biso   1.000  H
  C7       1.0000 0.80440  0.90190  0.23880  Biso   1.000  C
  C8       1.0000 0.79670  0.84450  0.17740  Biso   1.000  C
  H6       1.0000 0.76830  0.85450  0.13960  Biso   1.000  H
  C9       1.0000 0.83230  0.76990  0.17190  Biso   1.000  C
  H7       1.0000 0.82610  0.73010  0.13090  Biso   1.000  H
  C10      1.0000 0.87470  0.75460  0.22420  Biso   1.000  C
  C11      1.0000 0.88540  0.81630  0.27910  Biso   1.000  C
  H8       1.0000 0.91640  0.80970  0.31350  Biso   1.000  H
  C12      1.0000 0.84990  0.89100  0.28510  Biso   1.000  C
  H9       1.0000 0.85860  0.93390  0.32250  Biso   1.000  H
  C13      1.0000 0.60380  0.31960  0.24090  Biso   1.000  C
  C14      1.0000 0.91260  0.67360  0.22120  Biso   1.000  C
  C15      1.0000 0.76240  0.03150  0.29540  Biso   1.000  C
  C16      1.0000 0.04620  0.48640  0.09900  Biso   1.000  C
  H10      1.0000 0.07570  0.52770  0.09760  Biso   1.000  H
  C17      1.0000 0.04510  0.42020  0.04160  Biso   1.000  C
  H11      1.0000 0.07330  0.41880  0.00240  Biso   1.000  H
  C18      1.0000 0.00320  0.35780  0.04250  Biso   1.000  C
  C19      1.0000 0.96280  0.36420  0.10090  Biso   1.000  C
  H12      1.0000 0.93310  0.32340  0.10330  Biso   1.000  H
  C20      1.0000 0.96560  0.43110  0.15680  Biso   1.000  C
  H13      1.0000 0.93810  0.43390  0.19680  Biso   1.000  H
  C21      1.0000 0.00180  0.28410  0.98230  Biso   1.000  C
  H14      1.0000 0.03550  0.28790  0.94860  Biso   1.000  H
  H15      1.0000 0.96810  0.29060  0.94890  Biso   1.000  H
  C22      1.0000 0.00030  0.19430  0.02220  Biso   1.000  C
  H16      1.0000 0.03310  0.18820  0.05750  Biso   1.000  H
  H17      1.0000 0.96560  0.18870  0.05360  Biso   1.000  H
  C23      1.0000 0.00200  0.12260  0.95910  Biso   1.000  C
  C24      1.0000 0.05420  0.09650  0.92780  Biso   1.000  C
  H18      1.0000 0.08820  0.12060  0.94690  Biso   1.000  H
  C25      1.0000 0.05570  0.03460  0.86810  Biso   1.000  C
  H19      1.0000 0.09100  0.01780  0.84720  Biso   1.000  H
  C26      1.0000 0.95920  0.01980  0.87380  Biso   1.000  C
  H20      1.0000 0.92600  0.99110  0.85700  Biso   1.000  H
  C27      1.0000 0.95360  0.08150  0.93270  Biso   1.000  C
  H21      1.0000 0.91780  0.09490  0.95410  Biso   1.000  H
  Zn2      1.0000 0.51173  0.41658  0.25640  Biso   1.000  Zn
  O6       1.0000 0.45280  0.33110  0.23430  Biso   1.000  O
  O7       1.0000 0.40390  0.37650  0.33720  Biso   1.000  O
  O8       1.0000 0.09810  0.65060  0.32400  Biso   1.000  O
  O9       1.0000 0.07530  0.65600  0.19880  Biso   1.000  O
  O10      1.0000 0.28810  0.97430  0.13980  Biso   1.000  O
  N4       1.0000 0.26800  0.02340  0.26200  Biso   1.000  N
  H22      1.0000 0.24820  0.01400  0.30430  Biso   1.000  H
  N5       1.0000 0.50790  0.00170  0.66060  Biso   1.000  N
  N6       1.0000 0.50760  0.50790  0.34600  Biso   1.000  N
  C28      1.0000 0.14610  0.75430  0.24220  Biso   1.000  C
  C29      1.0000 0.17430  0.79100  0.30460  Biso   1.000  C
  H23      1.0000 0.16810  0.76960  0.35560  Biso   1.000  H
  C30      1.0000 0.21200  0.85990  0.29290  Biso   1.000  C
  H24      1.0000 0.23130  0.88390  0.33610  Biso   1.000  H
  C31      1.0000 0.22110  0.89230  0.22050  Biso   1.000  C
  C32      1.0000 0.19520  0.85420  0.15650  Biso   1.000  C
  H25      1.0000 0.20310  0.87420  0.10550  Biso   1.000  H
  C33      1.0000 0.15720  0.78580  0.16770  Biso   1.000  C
  H26      1.0000 0.13890  0.76080  0.12400  Biso   1.000  H
  C34      1.0000 0.30440  0.09810  0.26120  Biso   1.000  C
  C35      1.0000 0.29670  0.15550  0.32260  Biso   1.000  C
  H27      1.0000 0.26830  0.14550  0.36040  Biso   1.000  H
  C36      1.0000 0.33230  0.23010  0.32810  Biso   1.000  C
  H28      1.0000 0.32610  0.26990  0.36910  Biso   1.000  H
  C37      1.0000 0.37470  0.24540  0.27580  Biso   1.000  C
  C38      1.0000 0.38540  0.18370  0.22090  Biso   1.000  C
  H29      1.0000 0.41640  0.19030  0.18650  Biso   1.000  H
  C39      1.0000 0.34990  0.10900  0.21490  Biso   1.000  C
  H30      1.0000 0.35860  0.06610  0.17750  Biso   1.000  H
  C40      1.0000 0.10380  0.68040  0.25910  Biso   1.000  C
  C41      1.0000 0.41260  0.32640  0.27880  Biso   1.000  C
  C42      1.0000 0.26240  0.96850  0.20460  Biso   1.000  C
  C43      1.0000 0.54620  0.51360  0.40100  Biso   1.000  C
  H31      1.0000 0.57570  0.47230  0.40240  Biso   1.000  H
  C44      1.0000 0.54510  0.57980  0.45840  Biso   1.000  C
  H32      1.0000 0.57330  0.58120  0.49760  Biso   1.000  H
  C45      1.0000 0.50320  0.64220  0.45750  Biso   1.000  C
  C46      1.0000 0.46280  0.63580  0.39910  Biso   1.000  C
  H33      1.0000 0.43310  0.67660  0.39670  Biso   1.000  H
  C47      1.0000 0.46560  0.56890  0.34320  Biso   1.000  C
  H34      1.0000 0.43810  0.56610  0.30320  Biso   1.000  H
  C48      1.0000 0.50180  0.71590  0.51770  Biso   1.000  C
  H35      1.0000 0.53550  0.71210  0.55140  Biso   1.000  H
  H36      1.0000 0.46810  0.70940  0.55110  Biso   1.000  H
  C49      1.0000 0.50030  0.80570  0.47780  Biso   1.000  C
  H37      1.0000 0.53310  0.81180  0.44250  Biso   1.000  H
  H38      1.0000 0.46560  0.81130  0.44640  Biso   1.000  H
  C50      1.0000 0.50200  0.87740  0.54090  Biso   1.000  C
  C51      1.0000 0.55420  0.90350  0.57220  Biso   1.000  C
  H39      1.0000 0.58820  0.87940  0.55310  Biso   1.000  H
  C52      1.0000 0.55570  0.96540  0.63190  Biso   1.000  C
  H40      1.0000 0.59100  0.98220  0.65280  Biso   1.000  H
  C53      1.0000 0.45920  0.98020  0.62620  Biso   1.000  C
  H41      1.0000 0.42600  0.00890  0.64300  Biso   1.000  H
  C54      1.0000 0.45360  0.91850  0.56730  Biso   1.000  C
  H42      1.0000 0.41780  0.90510  0.54590  Biso   1.000  H
  Zn3      1.0000 0.51173  0.08342  0.75640  Biso   1.000  Zn
  O11      1.0000 0.45280  0.16890  0.73430  Biso   1.000  O
  O12      1.0000 0.40390  0.12350  0.83720  Biso   1.000  O
  O13      1.0000 0.09810  0.84940  0.82400  Biso   1.000  O
  O14      1.0000 0.07530  0.84400  0.69880  Biso   1.000  O
  O15      1.0000 0.28810  0.52570  0.63980  Biso   1.000  O
  N7       1.0000 0.26800  0.47660  0.76200  Biso   1.000  N
  H43      1.0000 0.24820  0.48600  0.80430  Biso   1.000  H
  N8       1.0000 0.50790  0.49830  0.16060  Biso   1.000  N
  N9       1.0000 0.50760  0.99210  0.84600  Biso   1.000  N
  C55      1.0000 0.14610  0.74570  0.74220  Biso   1.000  C
  C56      1.0000 0.17430  0.70900  0.80460  Biso   1.000  C
  H44      1.0000 0.16810  0.73040  0.85560  Biso   1.000  H
  C57      1.0000 0.21200  0.64010  0.79290  Biso   1.000  C
  H45      1.0000 0.23130  0.61610  0.83610  Biso   1.000  H
  C58      1.0000 0.22110  0.60770  0.72050  Biso   1.000  C
  C59      1.0000 0.19520  0.64580  0.65650  Biso   1.000  C
  H46      1.0000 0.20310  0.62580  0.60550  Biso   1.000  H
  C60      1.0000 0.15720  0.71420  0.66770  Biso   1.000  C
  H47      1.0000 0.13890  0.73920  0.62400  Biso   1.000  H
  C61      1.0000 0.30440  0.40190  0.76120  Biso   1.000  C
  C62      1.0000 0.29670  0.34450  0.82260  Biso   1.000  C
  H48      1.0000 0.26830  0.35450  0.86040  Biso   1.000  H
  C63      1.0000 0.33230  0.26990  0.82810  Biso   1.000  C
  H49      1.0000 0.32610  0.23010  0.86910  Biso   1.000  H
  C64      1.0000 0.37470  0.25460  0.77580  Biso   1.000  C
  C65      1.0000 0.38540  0.31630  0.72090  Biso   1.000  C
  H50      1.0000 0.41640  0.30970  0.68650  Biso   1.000  H
  C66      1.0000 0.34990  0.39100  0.71490  Biso   1.000  C
  H51      1.0000 0.35860  0.43390  0.67750  Biso   1.000  H
  C67      1.0000 0.10380  0.81960  0.75910  Biso   1.000  C
  C68      1.0000 0.41260  0.17360  0.77880  Biso   1.000  C
  C69      1.0000 0.26240  0.53150  0.70460  Biso   1.000  C
  C70      1.0000 0.54620  0.98640  0.90100  Biso   1.000  C
  H52      1.0000 0.57570  0.02770  0.90240  Biso   1.000  H
  C71      1.0000 0.54510  0.92020  0.95840  Biso   1.000  C
  H53      1.0000 0.57330  0.91880  0.99760  Biso   1.000  H
  C72      1.0000 0.50320  0.85780  0.95750  Biso   1.000  C
  C73      1.0000 0.46280  0.86420  0.89910  Biso   1.000  C
  H54      1.0000 0.43310  0.82340  0.89670  Biso   1.000  H
  C74      1.0000 0.46560  0.93110  0.84320  Biso   1.000  C
  H55      1.0000 0.43810  0.93390  0.80320  Biso   1.000  H
  C75      1.0000 0.50180  0.78410  0.01770  Biso   1.000  C
  H56      1.0000 0.53550  0.78790  0.05140  Biso   1.000  H
  H57      1.0000 0.46810  0.79060  0.05110  Biso   1.000  H
  C76      1.0000 0.50030  0.69430  0.97780  Biso   1.000  C
  H58      1.0000 0.53310  0.68820  0.94250  Biso   1.000  H
  H59      1.0000 0.46560  0.68870  0.94640  Biso   1.000  H
  C77      1.0000 0.50200  0.62260  0.04090  Biso   1.000  C
  C78      1.0000 0.55420  0.59650  0.07220  Biso   1.000  C
  H60      1.0000 0.58820  0.62060  0.05310  Biso   1.000  H
  C79      1.0000 0.55570  0.53460  0.13190  Biso   1.000  C
  H61      1.0000 0.59100  0.51780  0.15280  Biso   1.000  H
  C80      1.0000 0.45920  0.51980  0.12620  Biso   1.000  C
  H62      1.0000 0.42600  0.49110  0.14300  Biso   1.000  H
  C81      1.0000 0.45360  0.58150  0.06730  Biso   1.000  C
  H63      1.0000 0.41780  0.59490  0.04590  Biso   1.000  H
  Zn4      1.0000 0.01173  0.91658  0.74360  Biso   1.000  Zn
  O16      1.0000 0.95280  0.83110  0.76570  Biso   1.000  O
  O17      1.0000 0.90390  0.87650  0.66280  Biso   1.000  O
  O18      1.0000 0.59810  0.15060  0.67600  Biso   1.000  O
  O19      1.0000 0.57530  0.15600  0.80120  Biso   1.000  O
  O20      1.0000 0.78810  0.47430  0.86020  Biso   1.000  O
  N10      1.0000 0.76800  0.52340  0.73800  Biso   1.000  N
  H64      1.0000 0.74820  0.51400  0.69570  Biso   1.000  H
  N11      1.0000 0.00790  0.50170  0.33940  Biso   1.000  N
  N12      1.0000 0.00760  0.00790  0.65400  Biso   1.000  N
  C82      1.0000 0.64610  0.25430  0.75780  Biso   1.000  C
  C83      1.0000 0.67430  0.29100  0.69540  Biso   1.000  C
  H65      1.0000 0.66810  0.26960  0.64440  Biso   1.000  H
  C84      1.0000 0.71200  0.35990  0.70710  Biso   1.000  C
  H66      1.0000 0.73130  0.38390  0.66390  Biso   1.000  H
  C85      1.0000 0.72110  0.39230  0.77950  Biso   1.000  C
  C86      1.0000 0.69520  0.35420  0.84350  Biso   1.000  C
  H67      1.0000 0.70310  0.37420  0.89450  Biso   1.000  H
  C87      1.0000 0.65720  0.28580  0.83230  Biso   1.000  C
  H68      1.0000 0.63890  0.26080  0.87600  Biso   1.000  H
  C88      1.0000 0.80440  0.59810  0.73880  Biso   1.000  C
  C89      1.0000 0.79670  0.65550  0.67740  Biso   1.000  C
  H69      1.0000 0.76830  0.64550  0.63960  Biso   1.000  H
  C90      1.0000 0.83230  0.73010  0.67190  Biso   1.000  C
  H70      1.0000 0.82610  0.76990  0.63090  Biso   1.000  H
  C91      1.0000 0.87470  0.74540  0.72420  Biso   1.000  C
  C92      1.0000 0.88540  0.68370  0.77910  Biso   1.000  C
  H71      1.0000 0.91640  0.69030  0.81350  Biso   1.000  H
  C93      1.0000 0.84990  0.60900  0.78510  Biso   1.000  C
  H72      1.0000 0.85860  0.56610  0.82250  Biso   1.000  H
  C94      1.0000 0.60380  0.18040  0.74090  Biso   1.000  C
  C95      1.0000 0.91260  0.82640  0.72120  Biso   1.000  C
  C96      1.0000 0.76240  0.46850  0.79540  Biso   1.000  C
  C97      1.0000 0.04620  0.01360  0.59900  Biso   1.000  C
  H73      1.0000 0.07570  0.97230  0.59760  Biso   1.000  H
  C98      1.0000 0.04510  0.07980  0.54160  Biso   1.000  C
  H74      1.0000 0.07330  0.08120  0.50240  Biso   1.000  H
  C99      1.0000 0.00320  0.14220  0.54250  Biso   1.000  C
  C100     1.0000 0.96280  0.13580  0.60090  Biso   1.000  C
  H75      1.0000 0.93310  0.17660  0.60330  Biso   1.000  H
  C101     1.0000 0.96560  0.06890  0.65680  Biso   1.000  C
  H76      1.0000 0.93810  0.06610  0.69680  Biso   1.000  H
  C102     1.0000 0.00180  0.21590  0.48230  Biso   1.000  C
  H77      1.0000 0.03550  0.21210  0.44860  Biso   1.000  H
  H78      1.0000 0.96810  0.20940  0.44890  Biso   1.000  H
  C103     1.0000 0.00030  0.30570  0.52220  Biso   1.000  C
  H79      1.0000 0.03310  0.31180  0.55750  Biso   1.000  H
  H80      1.0000 0.96560  0.31130  0.55360  Biso   1.000  H
  C104     1.0000 0.00200  0.37740  0.45910  Biso   1.000  C
  C105     1.0000 0.05420  0.40350  0.42780  Biso   1.000  C
  H81      1.0000 0.08820  0.37940  0.44690  Biso   1.000  H
  C106     1.0000 0.05570  0.46540  0.36810  Biso   1.000  C
  H82      1.0000 0.09100  0.48220  0.34720  Biso   1.000  H
  C107     1.0000 0.95920  0.48020  0.37380  Biso   1.000  C
  H83      1.0000 0.92600  0.50890  0.35700  Biso   1.000  H
  C108     1.0000 0.95360  0.41850  0.43270  Biso   1.000  C
  H84      1.0000 0.91780  0.40510  0.45410  Biso   1.000  H
  Zn5      1.0000 0.48827  0.91658  0.24360  Biso   1.000  Zn
  O21      1.0000 0.54720  0.83110  0.26570  Biso   1.000  O
  O22      1.0000 0.59610  0.87650  0.16280  Biso   1.000  O
  O23      1.0000 0.90190  0.15060  0.17600  Biso   1.000  O
  O24      1.0000 0.92470  0.15600  0.30120  Biso   1.000  O
  O25      1.0000 0.71190  0.47430  0.36020  Biso   1.000  O
  N13      1.0000 0.73200  0.52340  0.23800  Biso   1.000  N
  H85      1.0000 0.75180  0.51400  0.19570  Biso   1.000  H
  N14      1.0000 0.49210  0.50170  0.83940  Biso   1.000  N
  N15      1.0000 0.49240  0.00790  0.15400  Biso   1.000  N
  C109     1.0000 0.85390  0.25430  0.25780  Biso   1.000  C
  C110     1.0000 0.82570  0.29100  0.19540  Biso   1.000  C
  H86      1.0000 0.83190  0.26960  0.14440  Biso   1.000  H
  C111     1.0000 0.78800  0.35990  0.20710  Biso   1.000  C
  H87      1.0000 0.76870  0.38390  0.16390  Biso   1.000  H
  C112     1.0000 0.77890  0.39230  0.27950  Biso   1.000  C
  C113     1.0000 0.80480  0.35420  0.34350  Biso   1.000  C
  H88      1.0000 0.79690  0.37420  0.39450  Biso   1.000  H
  C114     1.0000 0.84280  0.28580  0.33230  Biso   1.000  C
  H89      1.0000 0.86110  0.26080  0.37600  Biso   1.000  H
  C115     1.0000 0.69560  0.59810  0.23880  Biso   1.000  C
  C116     1.0000 0.70330  0.65550  0.17740  Biso   1.000  C
  H90      1.0000 0.73170  0.64550  0.13960  Biso   1.000  H
  C117     1.0000 0.66770  0.73010  0.17190  Biso   1.000  C
  H91      1.0000 0.67390  0.76990  0.13090  Biso   1.000  H
  C118     1.0000 0.62530  0.74540  0.22420  Biso   1.000  C
  C119     1.0000 0.61460  0.68370  0.27910  Biso   1.000  C
  H92      1.0000 0.58360  0.69030  0.31350  Biso   1.000  H
  C120     1.0000 0.65010  0.60900  0.28510  Biso   1.000  C
  H93      1.0000 0.64140  0.56610  0.32250  Biso   1.000  H
  C121     1.0000 0.89620  0.18040  0.24090  Biso   1.000  C
  C122     1.0000 0.58740  0.82640  0.22120  Biso   1.000  C
  C123     1.0000 0.73760  0.46850  0.29540  Biso   1.000  C
  C124     1.0000 0.45380  0.01360  0.09900  Biso   1.000  C
  H94      1.0000 0.42430  0.97230  0.09760  Biso   1.000  H
  C125     1.0000 0.45490  0.07980  0.04160  Biso   1.000  C
  H95      1.0000 0.42670  0.08120  0.00240  Biso   1.000  H
  C126     1.0000 0.49680  0.14220  0.04250  Biso   1.000  C
  C127     1.0000 0.53720  0.13580  0.10090  Biso   1.000  C
  H96      1.0000 0.56690  0.17660  0.10330  Biso   1.000  H
  C128     1.0000 0.53440  0.06890  0.15680  Biso   1.000  C
  H97      1.0000 0.56190  0.06610  0.19680  Biso   1.000  H
  C129     1.0000 0.49820  0.21590  0.98230  Biso   1.000  C
  H98      1.0000 0.46450  0.21210  0.94860  Biso   1.000  H
  H99      1.0000 0.53190  0.20940  0.94890  Biso   1.000  H
  C130     1.0000 0.49970  0.30570  0.02220  Biso   1.000  C
  H100     1.0000 0.46690  0.31180  0.05750  Biso   1.000  H
  H101     1.0000 0.53440  0.31130  0.05360  Biso   1.000  H
  C131     1.0000 0.49800  0.37740  0.95910  Biso   1.000  C
  C132     1.0000 0.44580  0.40350  0.92780  Biso   1.000  C
  H102     1.0000 0.41180  0.37940  0.94690  Biso   1.000  H
  C133     1.0000 0.44430  0.46540  0.86810  Biso   1.000  C
  H103     1.0000 0.40900  0.48220  0.84720  Biso   1.000  H
  C134     1.0000 0.54080  0.48020  0.87380  Biso   1.000  C
  H104     1.0000 0.57400  0.50890  0.85700  Biso   1.000  H
  C135     1.0000 0.54640  0.41850  0.93270  Biso   1.000  C
  H105     1.0000 0.58220  0.40510  0.95410  Biso   1.000  H
  Zn6      1.0000 0.98827  0.08342  0.25640  Biso   1.000  Zn
  O26      1.0000 0.04720  0.16890  0.23430  Biso   1.000  O
  O27      1.0000 0.09610  0.12350  0.33720  Biso   1.000  O
  O28      1.0000 0.40190  0.84940  0.32400  Biso   1.000  O
  O29      1.0000 0.42470  0.84400  0.19880  Biso   1.000  O
  O30      1.0000 0.21190  0.52570  0.13980  Biso   1.000  O
  N16      1.0000 0.23200  0.47660  0.26200  Biso   1.000  N
  H106     1.0000 0.25180  0.48600  0.30430  Biso   1.000  H
  N17      1.0000 0.99210  0.49830  0.66060  Biso   1.000  N
  N18      1.0000 0.99240  0.99210  0.34600  Biso   1.000  N
  C136     1.0000 0.35390  0.74570  0.24220  Biso   1.000  C
  C137     1.0000 0.32570  0.70900  0.30460  Biso   1.000  C
  H107     1.0000 0.33190  0.73040  0.35560  Biso   1.000  H
  C138     1.0000 0.28800  0.64010  0.29290  Biso   1.000  C
  H108     1.0000 0.26870  0.61610  0.33610  Biso   1.000  H
  C139     1.0000 0.27890  0.60770  0.22050  Biso   1.000  C
  C140     1.0000 0.30480  0.64580  0.15650  Biso   1.000  C
  H109     1.0000 0.29690  0.62580  0.10550  Biso   1.000  H
  C141     1.0000 0.34280  0.71420  0.16770  Biso   1.000  C
  H110     1.0000 0.36110  0.73920  0.12400  Biso   1.000  H
  C142     1.0000 0.19560  0.40190  0.26120  Biso   1.000  C
  C143     1.0000 0.20330  0.34450  0.32260  Biso   1.000  C
  H111     1.0000 0.23170  0.35450  0.36040  Biso   1.000  H
  C144     1.0000 0.16770  0.26990  0.32810  Biso   1.000  C
  H112     1.0000 0.17390  0.23010  0.36910  Biso   1.000  H
  C145     1.0000 0.12530  0.25460  0.27580  Biso   1.000  C
  C146     1.0000 0.11460  0.31630  0.22090  Biso   1.000  C
  H113     1.0000 0.08360  0.30970  0.18650  Biso   1.000  H
  C147     1.0000 0.15010  0.39100  0.21490  Biso   1.000  C
  H114     1.0000 0.14140  0.43390  0.17750  Biso   1.000  H
  C148     1.0000 0.39620  0.81960  0.25910  Biso   1.000  C
  C149     1.0000 0.08740  0.17360  0.27880  Biso   1.000  C
  C150     1.0000 0.23760  0.53150  0.20460  Biso   1.000  C
  C151     1.0000 0.95380  0.98640  0.40100  Biso   1.000  C
  H115     1.0000 0.92430  0.02770  0.40240  Biso   1.000  H
  C152     1.0000 0.95490  0.92020  0.45840  Biso   1.000  C
  H116     1.0000 0.92670  0.91880  0.49760  Biso   1.000  H
  C153     1.0000 0.99680  0.85780  0.45750  Biso   1.000  C
  C154     1.0000 0.03720  0.86420  0.39910  Biso   1.000  C
  H117     1.0000 0.06690  0.82340  0.39670  Biso   1.000  H
  C155     1.0000 0.03440  0.93110  0.34320  Biso   1.000  C
  H118     1.0000 0.06190  0.93390  0.30320  Biso   1.000  H
  C156     1.0000 0.99820  0.78410  0.51770  Biso   1.000  C
  H119     1.0000 0.96450  0.78790  0.55140  Biso   1.000  H
  H120     1.0000 0.03190  0.79060  0.55110  Biso   1.000  H
  C157     1.0000 0.99970  0.69430  0.47780  Biso   1.000  C
  H121     1.0000 0.96690  0.68820  0.44250  Biso   1.000  H
  H122     1.0000 0.03440  0.68870  0.44640  Biso   1.000  H
  C158     1.0000 0.99800  0.62260  0.54090  Biso   1.000  C
  C159     1.0000 0.94580  0.59650  0.57220  Biso   1.000  C
  H123     1.0000 0.91180  0.62060  0.55310  Biso   1.000  H
  C160     1.0000 0.94430  0.53460  0.63190  Biso   1.000  C
  H124     1.0000 0.90900  0.51780  0.65280  Biso   1.000  H
  C161     1.0000 0.04080  0.51980  0.62620  Biso   1.000  C
  H125     1.0000 0.07400  0.49110  0.64300  Biso   1.000  H
  C162     1.0000 0.04640  0.58150  0.56730  Biso   1.000  C
  H126     1.0000 0.08220  0.59490  0.54590  Biso   1.000  H
  Zn7      1.0000 0.98827  0.41658  0.75640  Biso   1.000  Zn
  O31      1.0000 0.04720  0.33110  0.73430  Biso   1.000  O
  O32      1.0000 0.09610  0.37650  0.83720  Biso   1.000  O
  O33      1.0000 0.40190  0.65060  0.82400  Biso   1.000  O
  O34      1.0000 0.42470  0.65600  0.69880  Biso   1.000  O
  O35      1.0000 0.21190  0.97430  0.63980  Biso   1.000  O
  N19      1.0000 0.23200  0.02340  0.76200  Biso   1.000  N
  H127     1.0000 0.25180  0.01400  0.80430  Biso   1.000  H
  N20      1.0000 0.99210  0.00170  0.16060  Biso   1.000  N
  N21      1.0000 0.99240  0.50790  0.84600  Biso   1.000  N
  C163     1.0000 0.35390  0.75430  0.74220  Biso   1.000  C
  C164     1.0000 0.32570  0.79100  0.80460  Biso   1.000  C
  H128     1.0000 0.33190  0.76960  0.85560  Biso   1.000  H
  C165     1.0000 0.28800  0.85990  0.79290  Biso   1.000  C
  H129     1.0000 0.26870  0.88390  0.83610  Biso   1.000  H
  C166     1.0000 0.27890  0.89230  0.72050  Biso   1.000  C
  C167     1.0000 0.30480  0.85420  0.65650  Biso   1.000  C
  H130     1.0000 0.29690  0.87420  0.60550  Biso   1.000  H
  C168     1.0000 0.34280  0.78580  0.66770  Biso   1.000  C
  H131     1.0000 0.36110  0.76080  0.62400  Biso   1.000  H
  C169     1.0000 0.19560  0.09810  0.76120  Biso   1.000  C
  C170     1.0000 0.20330  0.15550  0.82260  Biso   1.000  C
  H132     1.0000 0.23170  0.14550  0.86040  Biso   1.000  H
  C171     1.0000 0.16770  0.23010  0.82810  Biso   1.000  C
  H133     1.0000 0.17390  0.26990  0.86910  Biso   1.000  H
  C172     1.0000 0.12530  0.24540  0.77580  Biso   1.000  C
  C173     1.0000 0.11460  0.18370  0.72090  Biso   1.000  C
  H134     1.0000 0.08360  0.19030  0.68650  Biso   1.000  H
  C174     1.0000 0.15010  0.10900  0.71490  Biso   1.000  C
  H135     1.0000 0.14140  0.06610  0.67750  Biso   1.000  H
  C175     1.0000 0.39620  0.68040  0.75910  Biso   1.000  C
  C176     1.0000 0.08740  0.32640  0.77880  Biso   1.000  C
  C177     1.0000 0.23760  0.96850  0.70460  Biso   1.000  C
  C178     1.0000 0.95380  0.51360  0.90100  Biso   1.000  C
  H136     1.0000 0.92430  0.47230  0.90240  Biso   1.000  H
  C179     1.0000 0.95490  0.57980  0.95840  Biso   1.000  C
  H137     1.0000 0.92670  0.58120  0.99760  Biso   1.000  H
  C180     1.0000 0.99680  0.64220  0.95750  Biso   1.000  C
  C181     1.0000 0.03720  0.63580  0.89910  Biso   1.000  C
  H138     1.0000 0.06690  0.67660  0.89670  Biso   1.000  H
  C182     1.0000 0.03440  0.56890  0.84320  Biso   1.000  C
  H139     1.0000 0.06190  0.56610  0.80320  Biso   1.000  H
  C183     1.0000 0.99820  0.71590  0.01770  Biso   1.000  C
  H140     1.0000 0.96450  0.71210  0.05140  Biso   1.000  H
  H141     1.0000 0.03190  0.70940  0.05110  Biso   1.000  H
  C184     1.0000 0.99970  0.80570  0.97780  Biso   1.000  C
  H142     1.0000 0.96690  0.81180  0.94250  Biso   1.000  H
  H143     1.0000 0.03440  0.81130  0.94640  Biso   1.000  H
  C185     1.0000 0.99800  0.87740  0.04090  Biso   1.000  C
  C186     1.0000 0.94580  0.90350  0.07220  Biso   1.000  C
  H144     1.0000 0.91180  0.87940  0.05310  Biso   1.000  H
  C187     1.0000 0.94430  0.96540  0.13190  Biso   1.000  C
  H145     1.0000 0.90900  0.98220  0.15280  Biso   1.000  H
  C188     1.0000 0.04080  0.98020  0.12620  Biso   1.000  C
  H146     1.0000 0.07400  0.00890  0.14300  Biso   1.000  H
  C189     1.0000 0.04640  0.91850  0.06730  Biso   1.000  C
  H147     1.0000 0.08220  0.90510  0.04590  Biso   1.000  H
  Zn8      1.0000 0.48827  0.58342  0.74360  Biso   1.000  Zn
  O36      1.0000 0.54720  0.66890  0.76570  Biso   1.000  O
  O37      1.0000 0.59610  0.62350  0.66280  Biso   1.000  O
  O38      1.0000 0.90190  0.34940  0.67600  Biso   1.000  O
  O39      1.0000 0.92470  0.34400  0.80120  Biso   1.000  O
  O40      1.0000 0.71190  0.02570  0.86020  Biso   1.000  O
  N22      1.0000 0.73200  0.97660  0.73800  Biso   1.000  N
  H148     1.0000 0.75180  0.98600  0.69570  Biso   1.000  H
  N23      1.0000 0.49210  0.99830  0.33940  Biso   1.000  N
  N24      1.0000 0.49240  0.49210  0.65400  Biso   1.000  N
  C190     1.0000 0.85390  0.24570  0.75780  Biso   1.000  C
  C191     1.0000 0.82570  0.20900  0.69540  Biso   1.000  C
  H149     1.0000 0.83190  0.23040  0.64440  Biso   1.000  H
  C192     1.0000 0.78800  0.14010  0.70710  Biso   1.000  C
  H150     1.0000 0.76870  0.11610  0.66390  Biso   1.000  H
  C193     1.0000 0.77890  0.10770  0.77950  Biso   1.000  C
  C194     1.0000 0.80480  0.14580  0.84350  Biso   1.000  C
  H151     1.0000 0.79690  0.12580  0.89450  Biso   1.000  H
  C195     1.0000 0.84280  0.21420  0.83230  Biso   1.000  C
  H152     1.0000 0.86110  0.23920  0.87600  Biso   1.000  H
  C196     1.0000 0.69560  0.90190  0.73880  Biso   1.000  C
  C197     1.0000 0.70330  0.84450  0.67740  Biso   1.000  C
  H153     1.0000 0.73170  0.85450  0.63960  Biso   1.000  H
  C198     1.0000 0.66770  0.76990  0.67190  Biso   1.000  C
  H154     1.0000 0.67390  0.73010  0.63090  Biso   1.000  H
  C199     1.0000 0.62530  0.75460  0.72420  Biso   1.000  C
  C200     1.0000 0.61460  0.81630  0.77910  Biso   1.000  C
  H155     1.0000 0.58360  0.80970  0.81350  Biso   1.000  H
  C201     1.0000 0.65010  0.89100  0.78510  Biso   1.000  C
  H156     1.0000 0.64140  0.93390  0.82250  Biso   1.000  H
  C202     1.0000 0.89620  0.31960  0.74090  Biso   1.000  C
  C203     1.0000 0.58740  0.67360  0.72120  Biso   1.000  C
  C204     1.0000 0.73760  0.03150  0.79540  Biso   1.000  C
  C205     1.0000 0.45380  0.48640  0.59900  Biso   1.000  C
  H157     1.0000 0.42430  0.52770  0.59760  Biso   1.000  H
  C206     1.0000 0.45490  0.42020  0.54160  Biso   1.000  C
  H158     1.0000 0.42670  0.41880  0.50240  Biso   1.000  H
  C207     1.0000 0.49680  0.35780  0.54250  Biso   1.000  C
  C208     1.0000 0.53720  0.36420  0.60090  Biso   1.000  C
  H159     1.0000 0.56690  0.32340  0.60330  Biso   1.000  H
  C209     1.0000 0.53440  0.43110  0.65680  Biso   1.000  C
  H160     1.0000 0.56190  0.43390  0.69680  Biso   1.000  H
  C210     1.0000 0.49820  0.28410  0.48230  Biso   1.000  C
  H161     1.0000 0.46450  0.28790  0.44860  Biso   1.000  H
  H162     1.0000 0.53190  0.29060  0.44890  Biso   1.000  H
  C211     1.0000 0.49970  0.19430  0.52220  Biso   1.000  C
  H163     1.0000 0.46690  0.18820  0.55750  Biso   1.000  H
  H164     1.0000 0.53440  0.18870  0.55360  Biso   1.000  H
  C212     1.0000 0.49800  0.12260  0.45910  Biso   1.000  C
  C213     1.0000 0.44580  0.09650  0.42780  Biso   1.000  C
  H165     1.0000 0.41180  0.12060  0.44690  Biso   1.000  H
  C214     1.0000 0.44430  0.03460  0.36810  Biso   1.000  C
  H166     1.0000 0.40900  0.01780  0.34720  Biso   1.000  H
  C215     1.0000 0.54080  0.01980  0.37380  Biso   1.000  C
  H167     1.0000 0.57400  0.99110  0.35700  Biso   1.000  H
  C216     1.0000 0.54640  0.08150  0.43270  Biso   1.000  C
  H168     1.0000 0.58220  0.09490  0.45410  Biso   1.000  H
