data_image0
_cell_length_a       14.9
_cell_length_b       24.324
_cell_length_c       16.253
_cell_angle_alpha    90
_cell_angle_beta     113.233
_cell_angle_gamma    90

_symmetry_space_group_name_H-M    "P 1"
_symmetry_int_tables_number       1

loop_
  _symmetry_equiv_pos_as_xyz
  'x, y, z'

loop_
  _atom_site_label
  _atom_site_occupancy
  _atom_site_fract_x
  _atom_site_fract_y
  _atom_site_fract_z
  _atom_site_thermal_displace_type
  _atom_site_B_iso_or_equiv
  _atom_site_type_symbol
  Zn1      1.0000 0.41865  0.01345  0.63776  Biso   1.000  Zn
  O1       1.0000 0.40480  0.67991  0.63140  Biso   1.000  O
  O2       1.0000 0.47680  0.93832  0.64290  Biso   1.000  O
  O3       1.0000 0.32990  0.93768  0.64470  Biso   1.000  O
  O4       1.0000 0.03430  0.55834  0.64610  Biso   1.000  O
  O5       1.0000 0.13750  0.55509  0.79040  Biso   1.000  O
  N1       1.0000 0.33200  0.02875  0.50670  Biso   1.000  N
  N2       1.0000 0.08870  0.00793  0.18840  Biso   1.000  N
  C1       1.0000 0.40360  0.85070  0.64310  Biso   1.000  C
  C2       1.0000 0.47700  0.82236  0.62860  Biso   1.000  C
  H1       1.0000 0.52850  0.84230  0.62180  Biso   1.000  H
  C3       1.0000 0.47620  0.76564  0.62410  Biso   1.000  C
  H2       1.0000 0.52590  0.74650  0.61290  Biso   1.000  H
  C4       1.0000 0.40120  0.73683  0.63630  Biso   1.000  C
  C5       1.0000 0.32700  0.76447  0.65110  Biso   1.000  C
  H3       1.0000 0.27600  0.74460  0.65880  Biso   1.000  H
  C6       1.0000 0.32880  0.82176  0.65440  Biso   1.000  C
  H4       1.0000 0.27870  0.84110  0.66450  Biso   1.000  H
  C7       1.0000 0.40220  0.91173  0.64420  Biso   1.000  C
  C8       1.0000 0.33400  0.65159  0.65100  Biso   1.000  C
  C9       1.0000 0.35270  0.63714  0.73910  Biso   1.000  C
  H5       1.0000 0.41310  0.64640  0.78610  Biso   1.000  H
  C10      1.0000 0.28200  0.60922  0.75680  Biso   1.000  C
  H6       1.0000 0.29460  0.59810  0.81640  Biso   1.000  H
  C11      1.0000 0.19180  0.59701  0.68840  Biso   1.000  C
  C12      1.0000 0.17520  0.61039  0.60050  Biso   1.000  C
  H7       1.0000 0.11510  0.60080  0.55330  Biso   1.000  H
  C13      1.0000 0.24660  0.63780  0.58180  Biso   1.000  C
  H8       1.0000 0.23570  0.64710  0.52180  Biso   1.000  H
  C14      1.0000 0.11530  0.56779  0.71020  Biso   1.000  C
  C15      1.0000 0.36900  0.04884  0.44980  Biso   1.000  C
  H9       1.0000 0.43470  0.06140  0.47410  Biso   1.000  H
  C16      1.0000 0.31850  0.05240  0.35950  Biso   1.000  C
  H10      1.0000 0.34850  0.06690  0.32230  Biso   1.000  H
  C17      1.0000 0.22210  0.03434  0.32300  Biso   1.000  C
  C18      1.0000 0.18120  0.01413  0.37980  Biso   1.000  C
  H11      1.0000 0.11540  0.00170  0.35660  Biso   1.000  H
  C19      1.0000 0.23710  0.01222  0.47070  Biso   1.000  C
  H12      1.0000 0.20820  0.99890  0.50950  Biso   1.000  H
  C20      1.0000 0.16980  0.03223  0.22390  Biso   1.000  C
  H13      1.0000 0.19770  0.04940  0.18700  Biso   1.000  H
  C21      1.0000 0.04490  0.00599  0.09320  Biso   1.000  C
  C22      1.0000 0.00020  0.95569  0.05410  Biso   1.000  C
  H14      1.0000 0.00020  0.92560  0.09140  Biso   1.000  H
  C23      1.0000 0.04340  0.04976  0.03820  Biso   1.000  C
  H15      1.0000 0.07250  0.08370  0.06390  Biso   1.000  H
  Zn2      1.0000 0.91865  0.51345  0.63776  Biso   1.000  Zn
  O6       1.0000 0.90480  0.17991  0.63140  Biso   1.000  O
  O7       1.0000 0.97680  0.43832  0.64290  Biso   1.000  O
  O8       1.0000 0.82990  0.43768  0.64470  Biso   1.000  O
  O9       1.0000 0.53430  0.05834  0.64610  Biso   1.000  O
  O10      1.0000 0.63750  0.05509  0.79040  Biso   1.000  O
  N3       1.0000 0.83200  0.52875  0.50670  Biso   1.000  N
  N4       1.0000 0.58870  0.50793  0.18840  Biso   1.000  N
  C24      1.0000 0.90360  0.35070  0.64310  Biso   1.000  C
  C25      1.0000 0.97700  0.32236  0.62860  Biso   1.000  C
  H16      1.0000 0.02850  0.34230  0.62180  Biso   1.000  H
  C26      1.0000 0.97620  0.26564  0.62410  Biso   1.000  C
  H17      1.0000 0.02590  0.24650  0.61290  Biso   1.000  H
  C27      1.0000 0.90120  0.23683  0.63630  Biso   1.000  C
  C28      1.0000 0.82700  0.26447  0.65110  Biso   1.000  C
  H18      1.0000 0.77600  0.24460  0.65880  Biso   1.000  H
  C29      1.0000 0.82880  0.32176  0.65440  Biso   1.000  C
  H19      1.0000 0.77870  0.34110  0.66450  Biso   1.000  H
  C30      1.0000 0.90220  0.41173  0.64420  Biso   1.000  C
  C31      1.0000 0.83400  0.15159  0.65100  Biso   1.000  C
  C32      1.0000 0.85270  0.13714  0.73910  Biso   1.000  C
  H20      1.0000 0.91310  0.14640  0.78610  Biso   1.000  H
  C33      1.0000 0.78200  0.10922  0.75680  Biso   1.000  C
  H21      1.0000 0.79460  0.09810  0.81640  Biso   1.000  H
  C34      1.0000 0.69180  0.09701  0.68840  Biso   1.000  C
  C35      1.0000 0.67520  0.11039  0.60050  Biso   1.000  C
  H22      1.0000 0.61510  0.10080  0.55330  Biso   1.000  H
  C36      1.0000 0.74660  0.13780  0.58180  Biso   1.000  C
  H23      1.0000 0.73570  0.14710  0.52180  Biso   1.000  H
  C37      1.0000 0.61530  0.06779  0.71020  Biso   1.000  C
  C38      1.0000 0.86900  0.54884  0.44980  Biso   1.000  C
  H24      1.0000 0.93470  0.56140  0.47410  Biso   1.000  H
  C39      1.0000 0.81850  0.55240  0.35950  Biso   1.000  C
  H25      1.0000 0.84850  0.56690  0.32230  Biso   1.000  H
  C40      1.0000 0.72210  0.53434  0.32300  Biso   1.000  C
  C41      1.0000 0.68120  0.51413  0.37980  Biso   1.000  C
  H26      1.0000 0.61540  0.50170  0.35660  Biso   1.000  H
  C42      1.0000 0.73710  0.51222  0.47070  Biso   1.000  C
  H27      1.0000 0.70820  0.49890  0.50950  Biso   1.000  H
  C43      1.0000 0.66980  0.53223  0.22390  Biso   1.000  C
  H28      1.0000 0.69770  0.54940  0.18700  Biso   1.000  H
  C44      1.0000 0.54490  0.50599  0.09320  Biso   1.000  C
  C45      1.0000 0.50020  0.45569  0.05410  Biso   1.000  C
  H29      1.0000 0.50020  0.42560  0.09140  Biso   1.000  H
  C46      1.0000 0.54340  0.54976  0.03820  Biso   1.000  C
  H30      1.0000 0.57250  0.58370  0.06390  Biso   1.000  H
  Zn3      1.0000 0.58135  0.01345  0.86224  Biso   1.000  Zn
  O11      1.0000 0.59520  0.67991  0.86860  Biso   1.000  O
  O12      1.0000 0.52320  0.93832  0.85710  Biso   1.000  O
  O13      1.0000 0.67010  0.93768  0.85530  Biso   1.000  O
  O14      1.0000 0.96570  0.55834  0.85390  Biso   1.000  O
  O15      1.0000 0.86250  0.55509  0.70960  Biso   1.000  O
  N5       1.0000 0.66800  0.02875  0.99330  Biso   1.000  N
  N6       1.0000 0.91130  0.00793  0.31160  Biso   1.000  N
  C47      1.0000 0.59640  0.85070  0.85690  Biso   1.000  C
  C48      1.0000 0.52300  0.82236  0.87140  Biso   1.000  C
  H31      1.0000 0.47150  0.84230  0.87820  Biso   1.000  H
  C49      1.0000 0.52380  0.76564  0.87590  Biso   1.000  C
  H32      1.0000 0.47410  0.74650  0.88710  Biso   1.000  H
  C50      1.0000 0.59880  0.73683  0.86370  Biso   1.000  C
  C51      1.0000 0.67300  0.76447  0.84890  Biso   1.000  C
  H33      1.0000 0.72400  0.74460  0.84120  Biso   1.000  H
  C52      1.0000 0.67120  0.82176  0.84560  Biso   1.000  C
  H34      1.0000 0.72130  0.84110  0.83550  Biso   1.000  H
  C53      1.0000 0.59780  0.91173  0.85580  Biso   1.000  C
  C54      1.0000 0.66600  0.65159  0.84900  Biso   1.000  C
  C55      1.0000 0.64730  0.63714  0.76090  Biso   1.000  C
  H35      1.0000 0.58690  0.64640  0.71390  Biso   1.000  H
  C56      1.0000 0.71800  0.60922  0.74320  Biso   1.000  C
  H36      1.0000 0.70540  0.59810  0.68360  Biso   1.000  H
  C57      1.0000 0.80820  0.59701  0.81160  Biso   1.000  C
  C58      1.0000 0.82480  0.61039  0.89950  Biso   1.000  C
  H37      1.0000 0.88490  0.60080  0.94670  Biso   1.000  H
  C59      1.0000 0.75340  0.63780  0.91820  Biso   1.000  C
  H38      1.0000 0.76430  0.64710  0.97820  Biso   1.000  H
  C60      1.0000 0.88470  0.56779  0.78980  Biso   1.000  C
  C61      1.0000 0.63100  0.04884  0.05020  Biso   1.000  C
  H39      1.0000 0.56530  0.06140  0.02590  Biso   1.000  H
  C62      1.0000 0.68150  0.05240  0.14050  Biso   1.000  C
  H40      1.0000 0.65150  0.06690  0.17770  Biso   1.000  H
  C63      1.0000 0.77790  0.03434  0.17700  Biso   1.000  C
  C64      1.0000 0.81880  0.01413  0.12020  Biso   1.000  C
  H41      1.0000 0.88460  0.00170  0.14340  Biso   1.000  H
  C65      1.0000 0.76290  0.01222  0.02930  Biso   1.000  C
  H42      1.0000 0.79180  0.99890  0.99050  Biso   1.000  H
  C66      1.0000 0.83020  0.03223  0.27610  Biso   1.000  C
  H43      1.0000 0.80230  0.04940  0.31300  Biso   1.000  H
  C67      1.0000 0.95510  0.00599  0.40680  Biso   1.000  C
  C68      1.0000 0.99980  0.95569  0.44590  Biso   1.000  C
  H44      1.0000 0.99980  0.92560  0.40860  Biso   1.000  H
  C69      1.0000 0.95660  0.04976  0.46180  Biso   1.000  C
  H45      1.0000 0.92750  0.08370  0.43610  Biso   1.000  H
  Zn4      1.0000 0.08135  0.51345  0.86224  Biso   1.000  Zn
  O16      1.0000 0.09520  0.17991  0.86860  Biso   1.000  O
  O17      1.0000 0.02320  0.43832  0.85710  Biso   1.000  O
  O18      1.0000 0.17010  0.43768  0.85530  Biso   1.000  O
  O19      1.0000 0.46570  0.05834  0.85390  Biso   1.000  O
  O20      1.0000 0.36250  0.05509  0.70960  Biso   1.000  O
  N7       1.0000 0.16800  0.52875  0.99330  Biso   1.000  N
  N8       1.0000 0.41130  0.50793  0.31160  Biso   1.000  N
  C70      1.0000 0.09640  0.35070  0.85690  Biso   1.000  C
  C71      1.0000 0.02300  0.32236  0.87140  Biso   1.000  C
  H46      1.0000 0.97150  0.34230  0.87820  Biso   1.000  H
  C72      1.0000 0.02380  0.26564  0.87590  Biso   1.000  C
  H47      1.0000 0.97410  0.24650  0.88710  Biso   1.000  H
  C73      1.0000 0.09880  0.23683  0.86370  Biso   1.000  C
  C74      1.0000 0.17300  0.26447  0.84890  Biso   1.000  C
  H48      1.0000 0.22400  0.24460  0.84120  Biso   1.000  H
  C75      1.0000 0.17120  0.32176  0.84560  Biso   1.000  C
  H49      1.0000 0.22130  0.34110  0.83550  Biso   1.000  H
  C76      1.0000 0.09780  0.41173  0.85580  Biso   1.000  C
  C77      1.0000 0.16600  0.15159  0.84900  Biso   1.000  C
  C78      1.0000 0.14730  0.13714  0.76090  Biso   1.000  C
  H50      1.0000 0.08690  0.14640  0.71390  Biso   1.000  H
  C79      1.0000 0.21800  0.10922  0.74320  Biso   1.000  C
  H51      1.0000 0.20540  0.09810  0.68360  Biso   1.000  H
  C80      1.0000 0.30820  0.09701  0.81160  Biso   1.000  C
  C81      1.0000 0.32480  0.11039  0.89950  Biso   1.000  C
  H52      1.0000 0.38490  0.10080  0.94670  Biso   1.000  H
  C82      1.0000 0.25340  0.13780  0.91820  Biso   1.000  C
  H53      1.0000 0.26430  0.14710  0.97820  Biso   1.000  H
  C83      1.0000 0.38470  0.06779  0.78980  Biso   1.000  C
  C84      1.0000 0.13100  0.54884  0.05020  Biso   1.000  C
  H54      1.0000 0.06530  0.56140  0.02590  Biso   1.000  H
  C85      1.0000 0.18150  0.55240  0.14050  Biso   1.000  C
  H55      1.0000 0.15150  0.56690  0.17770  Biso   1.000  H
  C86      1.0000 0.27790  0.53434  0.17700  Biso   1.000  C
  C87      1.0000 0.31880  0.51413  0.12020  Biso   1.000  C
  H56      1.0000 0.38460  0.50170  0.14340  Biso   1.000  H
  C88      1.0000 0.26290  0.51222  0.02930  Biso   1.000  C
  H57      1.0000 0.29180  0.49890  0.99050  Biso   1.000  H
  C89      1.0000 0.33020  0.53223  0.27610  Biso   1.000  C
  H58      1.0000 0.30230  0.54940  0.31300  Biso   1.000  H
  C90      1.0000 0.45510  0.50599  0.40680  Biso   1.000  C
  C91      1.0000 0.49980  0.45569  0.44590  Biso   1.000  C
  H59      1.0000 0.49980  0.42560  0.40860  Biso   1.000  H
  C92      1.0000 0.45660  0.54976  0.46180  Biso   1.000  C
  H60      1.0000 0.42750  0.58370  0.43610  Biso   1.000  H
  Zn5      1.0000 0.58135  0.98655  0.36224  Biso   1.000  Zn
  O21      1.0000 0.59520  0.32009  0.36860  Biso   1.000  O
  O22      1.0000 0.52320  0.06168  0.35710  Biso   1.000  O
  O23      1.0000 0.67010  0.06232  0.35530  Biso   1.000  O
  O24      1.0000 0.96570  0.44166  0.35390  Biso   1.000  O
  O25      1.0000 0.86250  0.44491  0.20960  Biso   1.000  O
  N9       1.0000 0.66800  0.97125  0.49330  Biso   1.000  N
  N10      1.0000 0.91130  0.99207  0.81160  Biso   1.000  N
  C93      1.0000 0.59640  0.14930  0.35690  Biso   1.000  C
  C94      1.0000 0.52300  0.17764  0.37140  Biso   1.000  C
  H61      1.0000 0.47150  0.15770  0.37820  Biso   1.000  H
  C95      1.0000 0.52380  0.23436  0.37590  Biso   1.000  C
  H62      1.0000 0.47410  0.25350  0.38710  Biso   1.000  H
  C96      1.0000 0.59880  0.26317  0.36370  Biso   1.000  C
  C97      1.0000 0.67300  0.23553  0.34890  Biso   1.000  C
  H63      1.0000 0.72400  0.25540  0.34120  Biso   1.000  H
  C98      1.0000 0.67120  0.17824  0.34560  Biso   1.000  C
  H64      1.0000 0.72130  0.15890  0.33550  Biso   1.000  H
  C99      1.0000 0.59780  0.08827  0.35580  Biso   1.000  C
  C100     1.0000 0.66600  0.34841  0.34900  Biso   1.000  C
  C101     1.0000 0.64730  0.36286  0.26090  Biso   1.000  C
  H65      1.0000 0.58690  0.35360  0.21390  Biso   1.000  H
  C102     1.0000 0.71800  0.39078  0.24320  Biso   1.000  C
  H66      1.0000 0.70540  0.40190  0.18360  Biso   1.000  H
  C103     1.0000 0.80820  0.40299  0.31160  Biso   1.000  C
  C104     1.0000 0.82480  0.38961  0.39950  Biso   1.000  C
  H67      1.0000 0.88490  0.39920  0.44670  Biso   1.000  H
  C105     1.0000 0.75340  0.36220  0.41820  Biso   1.000  C
  H68      1.0000 0.76430  0.35290  0.47820  Biso   1.000  H
  C106     1.0000 0.88470  0.43221  0.28980  Biso   1.000  C
  C107     1.0000 0.63100  0.95116  0.55020  Biso   1.000  C
  H69      1.0000 0.56530  0.93860  0.52590  Biso   1.000  H
  C108     1.0000 0.68150  0.94760  0.64050  Biso   1.000  C
  H70      1.0000 0.65150  0.93310  0.67770  Biso   1.000  H
  C109     1.0000 0.77790  0.96566  0.67700  Biso   1.000  C
  C110     1.0000 0.81880  0.98587  0.62020  Biso   1.000  C
  H71      1.0000 0.88460  0.99830  0.64340  Biso   1.000  H
  C111     1.0000 0.76290  0.98778  0.52930  Biso   1.000  C
  H72      1.0000 0.79180  0.00110  0.49050  Biso   1.000  H
  C112     1.0000 0.83020  0.96777  0.77610  Biso   1.000  C
  H73      1.0000 0.80230  0.95060  0.81300  Biso   1.000  H
  C113     1.0000 0.95510  0.99401  0.90680  Biso   1.000  C
  C114     1.0000 0.99980  0.04431  0.94590  Biso   1.000  C
  H74      1.0000 0.99980  0.07440  0.90860  Biso   1.000  H
  C115     1.0000 0.95660  0.95024  0.96180  Biso   1.000  C
  H75      1.0000 0.92750  0.91630  0.93610  Biso   1.000  H
  Zn6      1.0000 0.08135  0.48655  0.36224  Biso   1.000  Zn
  O26      1.0000 0.09520  0.82009  0.36860  Biso   1.000  O
  O27      1.0000 0.02320  0.56168  0.35710  Biso   1.000  O
  O28      1.0000 0.17010  0.56232  0.35530  Biso   1.000  O
  O29      1.0000 0.46570  0.94166  0.35390  Biso   1.000  O
  O30      1.0000 0.36250  0.94491  0.20960  Biso   1.000  O
  N11      1.0000 0.16800  0.47125  0.49330  Biso   1.000  N
  N12      1.0000 0.41130  0.49207  0.81160  Biso   1.000  N
  C116     1.0000 0.09640  0.64930  0.35690  Biso   1.000  C
  C117     1.0000 0.02300  0.67764  0.37140  Biso   1.000  C
  H76      1.0000 0.97150  0.65770  0.37820  Biso   1.000  H
  C118     1.0000 0.02380  0.73436  0.37590  Biso   1.000  C
  H77      1.0000 0.97410  0.75350  0.38710  Biso   1.000  H
  C119     1.0000 0.09880  0.76317  0.36370  Biso   1.000  C
  C120     1.0000 0.17300  0.73553  0.34890  Biso   1.000  C
  H78      1.0000 0.22400  0.75540  0.34120  Biso   1.000  H
  C121     1.0000 0.17120  0.67824  0.34560  Biso   1.000  C
  H79      1.0000 0.22130  0.65890  0.33550  Biso   1.000  H
  C122     1.0000 0.09780  0.58827  0.35580  Biso   1.000  C
  C123     1.0000 0.16600  0.84841  0.34900  Biso   1.000  C
  C124     1.0000 0.14730  0.86286  0.26090  Biso   1.000  C
  H80      1.0000 0.08690  0.85360  0.21390  Biso   1.000  H
  C125     1.0000 0.21800  0.89078  0.24320  Biso   1.000  C
  H81      1.0000 0.20540  0.90190  0.18360  Biso   1.000  H
  C126     1.0000 0.30820  0.90299  0.31160  Biso   1.000  C
  C127     1.0000 0.32480  0.88961  0.39950  Biso   1.000  C
  H82      1.0000 0.38490  0.89920  0.44670  Biso   1.000  H
  C128     1.0000 0.25340  0.86220  0.41820  Biso   1.000  C
  H83      1.0000 0.26430  0.85290  0.47820  Biso   1.000  H
  C129     1.0000 0.38470  0.93221  0.28980  Biso   1.000  C
  C130     1.0000 0.13100  0.45116  0.55020  Biso   1.000  C
  H84      1.0000 0.06530  0.43860  0.52590  Biso   1.000  H
  C131     1.0000 0.18150  0.44760  0.64050  Biso   1.000  C
  H85      1.0000 0.15150  0.43310  0.67770  Biso   1.000  H
  C132     1.0000 0.27790  0.46566  0.67700  Biso   1.000  C
  C133     1.0000 0.31880  0.48587  0.62020  Biso   1.000  C
  H86      1.0000 0.38460  0.49830  0.64340  Biso   1.000  H
  C134     1.0000 0.26290  0.48778  0.52930  Biso   1.000  C
  H87      1.0000 0.29180  0.50110  0.49050  Biso   1.000  H
  C135     1.0000 0.33020  0.46777  0.77610  Biso   1.000  C
  H88      1.0000 0.30230  0.45060  0.81300  Biso   1.000  H
  C136     1.0000 0.45510  0.49401  0.90680  Biso   1.000  C
  C137     1.0000 0.49980  0.54431  0.94590  Biso   1.000  C
  H89      1.0000 0.49980  0.57440  0.90860  Biso   1.000  H
  C138     1.0000 0.45660  0.45024  0.96180  Biso   1.000  C
  H90      1.0000 0.42750  0.41630  0.93610  Biso   1.000  H
  Zn7      1.0000 0.41865  0.98655  0.13776  Biso   1.000  Zn
  O31      1.0000 0.40480  0.32009  0.13140  Biso   1.000  O
  O32      1.0000 0.47680  0.06168  0.14290  Biso   1.000  O
  O33      1.0000 0.32990  0.06232  0.14470  Biso   1.000  O
  O34      1.0000 0.03430  0.44166  0.14610  Biso   1.000  O
  O35      1.0000 0.13750  0.44491  0.29040  Biso   1.000  O
  N13      1.0000 0.33200  0.97125  0.00670  Biso   1.000  N
  N14      1.0000 0.08870  0.99207  0.68840  Biso   1.000  N
  C139     1.0000 0.40360  0.14930  0.14310  Biso   1.000  C
  C140     1.0000 0.47700  0.17764  0.12860  Biso   1.000  C
  H91      1.0000 0.52850  0.15770  0.12180  Biso   1.000  H
  C141     1.0000 0.47620  0.23436  0.12410  Biso   1.000  C
  H92      1.0000 0.52590  0.25350  0.11290  Biso   1.000  H
  C142     1.0000 0.40120  0.26317  0.13630  Biso   1.000  C
  C143     1.0000 0.32700  0.23553  0.15110  Biso   1.000  C
  H93      1.0000 0.27600  0.25540  0.15880  Biso   1.000  H
  C144     1.0000 0.32880  0.17824  0.15440  Biso   1.000  C
  H94      1.0000 0.27870  0.15890  0.16450  Biso   1.000  H
  C145     1.0000 0.40220  0.08827  0.14420  Biso   1.000  C
  C146     1.0000 0.33400  0.34841  0.15100  Biso   1.000  C
  C147     1.0000 0.35270  0.36286  0.23910  Biso   1.000  C
  H95      1.0000 0.41310  0.35360  0.28610  Biso   1.000  H
  C148     1.0000 0.28200  0.39078  0.25680  Biso   1.000  C
  H96      1.0000 0.29460  0.40190  0.31640  Biso   1.000  H
  C149     1.0000 0.19180  0.40299  0.18840  Biso   1.000  C
  C150     1.0000 0.17520  0.38961  0.10050  Biso   1.000  C
  H97      1.0000 0.11510  0.39920  0.05330  Biso   1.000  H
  C151     1.0000 0.24660  0.36220  0.08180  Biso   1.000  C
  H98      1.0000 0.23570  0.35290  0.02180  Biso   1.000  H
  C152     1.0000 0.11530  0.43221  0.21020  Biso   1.000  C
  C153     1.0000 0.36900  0.95116  0.94980  Biso   1.000  C
  H99      1.0000 0.43470  0.93860  0.97410  Biso   1.000  H
  C154     1.0000 0.31850  0.94760  0.85950  Biso   1.000  C
  H100     1.0000 0.34850  0.93310  0.82230  Biso   1.000  H
  C155     1.0000 0.22210  0.96566  0.82300  Biso   1.000  C
  C156     1.0000 0.18120  0.98587  0.87980  Biso   1.000  C
  H101     1.0000 0.11540  0.99830  0.85660  Biso   1.000  H
  C157     1.0000 0.23710  0.98778  0.97070  Biso   1.000  C
  H102     1.0000 0.20820  0.00110  0.00950  Biso   1.000  H
  C158     1.0000 0.16980  0.96777  0.72390  Biso   1.000  C
  H103     1.0000 0.19770  0.95060  0.68700  Biso   1.000  H
  C159     1.0000 0.04490  0.99401  0.59320  Biso   1.000  C
  C160     1.0000 0.00020  0.04431  0.55410  Biso   1.000  C
  H104     1.0000 0.00020  0.07440  0.59140  Biso   1.000  H
  C161     1.0000 0.04340  0.95024  0.53820  Biso   1.000  C
  H105     1.0000 0.07250  0.91630  0.56390  Biso   1.000  H
  Zn8      1.0000 0.91865  0.48655  0.13776  Biso   1.000  Zn
  O36      1.0000 0.90480  0.82009  0.13140  Biso   1.000  O
  O37      1.0000 0.97680  0.56168  0.14290  Biso   1.000  O
  O38      1.0000 0.82990  0.56232  0.14470  Biso   1.000  O
  O39      1.0000 0.53430  0.94166  0.14610  Biso   1.000  O
  O40      1.0000 0.63750  0.94491  0.29040  Biso   1.000  O
  N15      1.0000 0.83200  0.47125  0.00670  Biso   1.000  N
  N16      1.0000 0.58870  0.49207  0.68840  Biso   1.000  N
  C162     1.0000 0.90360  0.64930  0.14310  Biso   1.000  C
  C163     1.0000 0.97700  0.67764  0.12860  Biso   1.000  C
  H106     1.0000 0.02850  0.65770  0.12180  Biso   1.000  H
  C164     1.0000 0.97620  0.73436  0.12410  Biso   1.000  C
  H107     1.0000 0.02590  0.75350  0.11290  Biso   1.000  H
  C165     1.0000 0.90120  0.76317  0.13630  Biso   1.000  C
  C166     1.0000 0.82700  0.73553  0.15110  Biso   1.000  C
  H108     1.0000 0.77600  0.75540  0.15880  Biso   1.000  H
  C167     1.0000 0.82880  0.67824  0.15440  Biso   1.000  C
  H109     1.0000 0.77870  0.65890  0.16450  Biso   1.000  H
  C168     1.0000 0.90220  0.58827  0.14420  Biso   1.000  C
  C169     1.0000 0.83400  0.84841  0.15100  Biso   1.000  C
  C170     1.0000 0.85270  0.86286  0.23910  Biso   1.000  C
  H110     1.0000 0.91310  0.85360  0.28610  Biso   1.000  H
  C171     1.0000 0.78200  0.89078  0.25680  Biso   1.000  C
  H111     1.0000 0.79460  0.90190  0.31640  Biso   1.000  H
  C172     1.0000 0.69180  0.90299  0.18840  Biso   1.000  C
  C173     1.0000 0.67520  0.88961  0.10050  Biso   1.000  C
  H112     1.0000 0.61510  0.89920  0.05330  Biso   1.000  H
  C174     1.0000 0.74660  0.86220  0.08180  Biso   1.000  C
  H113     1.0000 0.73570  0.85290  0.02180  Biso   1.000  H
  C175     1.0000 0.61530  0.93221  0.21020  Biso   1.000  C
  C176     1.0000 0.86900  0.45116  0.94980  Biso   1.000  C
  H114     1.0000 0.93470  0.43860  0.97410  Biso   1.000  H
  C177     1.0000 0.81850  0.44760  0.85950  Biso   1.000  C
  H115     1.0000 0.84850  0.43310  0.82230  Biso   1.000  H
  C178     1.0000 0.72210  0.46566  0.82300  Biso   1.000  C
  C179     1.0000 0.68120  0.48587  0.87980  Biso   1.000  C
  H116     1.0000 0.61540  0.49830  0.85660  Biso   1.000  H
  C180     1.0000 0.73710  0.48778  0.97070  Biso   1.000  C
  H117     1.0000 0.70820  0.50110  0.00950  Biso   1.000  H
  C181     1.0000 0.66980  0.46777  0.72390  Biso   1.000  C
  H118     1.0000 0.69770  0.45060  0.68700  Biso   1.000  H
  C182     1.0000 0.54490  0.49401  0.59320  Biso   1.000  C
  C183     1.0000 0.50020  0.54431  0.55410  Biso   1.000  C
  H119     1.0000 0.50020  0.57440  0.59140  Biso   1.000  H
  C184     1.0000 0.54340  0.45024  0.53820  Biso   1.000  C
  H120     1.0000 0.57250  0.41630  0.56390  Biso   1.000  H
