data_image0
_cell_length_a       12.3989
_cell_length_b       33.418
_cell_length_c       12.9445
_cell_angle_alpha    90
_cell_angle_beta     98.312
_cell_angle_gamma    90

_symmetry_space_group_name_H-M    "P 1"
_symmetry_int_tables_number       1

loop_
  _symmetry_equiv_pos_as_xyz
  'x, y, z'

loop_
  _atom_site_label
  _atom_site_occupancy
  _atom_site_fract_x
  _atom_site_fract_y
  _atom_site_fract_z
  _atom_site_thermal_displace_type
  _atom_site_B_iso_or_equiv
  _atom_site_type_symbol
  Mn1      1.0000 0.29943  0.43072  0.89393  Biso   1.000  Mn
  N1       1.0000 0.11330  0.36790  0.80450  Biso   1.000  N
  O1       1.0000 0.30510  0.42384  0.05560  Biso   1.000  O
  O2       1.0000 0.44510  0.37835  0.91300  Biso   1.000  O
  O3       1.0000 0.47320  0.44327  0.90710  Biso   1.000  O
  O4       1.0000 0.22990  0.48671  0.85100  Biso   1.000  O
  O5       1.0000 0.36950  0.52716  0.90310  Biso   1.000  O
  N2       1.0000 0.29970  0.41176  0.72450  Biso   1.000  N
  O6       1.0000 0.39700  0.47876  0.10830  Biso   1.000  O
  N3       1.0000 0.23920  0.37956  0.68480  Biso   1.000  N
  N4       1.0000 0.13760  0.40029  0.86920  Biso   1.000  N
  N5       1.0000 0.93070  0.71468  0.68110  Biso   1.000  N
  C1       1.0000 0.30060  0.42115  0.44160  Biso   1.000  C
  N6       1.0000 0.86870  0.70622  0.75850  Biso   1.000  N
  C2       1.0000 0.04350  0.41210  0.89810  Biso   1.000  C
  C3       1.0000 0.84210  0.39061  0.86420  Biso   1.000  C
  C4       1.0000 0.32840  0.43085  0.64230  Biso   1.000  C
  C5       1.0000 0.34600  0.44780  0.12340  Biso   1.000  C
  C6       1.0000 0.95820  0.38658  0.85170  Biso   1.000  C
  C7       1.0000 0.33110  0.43887  0.23500  Biso   1.000  C
  C8       1.0000 0.27300  0.52066  0.86470  Biso   1.000  C
  C9       1.0000 0.62540  0.40069  0.89410  Biso   1.000  C
  C10      1.0000 0.68480  0.43276  0.86550  Biso   1.000  C
  H1       1.0000 0.65160  0.45840  0.85580  Biso   1.000  H
  C11      1.0000 0.50880  0.40727  0.90710  Biso   1.000  C
  C12      1.0000 0.20080  0.35151  0.75680  Biso   1.000  C
  H2       1.0000 0.17570  0.32670  0.71880  Biso   1.000  H
  H3       1.0000 0.26190  0.34440  0.81170  Biso   1.000  H
  C13      1.0000 0.01440  0.68759  0.68090  Biso   1.000  C
  C14      1.0000 0.09100  0.55224  0.79780  Biso   1.000  C
  H4       1.0000 0.05960  0.52630  0.79110  Biso   1.000  H
  C15      1.0000 0.79150  0.42787  0.85100  Biso   1.000  C
  H5       1.0000 0.83150  0.45020  0.83160  Biso   1.000  H
  C16      1.0000 0.20180  0.55669  0.83230  Biso   1.000  C
  C17      1.0000 0.28530  0.41089  0.54950  Biso   1.000  C
  C18      1.0000 0.00620  0.35888  0.79360  Biso   1.000  C
  C19      1.0000 0.00250  0.66044  0.75720  Biso   1.000  C
  C20      1.0000 0.02650  0.58579  0.77330  Biso   1.000  C
  H6       1.0000 0.95060  0.58260  0.75040  Biso   1.000  H
  C21      1.0000 0.07120  0.62405  0.78160  Biso   1.000  C
  C22      1.0000 0.04030  0.44690  0.97140  Biso   1.000  C
  H7       1.0000 0.02650  0.47160  0.93100  Biso   1.000  H
  H8       1.0000 0.11040  0.44900  0.01710  Biso   1.000  H
  H9       1.0000 0.98190  0.44270  0.01390  Biso   1.000  H
  C23      1.0000 0.91310  0.67214  0.80560  Biso   1.000  C
  C24      1.0000 0.67260  0.36292  0.90760  Biso   1.000  C
  H10      1.0000 0.63120  0.34070  0.92500  Biso   1.000  H
  C25      1.0000 0.78230  0.35824  0.89500  Biso   1.000  C
  H11      1.0000 0.81640  0.33290  0.90730  Biso   1.000  H
  C26      1.0000 0.22820  0.37856  0.57970  Biso   1.000  C
  C27      1.0000 0.33060  0.39924  0.26890  Biso   1.000  C
  H12      1.0000 0.33920  0.37820  0.22150  Biso   1.000  H
  C28      1.0000 0.31570  0.46918  0.30450  Biso   1.000  C
  H13      1.0000 0.31610  0.49630  0.28230  Biso   1.000  H
  C29      1.0000 0.24790  0.59433  0.84040  Biso   1.000  C
  H14      1.0000 0.32390  0.59730  0.86260  Biso   1.000  H
  C30      1.0000 0.31790  0.39032  0.37020  Biso   1.000  C
  H15      1.0000 0.32080  0.36320  0.39260  Biso   1.000  H
  C31      1.0000 0.87440  0.65439  0.89870  Biso   1.000  C
  H16      1.0000 0.80980  0.66890  0.91380  Biso   1.000  H
  H17      1.0000 0.93210  0.65630  0.95880  Biso   1.000  H
  H18      1.0000 0.85580  0.62620  0.88510  Biso   1.000  H
  C32      1.0000 0.29980  0.46043  0.40640  Biso   1.000  C
  H19      1.0000 0.28810  0.48160  0.45250  Biso   1.000  H
  C33      1.0000 0.18230  0.62824  0.81590  Biso   1.000  C
  H20      1.0000 0.21400  0.65420  0.82270  Biso   1.000  H
  C34      1.0000 0.39700  0.46797  0.65570  Biso   1.000  C
  H21      1.0000 0.43260  0.46990  0.72820  Biso   1.000  H
  H22      1.0000 0.35060  0.49150  0.63860  Biso   1.000  H
  H23      1.0000 0.45250  0.46680  0.60910  Biso   1.000  H
  C35      1.0000 0.09420  0.69115  0.60610  Biso   1.000  C
  H24      1.0000 0.14540  0.71290  0.62830  Biso   1.000  H
  H25      1.0000 0.05550  0.69690  0.53630  Biso   1.000  H
  H26      1.0000 0.13440  0.66600  0.60460  Biso   1.000  H
  C36      1.0000 0.95680  0.32536  0.72660  Biso   1.000  C
  H27      1.0000 0.98590  0.29980  0.75570  Biso   1.000  H
  H28      1.0000 0.97450  0.32850  0.65570  Biso   1.000  H
  H29      1.0000 0.87750  0.32570  0.72460  Biso   1.000  H
  C37      1.0000 0.15950  0.34800  0.51680  Biso   1.000  C
  H30      1.0000 0.08600  0.34820  0.53630  Biso   1.000  H
  H31      1.0000 0.19200  0.32150  0.53050  Biso   1.000  H
  H32      1.0000 0.15540  0.35430  0.44240  Biso   1.000  H
  Mn2      1.0000 0.70057  0.93072  0.10607  Biso   1.000  Mn
  N7       1.0000 0.88670  0.86790  0.19550  Biso   1.000  N
  O7       1.0000 0.69490  0.92384  0.94440  Biso   1.000  O
  O8       1.0000 0.55490  0.87835  0.08700  Biso   1.000  O
  O9       1.0000 0.52680  0.94327  0.09290  Biso   1.000  O
  O10      1.0000 0.77010  0.98671  0.14900  Biso   1.000  O
  O11      1.0000 0.63050  0.02716  0.09690  Biso   1.000  O
  N8       1.0000 0.70030  0.91176  0.27550  Biso   1.000  N
  O12      1.0000 0.60300  0.97876  0.89170  Biso   1.000  O
  N9       1.0000 0.76080  0.87956  0.31520  Biso   1.000  N
  N10      1.0000 0.86240  0.90029  0.13080  Biso   1.000  N
  N11      1.0000 0.06930  0.21468  0.31890  Biso   1.000  N
  C38      1.0000 0.69940  0.92115  0.55840  Biso   1.000  C
  N12      1.0000 0.13130  0.20622  0.24150  Biso   1.000  N
  C39      1.0000 0.95650  0.91210  0.10190  Biso   1.000  C
  C40      1.0000 0.15790  0.89061  0.13580  Biso   1.000  C
  C41      1.0000 0.67160  0.93085  0.35770  Biso   1.000  C
  C42      1.0000 0.65400  0.94780  0.87660  Biso   1.000  C
  C43      1.0000 0.04180  0.88658  0.14830  Biso   1.000  C
  C44      1.0000 0.66890  0.93887  0.76500  Biso   1.000  C
  C45      1.0000 0.72700  0.02066  0.13530  Biso   1.000  C
  C46      1.0000 0.37460  0.90069  0.10590  Biso   1.000  C
  C47      1.0000 0.31520  0.93276  0.13450  Biso   1.000  C
  H33      1.0000 0.34840  0.95840  0.14420  Biso   1.000  H
  C48      1.0000 0.49120  0.90727  0.09290  Biso   1.000  C
  C49      1.0000 0.79920  0.85151  0.24320  Biso   1.000  C
  H34      1.0000 0.82430  0.82670  0.28120  Biso   1.000  H
  H35      1.0000 0.73810  0.84440  0.18830  Biso   1.000  H
  C50      1.0000 0.98560  0.18759  0.31910  Biso   1.000  C
  C51      1.0000 0.90900  0.05224  0.20220  Biso   1.000  C
  H36      1.0000 0.94040  0.02630  0.20890  Biso   1.000  H
  C52      1.0000 0.20850  0.92787  0.14900  Biso   1.000  C
  H37      1.0000 0.16850  0.95020  0.16840  Biso   1.000  H
  C53      1.0000 0.79820  0.05669  0.16770  Biso   1.000  C
  C54      1.0000 0.71470  0.91089  0.45050  Biso   1.000  C
  C55      1.0000 0.99380  0.85888  0.20640  Biso   1.000  C
  C56      1.0000 0.99750  0.16044  0.24280  Biso   1.000  C
  C57      1.0000 0.97350  0.08579  0.22670  Biso   1.000  C
  H38      1.0000 0.04940  0.08260  0.24960  Biso   1.000  H
  C58      1.0000 0.92880  0.12405  0.21840  Biso   1.000  C
  C59      1.0000 0.95970  0.94690  0.02860  Biso   1.000  C
  H39      1.0000 0.97350  0.97160  0.06900  Biso   1.000  H
  H40      1.0000 0.88960  0.94900  0.98290  Biso   1.000  H
  H41      1.0000 0.01810  0.94270  0.98610  Biso   1.000  H
  C60      1.0000 0.08690  0.17214  0.19440  Biso   1.000  C
  C61      1.0000 0.32740  0.86292  0.09240  Biso   1.000  C
  H42      1.0000 0.36880  0.84070  0.07500  Biso   1.000  H
  C62      1.0000 0.21770  0.85824  0.10500  Biso   1.000  C
  H43      1.0000 0.18360  0.83290  0.09270  Biso   1.000  H
  C63      1.0000 0.77180  0.87856  0.42030  Biso   1.000  C
  C64      1.0000 0.66940  0.89924  0.73110  Biso   1.000  C
  H44      1.0000 0.66080  0.87820  0.77850  Biso   1.000  H
  C65      1.0000 0.68430  0.96918  0.69550  Biso   1.000  C
  H45      1.0000 0.68390  0.99630  0.71770  Biso   1.000  H
  C66      1.0000 0.75210  0.09433  0.15960  Biso   1.000  C
  H46      1.0000 0.67610  0.09730  0.13740  Biso   1.000  H
  C67      1.0000 0.68210  0.89032  0.62980  Biso   1.000  C
  H47      1.0000 0.67920  0.86320  0.60740  Biso   1.000  H
  C68      1.0000 0.12560  0.15439  0.10130  Biso   1.000  C
  H48      1.0000 0.19020  0.16890  0.08620  Biso   1.000  H
  H49      1.0000 0.06790  0.15630  0.04120  Biso   1.000  H
  H50      1.0000 0.14420  0.12620  0.11490  Biso   1.000  H
  C69      1.0000 0.70020  0.96043  0.59360  Biso   1.000  C
  H51      1.0000 0.71190  0.98160  0.54750  Biso   1.000  H
  C70      1.0000 0.81770  0.12824  0.18410  Biso   1.000  C
  H52      1.0000 0.78600  0.15420  0.17730  Biso   1.000  H
  C71      1.0000 0.60300  0.96797  0.34430  Biso   1.000  C
  H53      1.0000 0.56740  0.96990  0.27180  Biso   1.000  H
  H54      1.0000 0.64940  0.99150  0.36140  Biso   1.000  H
  H55      1.0000 0.54750  0.96680  0.39090  Biso   1.000  H
  C72      1.0000 0.90580  0.19115  0.39390  Biso   1.000  C
  H56      1.0000 0.85460  0.21290  0.37170  Biso   1.000  H
  H57      1.0000 0.94450  0.19690  0.46370  Biso   1.000  H
  H58      1.0000 0.86560  0.16600  0.39540  Biso   1.000  H
  C73      1.0000 0.04320  0.82536  0.27340  Biso   1.000  C
  H59      1.0000 0.01410  0.79980  0.24430  Biso   1.000  H
  H60      1.0000 0.02550  0.82850  0.34430  Biso   1.000  H
  H61      1.0000 0.12250  0.82570  0.27540  Biso   1.000  H
  C74      1.0000 0.84050  0.84800  0.48320  Biso   1.000  C
  H62      1.0000 0.91400  0.84820  0.46370  Biso   1.000  H
  H63      1.0000 0.80800  0.82150  0.46950  Biso   1.000  H
  H64      1.0000 0.84460  0.85430  0.55760  Biso   1.000  H
  Mn3      1.0000 0.70057  0.56928  0.10607  Biso   1.000  Mn
  N13      1.0000 0.88670  0.63210  0.19550  Biso   1.000  N
  O13      1.0000 0.69490  0.57616  0.94440  Biso   1.000  O
  O14      1.0000 0.55490  0.62165  0.08700  Biso   1.000  O
  O15      1.0000 0.52680  0.55673  0.09290  Biso   1.000  O
  O16      1.0000 0.77010  0.51329  0.14900  Biso   1.000  O
  O17      1.0000 0.63050  0.47284  0.09690  Biso   1.000  O
  N14      1.0000 0.70030  0.58824  0.27550  Biso   1.000  N
  O18      1.0000 0.60300  0.52124  0.89170  Biso   1.000  O
  N15      1.0000 0.76080  0.62044  0.31520  Biso   1.000  N
  N16      1.0000 0.86240  0.59971  0.13080  Biso   1.000  N
  N17      1.0000 0.06930  0.28532  0.31890  Biso   1.000  N
  C75      1.0000 0.69940  0.57885  0.55840  Biso   1.000  C
  N18      1.0000 0.13130  0.29378  0.24150  Biso   1.000  N
  C76      1.0000 0.95650  0.58790  0.10190  Biso   1.000  C
  C77      1.0000 0.15790  0.60939  0.13580  Biso   1.000  C
  C78      1.0000 0.67160  0.56915  0.35770  Biso   1.000  C
  C79      1.0000 0.65400  0.55220  0.87660  Biso   1.000  C
  C80      1.0000 0.04180  0.61342  0.14830  Biso   1.000  C
  C81      1.0000 0.66890  0.56113  0.76500  Biso   1.000  C
  C82      1.0000 0.72700  0.47934  0.13530  Biso   1.000  C
  C83      1.0000 0.37460  0.59931  0.10590  Biso   1.000  C
  C84      1.0000 0.31520  0.56724  0.13450  Biso   1.000  C
  H65      1.0000 0.34840  0.54160  0.14420  Biso   1.000  H
  C85      1.0000 0.49120  0.59273  0.09290  Biso   1.000  C
  C86      1.0000 0.79920  0.64849  0.24320  Biso   1.000  C
  H66      1.0000 0.82430  0.67330  0.28120  Biso   1.000  H
  H67      1.0000 0.73810  0.65560  0.18830  Biso   1.000  H
  C87      1.0000 0.98560  0.31241  0.31910  Biso   1.000  C
  C88      1.0000 0.90900  0.44776  0.20220  Biso   1.000  C
  H68      1.0000 0.94040  0.47370  0.20890  Biso   1.000  H
  C89      1.0000 0.20850  0.57213  0.14900  Biso   1.000  C
  H69      1.0000 0.16850  0.54980  0.16840  Biso   1.000  H
  C90      1.0000 0.79820  0.44331  0.16770  Biso   1.000  C
  C91      1.0000 0.71470  0.58911  0.45050  Biso   1.000  C
  C92      1.0000 0.99380  0.64112  0.20640  Biso   1.000  C
  C93      1.0000 0.99750  0.33956  0.24280  Biso   1.000  C
  C94      1.0000 0.97350  0.41421  0.22670  Biso   1.000  C
  H70      1.0000 0.04940  0.41740  0.24960  Biso   1.000  H
  C95      1.0000 0.92880  0.37595  0.21840  Biso   1.000  C
  C96      1.0000 0.95970  0.55310  0.02860  Biso   1.000  C
  H71      1.0000 0.97350  0.52840  0.06900  Biso   1.000  H
  H72      1.0000 0.88960  0.55100  0.98290  Biso   1.000  H
  H73      1.0000 0.01810  0.55730  0.98610  Biso   1.000  H
  C97      1.0000 0.08690  0.32786  0.19440  Biso   1.000  C
  C98      1.0000 0.32740  0.63708  0.09240  Biso   1.000  C
  H74      1.0000 0.36880  0.65930  0.07500  Biso   1.000  H
  C99      1.0000 0.21770  0.64176  0.10500  Biso   1.000  C
  H75      1.0000 0.18360  0.66710  0.09270  Biso   1.000  H
  C100     1.0000 0.77180  0.62144  0.42030  Biso   1.000  C
  C101     1.0000 0.66940  0.60076  0.73110  Biso   1.000  C
  H76      1.0000 0.66080  0.62180  0.77850  Biso   1.000  H
  C102     1.0000 0.68430  0.53082  0.69550  Biso   1.000  C
  H77      1.0000 0.68390  0.50370  0.71770  Biso   1.000  H
  C103     1.0000 0.75210  0.40567  0.15960  Biso   1.000  C
  H78      1.0000 0.67610  0.40270  0.13740  Biso   1.000  H
  C104     1.0000 0.68210  0.60968  0.62980  Biso   1.000  C
  H79      1.0000 0.67920  0.63680  0.60740  Biso   1.000  H
  C105     1.0000 0.12560  0.34561  0.10130  Biso   1.000  C
  H80      1.0000 0.19020  0.33110  0.08620  Biso   1.000  H
  H81      1.0000 0.06790  0.34370  0.04120  Biso   1.000  H
  H82      1.0000 0.14420  0.37380  0.11490  Biso   1.000  H
  C106     1.0000 0.70020  0.53957  0.59360  Biso   1.000  C
  H83      1.0000 0.71190  0.51840  0.54750  Biso   1.000  H
  C107     1.0000 0.81770  0.37176  0.18410  Biso   1.000  C
  H84      1.0000 0.78600  0.34580  0.17730  Biso   1.000  H
  C108     1.0000 0.60300  0.53203  0.34430  Biso   1.000  C
  H85      1.0000 0.56740  0.53010  0.27180  Biso   1.000  H
  H86      1.0000 0.64940  0.50850  0.36140  Biso   1.000  H
  H87      1.0000 0.54750  0.53320  0.39090  Biso   1.000  H
  C109     1.0000 0.90580  0.30885  0.39390  Biso   1.000  C
  H88      1.0000 0.85460  0.28710  0.37170  Biso   1.000  H
  H89      1.0000 0.94450  0.30310  0.46370  Biso   1.000  H
  H90      1.0000 0.86560  0.33400  0.39540  Biso   1.000  H
  C110     1.0000 0.04320  0.67464  0.27340  Biso   1.000  C
  H91      1.0000 0.01410  0.70020  0.24430  Biso   1.000  H
  H92      1.0000 0.02550  0.67150  0.34430  Biso   1.000  H
  H93      1.0000 0.12250  0.67430  0.27540  Biso   1.000  H
  C111     1.0000 0.84050  0.65200  0.48320  Biso   1.000  C
  H94      1.0000 0.91400  0.65180  0.46370  Biso   1.000  H
  H95      1.0000 0.80800  0.67850  0.46950  Biso   1.000  H
  H96      1.0000 0.84460  0.64570  0.55760  Biso   1.000  H
  Mn4      1.0000 0.29943  0.06928  0.89393  Biso   1.000  Mn
  N19      1.0000 0.11330  0.13210  0.80450  Biso   1.000  N
  O19      1.0000 0.30510  0.07616  0.05560  Biso   1.000  O
  O20      1.0000 0.44510  0.12165  0.91300  Biso   1.000  O
  O21      1.0000 0.47320  0.05673  0.90710  Biso   1.000  O
  O22      1.0000 0.22990  0.01329  0.85100  Biso   1.000  O
  O23      1.0000 0.36950  0.97284  0.90310  Biso   1.000  O
  N20      1.0000 0.29970  0.08824  0.72450  Biso   1.000  N
  O24      1.0000 0.39700  0.02124  0.10830  Biso   1.000  O
  N21      1.0000 0.23920  0.12044  0.68480  Biso   1.000  N
  N22      1.0000 0.13760  0.09971  0.86920  Biso   1.000  N
  N23      1.0000 0.93070  0.78532  0.68110  Biso   1.000  N
  C112     1.0000 0.30060  0.07885  0.44160  Biso   1.000  C
  N24      1.0000 0.86870  0.79378  0.75850  Biso   1.000  N
  C113     1.0000 0.04350  0.08790  0.89810  Biso   1.000  C
  C114     1.0000 0.84210  0.10939  0.86420  Biso   1.000  C
  C115     1.0000 0.32840  0.06915  0.64230  Biso   1.000  C
  C116     1.0000 0.34600  0.05220  0.12340  Biso   1.000  C
  C117     1.0000 0.95820  0.11342  0.85170  Biso   1.000  C
  C118     1.0000 0.33110  0.06113  0.23500  Biso   1.000  C
  C119     1.0000 0.27300  0.97934  0.86470  Biso   1.000  C
  C120     1.0000 0.62540  0.09931  0.89410  Biso   1.000  C
  C121     1.0000 0.68480  0.06724  0.86550  Biso   1.000  C
  H97      1.0000 0.65160  0.04160  0.85580  Biso   1.000  H
  C122     1.0000 0.50880  0.09273  0.90710  Biso   1.000  C
  C123     1.0000 0.20080  0.14849  0.75680  Biso   1.000  C
  H98      1.0000 0.17570  0.17330  0.71880  Biso   1.000  H
  H99      1.0000 0.26190  0.15560  0.81170  Biso   1.000  H
  C124     1.0000 0.01440  0.81241  0.68090  Biso   1.000  C
  C125     1.0000 0.09100  0.94776  0.79780  Biso   1.000  C
  H100     1.0000 0.05960  0.97370  0.79110  Biso   1.000  H
  C126     1.0000 0.79150  0.07213  0.85100  Biso   1.000  C
  H101     1.0000 0.83150  0.04980  0.83160  Biso   1.000  H
  C127     1.0000 0.20180  0.94331  0.83230  Biso   1.000  C
  C128     1.0000 0.28530  0.08911  0.54950  Biso   1.000  C
  C129     1.0000 0.00620  0.14112  0.79360  Biso   1.000  C
  C130     1.0000 0.00250  0.83956  0.75720  Biso   1.000  C
  C131     1.0000 0.02650  0.91421  0.77330  Biso   1.000  C
  H102     1.0000 0.95060  0.91740  0.75040  Biso   1.000  H
  C132     1.0000 0.07120  0.87595  0.78160  Biso   1.000  C
  C133     1.0000 0.04030  0.05310  0.97140  Biso   1.000  C
  H103     1.0000 0.02650  0.02840  0.93100  Biso   1.000  H
  H104     1.0000 0.11040  0.05100  0.01710  Biso   1.000  H
  H105     1.0000 0.98190  0.05730  0.01390  Biso   1.000  H
  C134     1.0000 0.91310  0.82786  0.80560  Biso   1.000  C
  C135     1.0000 0.67260  0.13708  0.90760  Biso   1.000  C
  H106     1.0000 0.63120  0.15930  0.92500  Biso   1.000  H
  C136     1.0000 0.78230  0.14176  0.89500  Biso   1.000  C
  H107     1.0000 0.81640  0.16710  0.90730  Biso   1.000  H
  C137     1.0000 0.22820  0.12144  0.57970  Biso   1.000  C
  C138     1.0000 0.33060  0.10076  0.26890  Biso   1.000  C
  H108     1.0000 0.33920  0.12180  0.22150  Biso   1.000  H
  C139     1.0000 0.31570  0.03082  0.30450  Biso   1.000  C
  H109     1.0000 0.31610  0.00370  0.28230  Biso   1.000  H
  C140     1.0000 0.24790  0.90567  0.84040  Biso   1.000  C
  H110     1.0000 0.32390  0.90270  0.86260  Biso   1.000  H
  C141     1.0000 0.31790  0.10968  0.37020  Biso   1.000  C
  H111     1.0000 0.32080  0.13680  0.39260  Biso   1.000  H
  C142     1.0000 0.87440  0.84561  0.89870  Biso   1.000  C
  H112     1.0000 0.80980  0.83110  0.91380  Biso   1.000  H
  H113     1.0000 0.93210  0.84370  0.95880  Biso   1.000  H
  H114     1.0000 0.85580  0.87380  0.88510  Biso   1.000  H
  C143     1.0000 0.29980  0.03957  0.40640  Biso   1.000  C
  H115     1.0000 0.28810  0.01840  0.45250  Biso   1.000  H
  C144     1.0000 0.18230  0.87176  0.81590  Biso   1.000  C
  H116     1.0000 0.21400  0.84580  0.82270  Biso   1.000  H
  C145     1.0000 0.39700  0.03203  0.65570  Biso   1.000  C
  H117     1.0000 0.43260  0.03010  0.72820  Biso   1.000  H
  H118     1.0000 0.35060  0.00850  0.63860  Biso   1.000  H
  H119     1.0000 0.45250  0.03320  0.60910  Biso   1.000  H
  C146     1.0000 0.09420  0.80885  0.60610  Biso   1.000  C
  H120     1.0000 0.14540  0.78710  0.62830  Biso   1.000  H
  H121     1.0000 0.05550  0.80310  0.53630  Biso   1.000  H
  H122     1.0000 0.13440  0.83400  0.60460  Biso   1.000  H
  C147     1.0000 0.95680  0.17464  0.72660  Biso   1.000  C
  H123     1.0000 0.98590  0.20020  0.75570  Biso   1.000  H
  H124     1.0000 0.97450  0.17150  0.65570  Biso   1.000  H
  H125     1.0000 0.87750  0.17430  0.72460  Biso   1.000  H
  C148     1.0000 0.15950  0.15200  0.51680  Biso   1.000  C
  H126     1.0000 0.08600  0.15180  0.53630  Biso   1.000  H
  H127     1.0000 0.19200  0.17850  0.53050  Biso   1.000  H
  H128     1.0000 0.15540  0.14570  0.44240  Biso   1.000  H
  Mn5      1.0000 0.50000  0.50000  0.00000  Biso   1.000  Mn
  Mn6      1.0000 0.50000  0.00000  0.00000  Biso   1.000  Mn
  Co1      1.0000 0.75474  0.75000  0.80074  Biso   1.000  Co
  C149     1.0000 0.90700  0.75000  0.62020  Biso   1.000  C
  H129     1.0000 0.82900  0.75000  0.58990  Biso   1.000  H
  H130     1.0000 0.95060  0.75000  0.56190  Biso   1.000  H
  Co2      1.0000 0.24526  0.25000  0.19926  Biso   1.000  Co
  C150     1.0000 0.09300  0.25000  0.37980  Biso   1.000  C
  H131     1.0000 0.17100  0.25000  0.41010  Biso   1.000  H
  H132     1.0000 0.04940  0.25000  0.43810  Biso   1.000  H
