data_image0
_cell_length_a       34.3413
_cell_length_b       10.0447
_cell_length_c       17.7382
_cell_angle_alpha    90
_cell_angle_beta     96.234
_cell_angle_gamma    90

_symmetry_space_group_name_H-M    "P 1"
_symmetry_int_tables_number       1

loop_
  _symmetry_equiv_pos_as_xyz
  'x, y, z'

loop_
  _atom_site_label
  _atom_site_occupancy
  _atom_site_fract_x
  _atom_site_fract_y
  _atom_site_fract_z
  _atom_site_thermal_displace_type
  _atom_site_B_iso_or_equiv
  _atom_site_type_symbol
  Mg1      1.0000 0.22581  0.93787  0.23681  Biso   1.000  Mg
  Mg2      1.0000 0.30357  0.71735  0.27617  Biso   1.000  Mg
  O1       1.0000 0.24922  0.63350  0.25515  Biso   1.000  O
  O2       1.0000 0.30406  0.20550  0.67040  Biso   1.000  O
  O3       1.0000 0.39631  0.19640  0.42000  Biso   1.000  O
  O4       1.0000 0.39811  0.83590  0.57270  Biso   1.000  O
  O5       1.0000 0.28002  0.90050  0.30710  Biso   1.000  O
  O6       1.0000 0.22840  0.96530  0.36027  Biso   1.000  O
  O7       1.0000 0.24974  0.08490  0.64006  Biso   1.000  O
  O8       1.0000 0.19765  0.76550  0.23042  Biso   1.000  O
  O9       1.0000 0.17709  0.05900  0.20271  Biso   1.000  O
  O10      1.0000 0.23397  0.14990  0.23526  Biso   1.000  O
  O11      1.0000 0.06188  0.43320  0.21420  Biso   1.000  O
  O12      1.0000 0.12227  0.48990  0.00320  Biso   1.000  O
  N1       1.0000 0.09105  0.45890  0.10785  Biso   1.000  N
  N2       1.0000 0.39782  0.01510  0.49630  Biso   1.000  N
  C1       1.0000 0.27537  0.03180  0.49590  Biso   1.000  C
  H1       1.0000 0.24830  0.03400  0.49660  Biso   1.000  H
  C2       1.0000 0.14382  0.31400  0.16460  Biso   1.000  C
  H2       1.0000 0.12870  0.24020  0.14860  Biso   1.000  H
  C3       1.0000 0.26441  0.94550  0.36380  Biso   1.000  C
  C4       1.0000 0.18851  0.53550  0.21080  Biso   1.000  C
  C5       1.0000 0.19832  0.15930  0.21350  Biso   1.000  C
  C6       1.0000 0.21431  0.65300  0.23460  Biso   1.000  C
  C7       1.0000 0.33995  0.07520  0.55830  Biso   1.000  C
  H3       1.0000 0.35650  0.10860  0.59890  Biso   1.000  H
  C8       1.0000 0.47924  0.00330  0.49950  Biso   1.000  C
  C9       1.0000 0.35470  0.02300  0.49650  Biso   1.000  C
  C10      1.0000 0.02002  0.46740  0.09870  Biso   1.000  C
  C11      1.0000 0.20374  0.40650  0.22260  Biso   1.000  C
  H4       1.0000 0.22930  0.39480  0.24510  Biso   1.000  H
  C12      1.0000 0.09132  0.48360  0.03120  Biso   1.000  C
  C13      1.0000 0.01863  0.49310  0.02240  Biso   1.000  C
  C14      1.0000 0.12909  0.44190  0.15200  Biso   1.000  C
  C15      1.0000 0.45877  0.10250  0.45590  Biso   1.000  C
  C16      1.0000 0.18116  0.29780  0.20110  Biso   1.000  C
  C17      1.0000 0.29085  0.98340  0.43240  Biso   1.000  C
  C18      1.0000 0.29975  0.07750  0.55910  Biso   1.000  C
  C19      1.0000 0.15129  0.55080  0.17520  Biso   1.000  C
  H5       1.0000 0.14100  0.63580  0.16680  Biso   1.000  H
  C20      1.0000 0.28265  0.12670  0.62910  Biso   1.000  C
  C21      1.0000 0.41533  0.11010  0.45390  Biso   1.000  C
  C22      1.0000 0.33127  0.98020  0.43330  Biso   1.000  C
  H6       1.0000 0.34110  0.95150  0.39660  Biso   1.000  H
  C23      1.0000 0.98534  0.46410  0.13410  Biso   1.000  C
  H7       1.0000 0.98980  0.45410  0.18750  Biso   1.000  H
  C24      1.0000 0.05030  0.52240  0.90910  Biso   1.000  C
  H8       1.0000 0.07320  0.52970  0.88580  Biso   1.000  H
  C25      1.0000 0.05281  0.49830  0.98580  Biso   1.000  C
  C26      1.0000 0.05827  0.45500  0.14640  Biso   1.000  C
  C27      1.0000 0.41657  0.91350  0.53970  Biso   1.000  C
  C28      1.0000 0.46035  0.90960  0.53960  Biso   1.000  C
  C29      1.0000 0.51847  0.18610  0.41710  Biso   1.000  C
  H9       1.0000 0.53270  0.26420  0.41190  Biso   1.000  H
  C30      1.0000 0.47820  0.19180  0.41550  Biso   1.000  C
  H10      1.0000 0.46510  0.23690  0.37460  Biso   1.000  H
  Mg3      1.0000 0.77419  0.93787  0.26319  Biso   1.000  Mg
  Mg4      1.0000 0.69643  0.71735  0.22383  Biso   1.000  Mg
  O13      1.0000 0.75078  0.63350  0.24485  Biso   1.000  O
  O14      1.0000 0.69594  0.20550  0.82960  Biso   1.000  O
  O15      1.0000 0.60369  0.19640  0.08000  Biso   1.000  O
  O16      1.0000 0.60189  0.83590  0.92730  Biso   1.000  O
  O17      1.0000 0.71998  0.90050  0.19290  Biso   1.000  O
  O18      1.0000 0.77160  0.96530  0.13973  Biso   1.000  O
  O19      1.0000 0.75026  0.08490  0.85994  Biso   1.000  O
  O20      1.0000 0.80235  0.76550  0.26958  Biso   1.000  O
  O21      1.0000 0.82291  0.05900  0.29729  Biso   1.000  O
  O22      1.0000 0.76603  0.14990  0.26474  Biso   1.000  O
  O23      1.0000 0.93812  0.43320  0.28580  Biso   1.000  O
  O24      1.0000 0.87773  0.48990  0.49680  Biso   1.000  O
  N3       1.0000 0.90895  0.45890  0.39215  Biso   1.000  N
  N4       1.0000 0.60218  0.01510  0.00370  Biso   1.000  N
  C31      1.0000 0.72463  0.03180  0.00410  Biso   1.000  C
  H11      1.0000 0.75170  0.03400  0.00340  Biso   1.000  H
  C32      1.0000 0.85618  0.31400  0.33540  Biso   1.000  C
  H12      1.0000 0.87130  0.24020  0.35140  Biso   1.000  H
  C33      1.0000 0.73559  0.94550  0.13620  Biso   1.000  C
  C34      1.0000 0.81149  0.53550  0.28920  Biso   1.000  C
  C35      1.0000 0.80168  0.15930  0.28650  Biso   1.000  C
  C36      1.0000 0.78569  0.65300  0.26540  Biso   1.000  C
  C37      1.0000 0.66005  0.07520  0.94170  Biso   1.000  C
  H13      1.0000 0.64350  0.10860  0.90110  Biso   1.000  H
  C38      1.0000 0.52076  0.00330  0.00050  Biso   1.000  C
  C39      1.0000 0.64530  0.02300  0.00350  Biso   1.000  C
  C40      1.0000 0.97998  0.46740  0.40130  Biso   1.000  C
  C41      1.0000 0.79626  0.40650  0.27740  Biso   1.000  C
  H14      1.0000 0.77070  0.39480  0.25490  Biso   1.000  H
  C42      1.0000 0.90868  0.48360  0.46880  Biso   1.000  C
  C43      1.0000 0.98137  0.49310  0.47760  Biso   1.000  C
  C44      1.0000 0.87091  0.44190  0.34800  Biso   1.000  C
  C45      1.0000 0.54123  0.10250  0.04410  Biso   1.000  C
  C46      1.0000 0.81884  0.29780  0.29890  Biso   1.000  C
  C47      1.0000 0.70915  0.98340  0.06760  Biso   1.000  C
  C48      1.0000 0.70025  0.07750  0.94090  Biso   1.000  C
  C49      1.0000 0.84871  0.55080  0.32480  Biso   1.000  C
  H15      1.0000 0.85900  0.63580  0.33320  Biso   1.000  H
  C50      1.0000 0.71735  0.12670  0.87090  Biso   1.000  C
  C51      1.0000 0.58467  0.11010  0.04610  Biso   1.000  C
  C52      1.0000 0.66873  0.98020  0.06670  Biso   1.000  C
  H16      1.0000 0.65890  0.95150  0.10340  Biso   1.000  H
  C53      1.0000 0.01466  0.46410  0.36590  Biso   1.000  C
  H17      1.0000 0.01020  0.45410  0.31250  Biso   1.000  H
  C54      1.0000 0.94970  0.52240  0.59090  Biso   1.000  C
  H18      1.0000 0.92680  0.52970  0.61420  Biso   1.000  H
  C55      1.0000 0.94719  0.49830  0.51420  Biso   1.000  C
  C56      1.0000 0.94173  0.45500  0.35360  Biso   1.000  C
  C57      1.0000 0.58343  0.91350  0.96030  Biso   1.000  C
  C58      1.0000 0.53965  0.90960  0.96040  Biso   1.000  C
  C59      1.0000 0.48153  0.18610  0.08290  Biso   1.000  C
  H19      1.0000 0.46730  0.26420  0.08810  Biso   1.000  H
  C60      1.0000 0.52180  0.19180  0.08450  Biso   1.000  C
  H20      1.0000 0.53490  0.23690  0.12540  Biso   1.000  H
  Mg5      1.0000 0.77419  0.06213  0.76319  Biso   1.000  Mg
  Mg6      1.0000 0.69643  0.28265  0.72383  Biso   1.000  Mg
  O25      1.0000 0.75078  0.36650  0.74485  Biso   1.000  O
  O26      1.0000 0.69594  0.79450  0.32960  Biso   1.000  O
  O27      1.0000 0.60369  0.80360  0.58000  Biso   1.000  O
  O28      1.0000 0.60189  0.16410  0.42730  Biso   1.000  O
  O29      1.0000 0.71998  0.09950  0.69290  Biso   1.000  O
  O30      1.0000 0.77160  0.03470  0.63973  Biso   1.000  O
  O31      1.0000 0.75026  0.91510  0.35994  Biso   1.000  O
  O32      1.0000 0.80235  0.23450  0.76958  Biso   1.000  O
  O33      1.0000 0.82291  0.94100  0.79729  Biso   1.000  O
  O34      1.0000 0.76603  0.85010  0.76474  Biso   1.000  O
  O35      1.0000 0.93812  0.56680  0.78580  Biso   1.000  O
  O36      1.0000 0.87773  0.51010  0.99680  Biso   1.000  O
  N5       1.0000 0.90895  0.54110  0.89215  Biso   1.000  N
  N6       1.0000 0.60218  0.98490  0.50370  Biso   1.000  N
  C61      1.0000 0.72463  0.96820  0.50410  Biso   1.000  C
  H21      1.0000 0.75170  0.96600  0.50340  Biso   1.000  H
  C62      1.0000 0.85618  0.68600  0.83540  Biso   1.000  C
  H22      1.0000 0.87130  0.75980  0.85140  Biso   1.000  H
  C63      1.0000 0.73559  0.05450  0.63620  Biso   1.000  C
  C64      1.0000 0.81149  0.46450  0.78920  Biso   1.000  C
  C65      1.0000 0.80168  0.84070  0.78650  Biso   1.000  C
  C66      1.0000 0.78569  0.34700  0.76540  Biso   1.000  C
  C67      1.0000 0.66005  0.92480  0.44170  Biso   1.000  C
  H23      1.0000 0.64350  0.89140  0.40110  Biso   1.000  H
  C68      1.0000 0.52076  0.99670  0.50050  Biso   1.000  C
  C69      1.0000 0.64530  0.97700  0.50350  Biso   1.000  C
  C70      1.0000 0.97998  0.53260  0.90130  Biso   1.000  C
  C71      1.0000 0.79626  0.59350  0.77740  Biso   1.000  C
  H24      1.0000 0.77070  0.60520  0.75490  Biso   1.000  H
  C72      1.0000 0.90868  0.51640  0.96880  Biso   1.000  C
  C73      1.0000 0.98137  0.50690  0.97760  Biso   1.000  C
  C74      1.0000 0.87091  0.55810  0.84800  Biso   1.000  C
  C75      1.0000 0.54123  0.89750  0.54410  Biso   1.000  C
  C76      1.0000 0.81884  0.70220  0.79890  Biso   1.000  C
  C77      1.0000 0.70915  0.01660  0.56760  Biso   1.000  C
  C78      1.0000 0.70025  0.92250  0.44090  Biso   1.000  C
  C79      1.0000 0.84871  0.44920  0.82480  Biso   1.000  C
  H25      1.0000 0.85900  0.36420  0.83320  Biso   1.000  H
  C80      1.0000 0.71735  0.87330  0.37090  Biso   1.000  C
  C81      1.0000 0.58467  0.88990  0.54610  Biso   1.000  C
  C82      1.0000 0.66873  0.01980  0.56670  Biso   1.000  C
  H26      1.0000 0.65890  0.04850  0.60340  Biso   1.000  H
  C83      1.0000 0.01466  0.53590  0.86590  Biso   1.000  C
  H27      1.0000 0.01020  0.54590  0.81250  Biso   1.000  H
  C84      1.0000 0.94970  0.47760  0.09090  Biso   1.000  C
  H28      1.0000 0.92680  0.47030  0.11420  Biso   1.000  H
  C85      1.0000 0.94719  0.50170  0.01420  Biso   1.000  C
  C86      1.0000 0.94173  0.54500  0.85360  Biso   1.000  C
  C87      1.0000 0.58343  0.08650  0.46030  Biso   1.000  C
  C88      1.0000 0.53965  0.09040  0.46040  Biso   1.000  C
  C89      1.0000 0.48153  0.81390  0.58290  Biso   1.000  C
  H29      1.0000 0.46730  0.73580  0.58810  Biso   1.000  H
  C90      1.0000 0.52180  0.80820  0.58450  Biso   1.000  C
  H30      1.0000 0.53490  0.76310  0.62540  Biso   1.000  H
  Mg7      1.0000 0.22581  0.06213  0.73681  Biso   1.000  Mg
  Mg8      1.0000 0.30357  0.28265  0.77617  Biso   1.000  Mg
  O37      1.0000 0.24922  0.36650  0.75515  Biso   1.000  O
  O38      1.0000 0.30406  0.79450  0.17040  Biso   1.000  O
  O39      1.0000 0.39631  0.80360  0.92000  Biso   1.000  O
  O40      1.0000 0.39811  0.16410  0.07270  Biso   1.000  O
  O41      1.0000 0.28002  0.09950  0.80710  Biso   1.000  O
  O42      1.0000 0.22840  0.03470  0.86027  Biso   1.000  O
  O43      1.0000 0.24974  0.91510  0.14006  Biso   1.000  O
  O44      1.0000 0.19765  0.23450  0.73042  Biso   1.000  O
  O45      1.0000 0.17709  0.94100  0.70271  Biso   1.000  O
  O46      1.0000 0.23397  0.85010  0.73526  Biso   1.000  O
  O47      1.0000 0.06188  0.56680  0.71420  Biso   1.000  O
  O48      1.0000 0.12227  0.51010  0.50320  Biso   1.000  O
  N7       1.0000 0.09105  0.54110  0.60785  Biso   1.000  N
  N8       1.0000 0.39782  0.98490  0.99630  Biso   1.000  N
  C91      1.0000 0.27537  0.96820  0.99590  Biso   1.000  C
  H31      1.0000 0.24830  0.96600  0.99660  Biso   1.000  H
  C92      1.0000 0.14382  0.68600  0.66460  Biso   1.000  C
  H32      1.0000 0.12870  0.75980  0.64860  Biso   1.000  H
  C93      1.0000 0.26441  0.05450  0.86380  Biso   1.000  C
  C94      1.0000 0.18851  0.46450  0.71080  Biso   1.000  C
  C95      1.0000 0.19832  0.84070  0.71350  Biso   1.000  C
  C96      1.0000 0.21431  0.34700  0.73460  Biso   1.000  C
  C97      1.0000 0.33995  0.92480  0.05830  Biso   1.000  C
  H33      1.0000 0.35650  0.89140  0.09890  Biso   1.000  H
  C98      1.0000 0.47924  0.99670  0.99950  Biso   1.000  C
  C99      1.0000 0.35470  0.97700  0.99650  Biso   1.000  C
  C100     1.0000 0.02002  0.53260  0.59870  Biso   1.000  C
  C101     1.0000 0.20374  0.59350  0.72260  Biso   1.000  C
  H34      1.0000 0.22930  0.60520  0.74510  Biso   1.000  H
  C102     1.0000 0.09132  0.51640  0.53120  Biso   1.000  C
  C103     1.0000 0.01863  0.50690  0.52240  Biso   1.000  C
  C104     1.0000 0.12909  0.55810  0.65200  Biso   1.000  C
  C105     1.0000 0.45877  0.89750  0.95590  Biso   1.000  C
  C106     1.0000 0.18116  0.70220  0.70110  Biso   1.000  C
  C107     1.0000 0.29085  0.01660  0.93240  Biso   1.000  C
  C108     1.0000 0.29975  0.92250  0.05910  Biso   1.000  C
  C109     1.0000 0.15129  0.44920  0.67520  Biso   1.000  C
  H35      1.0000 0.14100  0.36420  0.66680  Biso   1.000  H
  C110     1.0000 0.28265  0.87330  0.12910  Biso   1.000  C
  C111     1.0000 0.41533  0.88990  0.95390  Biso   1.000  C
  C112     1.0000 0.33127  0.01980  0.93330  Biso   1.000  C
  H36      1.0000 0.34110  0.04850  0.89660  Biso   1.000  H
  C113     1.0000 0.98534  0.53590  0.63410  Biso   1.000  C
  H37      1.0000 0.98980  0.54590  0.68750  Biso   1.000  H
  C114     1.0000 0.05030  0.47760  0.40910  Biso   1.000  C
  H38      1.0000 0.07320  0.47030  0.38580  Biso   1.000  H
  C115     1.0000 0.05281  0.50170  0.48580  Biso   1.000  C
  C116     1.0000 0.05827  0.54500  0.64640  Biso   1.000  C
  C117     1.0000 0.41657  0.08650  0.03970  Biso   1.000  C
  C118     1.0000 0.46035  0.09040  0.03960  Biso   1.000  C
  C119     1.0000 0.51847  0.81390  0.91710  Biso   1.000  C
  H39      1.0000 0.53270  0.73580  0.91190  Biso   1.000  H
  C120     1.0000 0.47820  0.80820  0.91550  Biso   1.000  C
  H40      1.0000 0.46510  0.76310  0.87460  Biso   1.000  H
