data_image0
_cell_length_a       24.681
_cell_length_b       24.681
_cell_length_c       10.819
_cell_angle_alpha    90
_cell_angle_beta     90
_cell_angle_gamma    90

_symmetry_space_group_name_H-M    "P 1"
_symmetry_int_tables_number       1

loop_
  _symmetry_equiv_pos_as_xyz
  'x, y, z'

loop_
  _atom_site_label
  _atom_site_occupancy
  _atom_site_fract_x
  _atom_site_fract_y
  _atom_site_fract_z
  _atom_site_thermal_displace_type
  _atom_site_B_iso_or_equiv
  _atom_site_type_symbol
  In1      1.0000 0.38016  0.78980  0.35556  Biso   1.000  In
  O1       1.0000 0.59910  0.86040  0.32170  Biso   1.000  O
  O2       1.0000 0.62740  0.86330  0.12670  Biso   1.000  O
  O3       1.0000 0.19140  0.72820  0.11140  Biso   1.000  O
  O4       1.0000 0.20090  0.72890  0.90800  Biso   1.000  O
  N1       1.0000 0.44800  0.80770  0.21750  Biso   1.000  N
  N2       1.0000 0.34840  0.77650  0.16190  Biso   1.000  N
  C1       1.0000 0.49760  0.82350  0.25040  Biso   1.000  C
  H1       1.0000 0.50540  0.82590  0.33430  Biso   1.000  H
  C2       1.0000 0.53790  0.83660  0.16780  Biso   1.000  C
  C3       1.0000 0.52540  0.83220  0.04440  Biso   1.000  C
  H2       1.0000 0.55090  0.83880  0.98300  Biso   1.000  H
  C4       1.0000 0.47130  0.81690  0.01580  Biso   1.000  C
  H3       1.0000 0.46120  0.81470  0.93320  Biso   1.000  H
  C5       1.0000 0.43590  0.80590  0.09860  Biso   1.000  C
  C6       1.0000 0.37970  0.78700  0.06380  Biso   1.000  C
  C7       1.0000 0.35970  0.77980  0.95080  Biso   1.000  C
  H4       1.0000 0.38320  0.78630  0.88520  Biso   1.000  H
  C8       1.0000 0.31040  0.76470  0.92210  Biso   1.000  C
  H5       1.0000 0.29870  0.76140  0.84070  Biso   1.000  H
  C9       1.0000 0.27600  0.75380  0.02470  Biso   1.000  C
  C10      1.0000 0.29850  0.75940  0.14340  Biso   1.000  C
  H6       1.0000 0.27730  0.75060  0.21160  Biso   1.000  H
  C11      1.0000 0.59160  0.85320  0.20780  Biso   1.000  C
  C12      1.0000 0.21840  0.73520  0.01630  Biso   1.000  C
  In2      1.0000 0.88016  0.28980  0.85556  Biso   1.000  In
  O5       1.0000 0.09910  0.36040  0.82170  Biso   1.000  O
  O6       1.0000 0.12740  0.36330  0.62670  Biso   1.000  O
  O7       1.0000 0.69140  0.22820  0.61140  Biso   1.000  O
  O8       1.0000 0.70090  0.22890  0.40800  Biso   1.000  O
  N3       1.0000 0.94800  0.30770  0.71750  Biso   1.000  N
  N4       1.0000 0.84840  0.27650  0.66190  Biso   1.000  N
  C13      1.0000 0.99760  0.32350  0.75040  Biso   1.000  C
  H7       1.0000 0.00540  0.32590  0.83430  Biso   1.000  H
  C14      1.0000 0.03790  0.33660  0.66780  Biso   1.000  C
  C15      1.0000 0.02540  0.33220  0.54440  Biso   1.000  C
  H8       1.0000 0.05090  0.33880  0.48300  Biso   1.000  H
  C16      1.0000 0.97130  0.31690  0.51580  Biso   1.000  C
  H9       1.0000 0.96120  0.31470  0.43320  Biso   1.000  H
  C17      1.0000 0.93590  0.30590  0.59860  Biso   1.000  C
  C18      1.0000 0.87970  0.28700  0.56380  Biso   1.000  C
  C19      1.0000 0.85970  0.27980  0.45080  Biso   1.000  C
  H10      1.0000 0.88320  0.28630  0.38520  Biso   1.000  H
  C20      1.0000 0.81040  0.26470  0.42210  Biso   1.000  C
  H11      1.0000 0.79870  0.26140  0.34070  Biso   1.000  H
  C21      1.0000 0.77600  0.25380  0.52470  Biso   1.000  C
  C22      1.0000 0.79850  0.25940  0.64340  Biso   1.000  C
  H12      1.0000 0.77730  0.25060  0.71160  Biso   1.000  H
  C23      1.0000 0.09160  0.35320  0.70780  Biso   1.000  C
  C24      1.0000 0.71840  0.23520  0.51630  Biso   1.000  C
  In3      1.0000 0.61984  0.21020  0.35556  Biso   1.000  In
  O9       1.0000 0.40090  0.13960  0.32170  Biso   1.000  O
  O10      1.0000 0.37260  0.13670  0.12670  Biso   1.000  O
  O11      1.0000 0.80860  0.27180  0.11140  Biso   1.000  O
  O12      1.0000 0.79910  0.27110  0.90800  Biso   1.000  O
  N5       1.0000 0.55200  0.19230  0.21750  Biso   1.000  N
  N6       1.0000 0.65160  0.22350  0.16190  Biso   1.000  N
  C25      1.0000 0.50240  0.17650  0.25040  Biso   1.000  C
  H13      1.0000 0.49460  0.17410  0.33430  Biso   1.000  H
  C26      1.0000 0.46210  0.16340  0.16780  Biso   1.000  C
  C27      1.0000 0.47460  0.16780  0.04440  Biso   1.000  C
  H14      1.0000 0.44910  0.16120  0.98300  Biso   1.000  H
  C28      1.0000 0.52870  0.18310  0.01580  Biso   1.000  C
  H15      1.0000 0.53880  0.18530  0.93320  Biso   1.000  H
  C29      1.0000 0.56410  0.19410  0.09860  Biso   1.000  C
  C30      1.0000 0.62030  0.21300  0.06380  Biso   1.000  C
  C31      1.0000 0.64030  0.22020  0.95080  Biso   1.000  C
  H16      1.0000 0.61680  0.21370  0.88520  Biso   1.000  H
  C32      1.0000 0.68960  0.23530  0.92210  Biso   1.000  C
  H17      1.0000 0.70130  0.23860  0.84070  Biso   1.000  H
  C33      1.0000 0.72400  0.24620  0.02470  Biso   1.000  C
  C34      1.0000 0.70150  0.24060  0.14340  Biso   1.000  C
  H18      1.0000 0.72270  0.24940  0.21160  Biso   1.000  H
  C35      1.0000 0.40840  0.14680  0.20780  Biso   1.000  C
  C36      1.0000 0.78160  0.26480  0.01630  Biso   1.000  C
  In4      1.0000 0.11984  0.71020  0.85556  Biso   1.000  In
  O13      1.0000 0.90090  0.63960  0.82170  Biso   1.000  O
  O14      1.0000 0.87260  0.63670  0.62670  Biso   1.000  O
  O15      1.0000 0.30860  0.77180  0.61140  Biso   1.000  O
  O16      1.0000 0.29910  0.77110  0.40800  Biso   1.000  O
  N7       1.0000 0.05200  0.69230  0.71750  Biso   1.000  N
  N8       1.0000 0.15160  0.72350  0.66190  Biso   1.000  N
  C37      1.0000 0.00240  0.67650  0.75040  Biso   1.000  C
  H19      1.0000 0.99460  0.67410  0.83430  Biso   1.000  H
  C38      1.0000 0.96210  0.66340  0.66780  Biso   1.000  C
  C39      1.0000 0.97460  0.66780  0.54440  Biso   1.000  C
  H20      1.0000 0.94910  0.66120  0.48300  Biso   1.000  H
  C40      1.0000 0.02870  0.68310  0.51580  Biso   1.000  C
  H21      1.0000 0.03880  0.68530  0.43320  Biso   1.000  H
  C41      1.0000 0.06410  0.69410  0.59860  Biso   1.000  C
  C42      1.0000 0.12030  0.71300  0.56380  Biso   1.000  C
  C43      1.0000 0.14030  0.72020  0.45080  Biso   1.000  C
  H22      1.0000 0.11680  0.71370  0.38520  Biso   1.000  H
  C44      1.0000 0.18960  0.73530  0.42210  Biso   1.000  C
  H23      1.0000 0.20130  0.73860  0.34070  Biso   1.000  H
  C45      1.0000 0.22400  0.74620  0.52470  Biso   1.000  C
  C46      1.0000 0.20150  0.74060  0.64340  Biso   1.000  C
  H24      1.0000 0.22270  0.74940  0.71160  Biso   1.000  H
  C47      1.0000 0.90840  0.64680  0.70780  Biso   1.000  C
  C48      1.0000 0.28160  0.76480  0.51630  Biso   1.000  C
  In5      1.0000 0.78980  0.61984  0.64444  Biso   1.000  In
  O17      1.0000 0.86040  0.40090  0.67830  Biso   1.000  O
  O18      1.0000 0.86330  0.37260  0.87330  Biso   1.000  O
  O19      1.0000 0.72820  0.80860  0.88860  Biso   1.000  O
  O20      1.0000 0.72890  0.79910  0.09200  Biso   1.000  O
  N9       1.0000 0.80770  0.55200  0.78250  Biso   1.000  N
  N10      1.0000 0.77650  0.65160  0.83810  Biso   1.000  N
  C49      1.0000 0.82350  0.50240  0.74960  Biso   1.000  C
  H25      1.0000 0.82590  0.49460  0.66570  Biso   1.000  H
  C50      1.0000 0.83660  0.46210  0.83220  Biso   1.000  C
  C51      1.0000 0.83220  0.47460  0.95560  Biso   1.000  C
  H26      1.0000 0.83880  0.44910  0.01700  Biso   1.000  H
  C52      1.0000 0.81690  0.52870  0.98420  Biso   1.000  C
  H27      1.0000 0.81470  0.53880  0.06680  Biso   1.000  H
  C53      1.0000 0.80590  0.56410  0.90140  Biso   1.000  C
  C54      1.0000 0.78700  0.62030  0.93620  Biso   1.000  C
  C55      1.0000 0.77980  0.64030  0.04920  Biso   1.000  C
  H28      1.0000 0.78630  0.61680  0.11480  Biso   1.000  H
  C56      1.0000 0.76470  0.68960  0.07790  Biso   1.000  C
  H29      1.0000 0.76140  0.70130  0.15930  Biso   1.000  H
  C57      1.0000 0.75380  0.72400  0.97530  Biso   1.000  C
  C58      1.0000 0.75940  0.70150  0.85660  Biso   1.000  C
  H30      1.0000 0.75060  0.72270  0.78840  Biso   1.000  H
  C59      1.0000 0.85320  0.40840  0.79220  Biso   1.000  C
  C60      1.0000 0.73520  0.78160  0.98370  Biso   1.000  C
  In6      1.0000 0.28980  0.11984  0.14444  Biso   1.000  In
  O21      1.0000 0.36040  0.90090  0.17830  Biso   1.000  O
  O22      1.0000 0.36330  0.87260  0.37330  Biso   1.000  O
  O23      1.0000 0.22820  0.30860  0.38860  Biso   1.000  O
  O24      1.0000 0.22890  0.29910  0.59200  Biso   1.000  O
  N11      1.0000 0.30770  0.05200  0.28250  Biso   1.000  N
  N12      1.0000 0.27650  0.15160  0.33810  Biso   1.000  N
  C61      1.0000 0.32350  0.00240  0.24960  Biso   1.000  C
  H31      1.0000 0.32590  0.99460  0.16570  Biso   1.000  H
  C62      1.0000 0.33660  0.96210  0.33220  Biso   1.000  C
  C63      1.0000 0.33220  0.97460  0.45560  Biso   1.000  C
  H32      1.0000 0.33880  0.94910  0.51700  Biso   1.000  H
  C64      1.0000 0.31690  0.02870  0.48420  Biso   1.000  C
  H33      1.0000 0.31470  0.03880  0.56680  Biso   1.000  H
  C65      1.0000 0.30590  0.06410  0.40140  Biso   1.000  C
  C66      1.0000 0.28700  0.12030  0.43620  Biso   1.000  C
  C67      1.0000 0.27980  0.14030  0.54920  Biso   1.000  C
  H34      1.0000 0.28630  0.11680  0.61480  Biso   1.000  H
  C68      1.0000 0.26470  0.18960  0.57790  Biso   1.000  C
  H35      1.0000 0.26140  0.20130  0.65930  Biso   1.000  H
  C69      1.0000 0.25380  0.22400  0.47530  Biso   1.000  C
  C70      1.0000 0.25940  0.20150  0.35660  Biso   1.000  C
  H36      1.0000 0.25060  0.22270  0.28840  Biso   1.000  H
  C71      1.0000 0.35320  0.90840  0.29220  Biso   1.000  C
  C72      1.0000 0.23520  0.28160  0.48370  Biso   1.000  C
  In7      1.0000 0.21020  0.38016  0.64444  Biso   1.000  In
  O25      1.0000 0.13960  0.59910  0.67830  Biso   1.000  O
  O26      1.0000 0.13670  0.62740  0.87330  Biso   1.000  O
  O27      1.0000 0.27180  0.19140  0.88860  Biso   1.000  O
  O28      1.0000 0.27110  0.20090  0.09200  Biso   1.000  O
  N13      1.0000 0.19230  0.44800  0.78250  Biso   1.000  N
  N14      1.0000 0.22350  0.34840  0.83810  Biso   1.000  N
  C73      1.0000 0.17650  0.49760  0.74960  Biso   1.000  C
  H37      1.0000 0.17410  0.50540  0.66570  Biso   1.000  H
  C74      1.0000 0.16340  0.53790  0.83220  Biso   1.000  C
  C75      1.0000 0.16780  0.52540  0.95560  Biso   1.000  C
  H38      1.0000 0.16120  0.55090  0.01700  Biso   1.000  H
  C76      1.0000 0.18310  0.47130  0.98420  Biso   1.000  C
  H39      1.0000 0.18530  0.46120  0.06680  Biso   1.000  H
  C77      1.0000 0.19410  0.43590  0.90140  Biso   1.000  C
  C78      1.0000 0.21300  0.37970  0.93620  Biso   1.000  C
  C79      1.0000 0.22020  0.35970  0.04920  Biso   1.000  C
  H40      1.0000 0.21370  0.38320  0.11480  Biso   1.000  H
  C80      1.0000 0.23530  0.31040  0.07790  Biso   1.000  C
  H41      1.0000 0.23860  0.29870  0.15930  Biso   1.000  H
  C81      1.0000 0.24620  0.27600  0.97530  Biso   1.000  C
  C82      1.0000 0.24060  0.29850  0.85660  Biso   1.000  C
  H42      1.0000 0.24940  0.27730  0.78840  Biso   1.000  H
  C83      1.0000 0.14680  0.59160  0.79220  Biso   1.000  C
  C84      1.0000 0.26480  0.21840  0.98370  Biso   1.000  C
  In8      1.0000 0.71020  0.88016  0.14444  Biso   1.000  In
  O29      1.0000 0.63960  0.09910  0.17830  Biso   1.000  O
  O30      1.0000 0.63670  0.12740  0.37330  Biso   1.000  O
  O31      1.0000 0.77180  0.69140  0.38860  Biso   1.000  O
  O32      1.0000 0.77110  0.70090  0.59200  Biso   1.000  O
  N15      1.0000 0.69230  0.94800  0.28250  Biso   1.000  N
  N16      1.0000 0.72350  0.84840  0.33810  Biso   1.000  N
  C85      1.0000 0.67650  0.99760  0.24960  Biso   1.000  C
  H43      1.0000 0.67410  0.00540  0.16570  Biso   1.000  H
  C86      1.0000 0.66340  0.03790  0.33220  Biso   1.000  C
  C87      1.0000 0.66780  0.02540  0.45560  Biso   1.000  C
  H44      1.0000 0.66120  0.05090  0.51700  Biso   1.000  H
  C88      1.0000 0.68310  0.97130  0.48420  Biso   1.000  C
  H45      1.0000 0.68530  0.96120  0.56680  Biso   1.000  H
  C89      1.0000 0.69410  0.93590  0.40140  Biso   1.000  C
  C90      1.0000 0.71300  0.87970  0.43620  Biso   1.000  C
  C91      1.0000 0.72020  0.85970  0.54920  Biso   1.000  C
  H46      1.0000 0.71370  0.88320  0.61480  Biso   1.000  H
  C92      1.0000 0.73530  0.81040  0.57790  Biso   1.000  C
  H47      1.0000 0.73860  0.79870  0.65930  Biso   1.000  H
  C93      1.0000 0.74620  0.77600  0.47530  Biso   1.000  C
  C94      1.0000 0.74060  0.79850  0.35660  Biso   1.000  C
  H48      1.0000 0.74940  0.77730  0.28840  Biso   1.000  H
  C95      1.0000 0.64680  0.09160  0.29220  Biso   1.000  C
  C96      1.0000 0.76480  0.71840  0.48370  Biso   1.000  C
