data_COSMII_clean
_audit_creation_date              2015-10-16
_audit_creation_method            'Materials Studio'
_symmetry_space_group_name_H-M    'P1'
_symmetry_Int_Tables_number       1
_symmetry_cell_setting            triclinic
loop_
_symmetry_equiv_pos_as_xyz
  x,y,z
_cell_length_a                    14.1227
_cell_length_b                    18.7391
_cell_length_c                    18.7391
_cell_angle_alpha                 66.0878
_cell_angle_beta                  75.4506
_cell_angle_gamma                 104.5490
loop_
_atom_site_label
_atom_site_type_symbol
_atom_site_fract_x
_atom_site_fract_y
_atom_site_fract_z
_atom_site_U_iso_or_equiv
_atom_site_adp_type
_atom_site_occupancy
In1    In    0.16726   0.48778   0.43389   0.01267  Uiso   1.00
In2    In    0.17948   0.51222   0.92167   0.01267  Uiso   1.00
In3    In    0.60115   0.43389   0.07833   0.01267  Uiso   1.00
In4    In    0.10115   0.92167   0.56611   0.01267  Uiso   1.00
In5    In    0.67948   0.07833   0.48778   0.01267  Uiso   1.00
In6    In    0.66726   0.56611   0.51222   0.01267  Uiso   1.00
H1     H     0.39880   0.58780   0.07470   0.01267  Uiso   1.00
H2     H     0.42540   0.00880   0.55250   0.01267  Uiso   1.00
H3     H     0.63540   0.24700   0.64190   0.01267  Uiso   1.00
H4     H     0.89880   0.92530   0.41220   0.01267  Uiso   1.00
H5     H     0.65620   0.84840   0.31730   0.01267  Uiso   1.00
H6     H     0.13540   0.35810   0.75300   0.01267  Uiso   1.00
H7     H     0.88380   0.23530   0.44450   0.01267  Uiso   1.00
H8     H     0.71040   0.90890   0.79190   0.01267  Uiso   1.00
H9     H     0.32830   0.44450   0.32020   0.01267  Uiso   1.00
H10    H     0.27730   0.64190   0.11110   0.01267  Uiso   1.00
H11    H     0.47350   0.07470   0.33750   0.01267  Uiso   1.00
H12    H     0.21040   0.20810   0.09110   0.01267  Uiso   1.00
H13    H     0.38380   0.55550   0.76470   0.01267  Uiso   1.00
H14    H     0.47790   0.56130   0.44750   0.01267  Uiso   1.00
H15    H     0.64850   0.32020   0.23530   0.01267  Uiso   1.00
H16    H     0.30780   0.15160   0.16570   0.01267  Uiso   1.00
H17    H     0.77730   0.88890   0.35810   0.01267  Uiso   1.00
H18    H     0.31100   0.41220   0.66250   0.01267  Uiso   1.00
H19    H     0.15620   0.68270   0.15160   0.01267  Uiso   1.00
H20    H     0.97350   0.31730   0.83430   0.01267  Uiso   1.00
H21    H     0.91660   0.99120   0.56130   0.01267  Uiso   1.00
H22    H     0.92540   0.44750   0.99120   0.01267  Uiso   1.00
H23    H     0.81100   0.33750   0.58780   0.01267  Uiso   1.00
H24    H     0.88840   0.75300   0.88890   0.01267  Uiso   1.00
H25    H     0.80150   0.29920   0.90890   0.01267  Uiso   1.00
H26    H     0.80780   0.83430   0.84840   0.01267  Uiso   1.00
H27    H     0.82830   0.67980   0.55550   0.01267  Uiso   1.00
H28    H     0.50230   0.79190   0.29920   0.01267  Uiso   1.00
H29    H     0.00230   0.70080   0.20810   0.01267  Uiso   1.00
H30    H     0.41660   0.43870   0.00880   0.01267  Uiso   1.00
H31    H     0.97350   0.66250   0.92530   0.01267  Uiso   1.00
H32    H     0.47350   0.16570   0.68270   0.01267  Uiso   1.00
H33    H     0.97790   0.55250   0.43870   0.01267  Uiso   1.00
H34    H     0.14850   0.76470   0.67980   0.01267  Uiso   1.00
H35    H     0.38840   0.11110   0.24700   0.01267  Uiso   1.00
H36    H     0.30150   0.09110   0.70080   0.01267  Uiso   1.00
C1     C     0.73810   0.36900   0.00000   0.01267  Uiso   1.00
C2     C     0.73280   0.76300   0.42600   0.01267  Uiso   1.00
C3     C     0.12400   0.64400   0.82310   0.01267  Uiso   1.00
C4     C     0.23280   0.57400   0.23700   0.01267  Uiso   1.00
C5     C     0.36910   0.63100   0.36900   0.01267  Uiso   1.00
C6     C     0.23810   0.00000   0.63100   0.01267  Uiso   1.00
C7     C     0.89268   0.95817   0.62013   0.01267  Uiso   1.00
C8     C     0.68730   0.24550   0.60110   0.01267  Uiso   1.00
C9     C     0.06900   0.70300   0.80560   0.01267  Uiso   1.00
C10    C     0.15880   0.42600   0.81100   0.01267  Uiso   1.00
C11    C     0.86040   0.33410   0.90990   0.01267  Uiso   1.00
C12    C     0.48000   0.53290   0.64400   0.01267  Uiso   1.00
C13    C     0.49170   0.13150   0.29950   0.01267  Uiso   1.00
C14    C     0.46980   0.23700   0.18900   0.01267  Uiso   1.00
C15    C     0.84670   0.37420   0.95570   0.01267  Uiso   1.00
C16    C     0.36020   0.56900   0.13150   0.01267  Uiso   1.00
C17    C     0.18730   0.39890   0.75450   0.01267  Uiso   1.00
C18    C     0.23810   0.36900   0.00000   0.01267  Uiso   1.00
C19    C     0.14765   0.60025   0.26580   0.01267  Uiso   1.00
C20    C     0.44180   0.15340   0.24550   0.01267  Uiso   1.00
C21    C     0.09530   0.76200   0.72300   0.01267  Uiso   1.00
C22    C     0.91345   0.86605   0.73420   0.01267  Uiso   1.00
C23    C     0.41345   0.26580   0.13395   0.01267  Uiso   1.00
C24    C     0.28840   0.60110   0.15340   0.01267  Uiso   1.00
C25    C     0.52630   0.75600   0.33410   0.01267  Uiso   1.00
C26    C     0.78840   0.84660   0.39890   0.01267  Uiso   1.00
C27    C     0.80240   0.95570   0.67010   0.01267  Uiso   1.00
C28    C     0.82740   0.86460   0.78990   0.01267  Uiso   1.00
C29    C     0.96980   0.81100   0.76300   0.01267  Uiso   1.00
C30    C     0.77030   0.90990   0.75600   0.01267  Uiso   1.00
C31    C     0.36600   0.49140   0.70300   0.01267  Uiso   1.00
C32    C     0.86600   0.29700   0.50860   0.01267  Uiso   1.00
C33    C     0.01281   0.57830   0.37987   0.01267  Uiso   1.00
C34    C     0.04740   0.39975   0.86605   0.01267  Uiso   1.00
C35    C     0.46280   0.13540   0.65450   0.01267  Uiso   1.00
C36    C     0.73810  -0.00000   0.63100   0.01267  Uiso   1.00
C37    C     0.79120   0.29950   0.56900   0.01267  Uiso   1.00
C38    C     0.33330   0.51500   0.76200   0.01267  Uiso   1.00
C39    C     0.34670   0.04430   0.62580   0.01267  Uiso   1.00
C40    C     0.81830   0.72300   0.51500   0.01267  Uiso   1.00
C41    C     0.02630   0.66590   0.24400   0.01267  Uiso   1.00
C42    C     0.44710   0.46710   0.17690   0.01267  Uiso   1.00
C43    C     0.98000   0.35600   0.46710   0.01267  Uiso   1.00
C44    C     0.56900   0.19440   0.29700   0.01267  Uiso   1.00
C45    C     0.39268   0.37987   0.04183   0.01267  Uiso   1.00
C46    C     0.11730   0.65450   0.21010   0.01267  Uiso   1.00
C47    C     0.86910   0.63100   0.36900   0.01267  Uiso   1.00
C48    C     0.47250   0.67010   0.37420   0.01267  Uiso   1.00
C49    C     0.54740   0.13395   0.60025   0.01267  Uiso   1.00
C50    C     0.37460   0.50860   0.19440   0.01267  Uiso   1.00
C51    C     0.99170   0.70050   0.86850   0.01267  Uiso   1.00
C52    C     0.61730   0.78990   0.34550   0.01267  Uiso   1.00
C53    C     0.64765   0.73420   0.39975   0.01267  Uiso   1.00
C54    C     0.94710   0.82310   0.53290   0.01267  Uiso   1.00
C55    C     0.27030   0.24400   0.09010   0.01267  Uiso   1.00
C56    C     0.65880   0.18900   0.57400   0.01267  Uiso   1.00
C57    C     0.36040   0.09010   0.66590   0.01267  Uiso   1.00
C58    C     0.97250   0.62580   0.32990   0.01267  Uiso   1.00
C59    C     0.62400   0.17690   0.35600   0.01267  Uiso   1.00
C60    C     0.94180   0.75450   0.84660   0.01267  Uiso   1.00
C61    C     0.87460   0.80560   0.49140   0.01267  Uiso   1.00
C62    C     0.30240   0.32990   0.04430   0.01267  Uiso   1.00
C63    C     0.86020   0.86850   0.43100   0.01267  Uiso   1.00
C64    C     0.43451   0.04183   0.57830   0.01267  Uiso   1.00
C65    C     0.29120   0.43100   0.70050   0.01267  Uiso   1.00
C66    C     0.93451   0.42170   0.95817   0.01267  Uiso   1.00
C67    C     0.31830   0.48500   0.27700   0.01267  Uiso   1.00
C68    C     0.51281   0.62013   0.42170   0.01267  Uiso   1.00
C69    C     0.96280   0.34550   0.86460   0.01267  Uiso   1.00
C70    C     0.83330   0.23800   0.48500   0.01267  Uiso   1.00
C71    C     0.32740   0.21010   0.13540   0.01267  Uiso   1.00
C72    C     0.59530   0.27700   0.23800   0.01267  Uiso   1.00
N1     N     0.03241   0.43317   0.91594   0.01267  Uiso   1.00
N2     N     0.53241   0.08406   0.56683   0.01267  Uiso   1.00
N3     N     0.54728   0.29789   0.18425   0.01267  Uiso   1.00
N4     N     0.04728   0.81575   0.70211   0.01267  Uiso   1.00
N5     N     0.74939   0.70211   0.48214   0.01267  Uiso   1.00
N6     N     0.44835   0.34911   0.08406   0.01267  Uiso   1.00
N7     N     0.09924   0.56683   0.34911   0.01267  Uiso   1.00
N8     N     0.94835   0.91594   0.65089   0.01267  Uiso   1.00
N9     N     0.73153   0.18425   0.51786   0.01267  Uiso   1.00
N10    N     0.59924   0.65089   0.43317   0.01267  Uiso   1.00
N11    N     0.24939   0.51786   0.29789   0.01267  Uiso   1.00
N12    N     0.23153   0.48214   0.81575   0.01267  Uiso   1.00
O1     O     0.03950   0.36390   0.40330   0.01267  Uiso   1.00
O2     O     0.15920   0.99720   0.67770   0.01267  Uiso   1.00
O3     O     0.01055   0.90045   0.49790   0.01267  Uiso   1.00
O4     O     0.77015   0.02981   0.55206   0.01267  Uiso   1.00
O5     O     0.11010   0.60165   0.90045   0.01267  Uiso   1.00
O6     O     0.00845   0.39835   0.50210   0.01267  Uiso   1.00
O7     O     0.66200   0.00280   0.67490   0.01267  Uiso   1.00
O8     O     0.16200   0.32510   0.99720   0.01267  Uiso   1.00
O9     O     0.32221   0.55206   0.41813   0.01267  Uiso   1.00
O10    O     0.53950   0.59670   0.63610   0.01267  Uiso   1.00
O11    O     0.51055   0.50210   0.09955   0.01267  Uiso   1.00
O12    O     0.61010   0.09955   0.39835   0.01267  Uiso   1.00
O13    O     0.74034   0.41813   0.02981   0.01267  Uiso   1.00
O14    O     0.83690   0.67770   0.32510   0.01267  Uiso   1.00
O15    O     0.44280   0.40330   0.23280   0.01267  Uiso   1.00
O16    O     0.27015   0.44794   0.97019   0.01267  Uiso   1.00
O17    O     0.94280   0.76720   0.59670   0.01267  Uiso   1.00
O18    O     0.67560   0.23280   0.36390   0.01267  Uiso   1.00
O19    O     0.17560   0.63610   0.76720   0.01267  Uiso   1.00
O20    O     0.24034   0.97019   0.58187   0.01267  Uiso   1.00
O21    O     0.33690   0.67490   0.32230   0.01267  Uiso   1.00
O22    O     0.82221   0.58187   0.44794   0.01267  Uiso   1.00
O23    O     0.50845   0.49790   0.60165   0.01267  Uiso   1.00
O24    O     0.65920   0.32230   0.00280   0.01267  Uiso   1.00
