data_image0
_cell_length_a       20.812
_cell_length_b       6.6495
_cell_length_c       20.865
_cell_angle_alpha    90
_cell_angle_beta     90
_cell_angle_gamma    90

_symmetry_space_group_name_H-M    "P 1"
_symmetry_int_tables_number       1

loop_
  _symmetry_equiv_pos_as_xyz
  'x, y, z'

loop_
  _atom_site_label
  _atom_site_occupancy
  _atom_site_fract_x
  _atom_site_fract_y
  _atom_site_fract_z
  _atom_site_thermal_displace_type
  _atom_site_B_iso_or_equiv
  _atom_site_type_symbol
  Ba1      1.0000 0.13996  0.39394  0.11495  Biso   1.000  Ba
  O1       1.0000 0.09872  0.24350  0.33854  Biso   1.000  O
  O2       1.0000 0.13074  0.26270  0.23789  Biso   1.000  O
  O3       1.0000 0.36610  0.25660  0.48943  Biso   1.000  O
  O4       1.0000 0.26650  0.16800  0.51095  Biso   1.000  O
  O5       1.0000 0.35963  0.25180  0.18230  Biso   1.000  O
  O6       1.0000 0.43290  0.28790  0.25900  Biso   1.000  O
  O7       1.0000 0.05530  0.04920  0.12580  Biso   1.000  O
  O8       1.0000 0.22157  0.03430  0.12414  Biso   1.000  O
  O9       1.0000 0.01660  0.49480  0.16750  Biso   1.000  O
  C1       1.0000 0.14310  0.25220  0.29710  Biso   1.000  C
  C2       1.0000 0.21150  0.25000  0.31820  Biso   1.000  C
  C3       1.0000 0.22820  0.23930  0.38310  Biso   1.000  C
  H1       1.0000 0.19600  0.23360  0.41400  Biso   1.000  H
  C4       1.0000 0.29240  0.23700  0.40220  Biso   1.000  C
  C5       1.0000 0.34010  0.24800  0.35630  Biso   1.000  C
  H2       1.0000 0.38300  0.25100  0.36870  Biso   1.000  H
  C6       1.0000 0.32430  0.25460  0.29090  Biso   1.000  C
  C7       1.0000 0.26060  0.25400  0.27270  Biso   1.000  C
  H3       1.0000 0.25020  0.25620  0.22940  Biso   1.000  H
  C8       1.0000 0.30870  0.22040  0.47200  Biso   1.000  C
  C9       1.0000 0.37590  0.26540  0.24050  Biso   1.000  C
  Ba2      1.0000 0.36004  0.10606  0.61495  Biso   1.000  Ba
  O10      1.0000 0.40128  0.25650  0.83854  Biso   1.000  O
  O11      1.0000 0.36926  0.23730  0.73789  Biso   1.000  O
  O12      1.0000 0.13390  0.24340  0.98943  Biso   1.000  O
  O13      1.0000 0.23350  0.33200  0.01095  Biso   1.000  O
  O14      1.0000 0.14037  0.24820  0.68230  Biso   1.000  O
  O15      1.0000 0.06710  0.21210  0.75900  Biso   1.000  O
  O16      1.0000 0.44470  0.45080  0.62580  Biso   1.000  O
  O17      1.0000 0.27843  0.46570  0.62414  Biso   1.000  O
  O18      1.0000 0.48340  0.00520  0.66750  Biso   1.000  O
  C10      1.0000 0.35690  0.24780  0.79710  Biso   1.000  C
  C11      1.0000 0.28850  0.25000  0.81820  Biso   1.000  C
  C12      1.0000 0.27180  0.26070  0.88310  Biso   1.000  C
  H4       1.0000 0.30400  0.26640  0.91400  Biso   1.000  H
  C13      1.0000 0.20760  0.26300  0.90220  Biso   1.000  C
  C14      1.0000 0.15990  0.25200  0.85630  Biso   1.000  C
  H5       1.0000 0.11700  0.24900  0.86870  Biso   1.000  H
  C15      1.0000 0.17570  0.24540  0.79090  Biso   1.000  C
  C16      1.0000 0.23940  0.24600  0.77270  Biso   1.000  C
  H6       1.0000 0.24980  0.24380  0.72940  Biso   1.000  H
  C17      1.0000 0.19130  0.27960  0.97200  Biso   1.000  C
  C18      1.0000 0.12410  0.23460  0.74050  Biso   1.000  C
  Ba3      1.0000 0.86004  0.39394  0.38505  Biso   1.000  Ba
  O19      1.0000 0.90128  0.24350  0.16146  Biso   1.000  O
  O20      1.0000 0.86926  0.26270  0.26211  Biso   1.000  O
  O21      1.0000 0.63390  0.25660  0.01057  Biso   1.000  O
  O22      1.0000 0.73350  0.16800  0.98905  Biso   1.000  O
  O23      1.0000 0.64037  0.25180  0.31770  Biso   1.000  O
  O24      1.0000 0.56710  0.28790  0.24100  Biso   1.000  O
  O25      1.0000 0.94470  0.04920  0.37420  Biso   1.000  O
  O26      1.0000 0.77843  0.03430  0.37586  Biso   1.000  O
  O27      1.0000 0.98340  0.49480  0.33250  Biso   1.000  O
  C19      1.0000 0.85690  0.25220  0.20290  Biso   1.000  C
  C20      1.0000 0.78850  0.25000  0.18180  Biso   1.000  C
  C21      1.0000 0.77180  0.23930  0.11690  Biso   1.000  C
  H7       1.0000 0.80400  0.23360  0.08600  Biso   1.000  H
  C22      1.0000 0.70760  0.23700  0.09780  Biso   1.000  C
  C23      1.0000 0.65990  0.24800  0.14370  Biso   1.000  C
  H8       1.0000 0.61700  0.25100  0.13130  Biso   1.000  H
  C24      1.0000 0.67570  0.25460  0.20910  Biso   1.000  C
  C25      1.0000 0.73940  0.25400  0.22730  Biso   1.000  C
  H9       1.0000 0.74980  0.25620  0.27060  Biso   1.000  H
  C26      1.0000 0.69130  0.22040  0.02800  Biso   1.000  C
  C27      1.0000 0.62410  0.26540  0.25950  Biso   1.000  C
  Ba4      1.0000 0.63996  0.10606  0.88505  Biso   1.000  Ba
  O28      1.0000 0.59872  0.25650  0.66146  Biso   1.000  O
  O29      1.0000 0.63074  0.23730  0.76211  Biso   1.000  O
  O30      1.0000 0.86610  0.24340  0.51057  Biso   1.000  O
  O31      1.0000 0.76650  0.33200  0.48905  Biso   1.000  O
  O32      1.0000 0.85963  0.24820  0.81770  Biso   1.000  O
  O33      1.0000 0.93290  0.21210  0.74100  Biso   1.000  O
  O34      1.0000 0.55530  0.45080  0.87420  Biso   1.000  O
  O35      1.0000 0.72157  0.46570  0.87586  Biso   1.000  O
  O36      1.0000 0.51660  0.00520  0.83250  Biso   1.000  O
  C28      1.0000 0.64310  0.24780  0.70290  Biso   1.000  C
  C29      1.0000 0.71150  0.25000  0.68180  Biso   1.000  C
  C30      1.0000 0.72820  0.26070  0.61690  Biso   1.000  C
  H10      1.0000 0.69600  0.26640  0.58600  Biso   1.000  H
  C31      1.0000 0.79240  0.26300  0.59780  Biso   1.000  C
  C32      1.0000 0.84010  0.25200  0.64370  Biso   1.000  C
  H11      1.0000 0.88300  0.24900  0.63130  Biso   1.000  H
  C33      1.0000 0.82430  0.24540  0.70910  Biso   1.000  C
  C34      1.0000 0.76060  0.24600  0.72730  Biso   1.000  C
  H12      1.0000 0.75020  0.24380  0.77060  Biso   1.000  H
  C35      1.0000 0.80870  0.27960  0.52800  Biso   1.000  C
  C36      1.0000 0.87590  0.23460  0.75950  Biso   1.000  C
  Ba5      1.0000 0.86004  0.60606  0.88505  Biso   1.000  Ba
  O37      1.0000 0.90128  0.75650  0.66146  Biso   1.000  O
  O38      1.0000 0.86926  0.73730  0.76211  Biso   1.000  O
  O39      1.0000 0.63390  0.74340  0.51057  Biso   1.000  O
  O40      1.0000 0.73350  0.83200  0.48905  Biso   1.000  O
  O41      1.0000 0.64037  0.74820  0.81770  Biso   1.000  O
  O42      1.0000 0.56710  0.71210  0.74100  Biso   1.000  O
  O43      1.0000 0.94470  0.95080  0.87420  Biso   1.000  O
  O44      1.0000 0.77843  0.96570  0.87586  Biso   1.000  O
  O45      1.0000 0.98340  0.50520  0.83250  Biso   1.000  O
  C37      1.0000 0.85690  0.74780  0.70290  Biso   1.000  C
  C38      1.0000 0.78850  0.75000  0.68180  Biso   1.000  C
  C39      1.0000 0.77180  0.76070  0.61690  Biso   1.000  C
  H13      1.0000 0.80400  0.76640  0.58600  Biso   1.000  H
  C40      1.0000 0.70760  0.76300  0.59780  Biso   1.000  C
  C41      1.0000 0.65990  0.75200  0.64370  Biso   1.000  C
  H14      1.0000 0.61700  0.74900  0.63130  Biso   1.000  H
  C42      1.0000 0.67570  0.74540  0.70910  Biso   1.000  C
  C43      1.0000 0.73940  0.74600  0.72730  Biso   1.000  C
  H15      1.0000 0.74980  0.74380  0.77060  Biso   1.000  H
  C44      1.0000 0.69130  0.77960  0.52800  Biso   1.000  C
  C45      1.0000 0.62410  0.73460  0.75950  Biso   1.000  C
  Ba6      1.0000 0.63996  0.89394  0.38505  Biso   1.000  Ba
  O46      1.0000 0.59872  0.74350  0.16146  Biso   1.000  O
  O47      1.0000 0.63074  0.76270  0.26211  Biso   1.000  O
  O48      1.0000 0.86610  0.75660  0.01057  Biso   1.000  O
  O49      1.0000 0.76650  0.66800  0.98905  Biso   1.000  O
  O50      1.0000 0.85963  0.75180  0.31770  Biso   1.000  O
  O51      1.0000 0.93290  0.78790  0.24100  Biso   1.000  O
  O52      1.0000 0.55530  0.54920  0.37420  Biso   1.000  O
  O53      1.0000 0.72157  0.53430  0.37586  Biso   1.000  O
  O54      1.0000 0.51660  0.99480  0.33250  Biso   1.000  O
  C46      1.0000 0.64310  0.75220  0.20290  Biso   1.000  C
  C47      1.0000 0.71150  0.75000  0.18180  Biso   1.000  C
  C48      1.0000 0.72820  0.73930  0.11690  Biso   1.000  C
  H16      1.0000 0.69600  0.73360  0.08600  Biso   1.000  H
  C49      1.0000 0.79240  0.73700  0.09780  Biso   1.000  C
  C50      1.0000 0.84010  0.74800  0.14370  Biso   1.000  C
  H17      1.0000 0.88300  0.75100  0.13130  Biso   1.000  H
  C51      1.0000 0.82430  0.75460  0.20910  Biso   1.000  C
  C52      1.0000 0.76060  0.75400  0.22730  Biso   1.000  C
  H18      1.0000 0.75020  0.75620  0.27060  Biso   1.000  H
  C53      1.0000 0.80870  0.72040  0.02800  Biso   1.000  C
  C54      1.0000 0.87590  0.76540  0.25950  Biso   1.000  C
  Ba7      1.0000 0.13996  0.60606  0.61495  Biso   1.000  Ba
  O55      1.0000 0.09872  0.75650  0.83854  Biso   1.000  O
  O56      1.0000 0.13074  0.73730  0.73789  Biso   1.000  O
  O57      1.0000 0.36610  0.74340  0.98943  Biso   1.000  O
  O58      1.0000 0.26650  0.83200  0.01095  Biso   1.000  O
  O59      1.0000 0.35963  0.74820  0.68230  Biso   1.000  O
  O60      1.0000 0.43290  0.71210  0.75900  Biso   1.000  O
  O61      1.0000 0.05530  0.95080  0.62580  Biso   1.000  O
  O62      1.0000 0.22157  0.96570  0.62414  Biso   1.000  O
  O63      1.0000 0.01660  0.50520  0.66750  Biso   1.000  O
  C55      1.0000 0.14310  0.74780  0.79710  Biso   1.000  C
  C56      1.0000 0.21150  0.75000  0.81820  Biso   1.000  C
  C57      1.0000 0.22820  0.76070  0.88310  Biso   1.000  C
  H19      1.0000 0.19600  0.76640  0.91400  Biso   1.000  H
  C58      1.0000 0.29240  0.76300  0.90220  Biso   1.000  C
  C59      1.0000 0.34010  0.75200  0.85630  Biso   1.000  C
  H20      1.0000 0.38300  0.74900  0.86870  Biso   1.000  H
  C60      1.0000 0.32430  0.74540  0.79090  Biso   1.000  C
  C61      1.0000 0.26060  0.74600  0.77270  Biso   1.000  C
  H21      1.0000 0.25020  0.74380  0.72940  Biso   1.000  H
  C62      1.0000 0.30870  0.77960  0.97200  Biso   1.000  C
  C63      1.0000 0.37590  0.73460  0.74050  Biso   1.000  C
  Ba8      1.0000 0.36004  0.89394  0.11495  Biso   1.000  Ba
  O64      1.0000 0.40128  0.74350  0.33854  Biso   1.000  O
  O65      1.0000 0.36926  0.76270  0.23789  Biso   1.000  O
  O66      1.0000 0.13390  0.75660  0.48943  Biso   1.000  O
  O67      1.0000 0.23350  0.66800  0.51095  Biso   1.000  O
  O68      1.0000 0.14037  0.75180  0.18230  Biso   1.000  O
  O69      1.0000 0.06710  0.78790  0.25900  Biso   1.000  O
  O70      1.0000 0.44470  0.54920  0.12580  Biso   1.000  O
  O71      1.0000 0.27843  0.53430  0.12414  Biso   1.000  O
  O72      1.0000 0.48340  0.99480  0.16750  Biso   1.000  O
  C64      1.0000 0.35690  0.75220  0.29710  Biso   1.000  C
  C65      1.0000 0.28850  0.75000  0.31820  Biso   1.000  C
  C66      1.0000 0.27180  0.73930  0.38310  Biso   1.000  C
  H22      1.0000 0.30400  0.73360  0.41400  Biso   1.000  H
  C67      1.0000 0.20760  0.73700  0.40220  Biso   1.000  C
  C68      1.0000 0.15990  0.74800  0.35630  Biso   1.000  C
  H23      1.0000 0.11700  0.75100  0.36870  Biso   1.000  H
  C69      1.0000 0.17570  0.75460  0.29090  Biso   1.000  C
  C70      1.0000 0.23940  0.75400  0.27270  Biso   1.000  C
  H24      1.0000 0.24980  0.75620  0.22940  Biso   1.000  H
  C71      1.0000 0.19130  0.72040  0.47200  Biso   1.000  C
  C72      1.0000 0.12410  0.76540  0.24050  Biso   1.000  C
  Ba9      1.0000 0.00000  0.13785  0.25000  Biso   1.000  Ba
  Ba10     1.0000 0.50000  0.36215  0.75000  Biso   1.000  Ba
  Ba11     1.0000 0.00000  0.86215  0.75000  Biso   1.000  Ba
  Ba12     1.0000 0.50000  0.63785  0.25000  Biso   1.000  Ba
