data_image0
_cell_length_a       14.4388
_cell_length_b       16.4128
_cell_length_c       19.331
_cell_angle_alpha    90
_cell_angle_beta     107.606
_cell_angle_gamma    90

_symmetry_space_group_name_H-M    "P 1"
_symmetry_int_tables_number       1

loop_
  _symmetry_equiv_pos_as_xyz
  'x, y, z'

loop_
  _atom_site_label
  _atom_site_occupancy
  _atom_site_fract_x
  _atom_site_fract_y
  _atom_site_fract_z
  _atom_site_thermal_displace_type
  _atom_site_B_iso_or_equiv
  _atom_site_type_symbol
  C1       1.0000 0.86730  0.32520  0.88720  Biso   1.000  C
  C2       1.0000 0.94770  0.29680  0.94250  Biso   1.000  C
  H1       1.0000 0.00930  0.30350  0.93750  Biso   1.000  H
  C3       1.0000 0.93940  0.25930  0.00410  Biso   1.000  C
  C4       1.0000 0.84730  0.24700  0.01070  Biso   1.000  C
  H2       1.0000 0.83970  0.22020  0.05110  Biso   1.000  H
  C5       1.0000 0.76590  0.27530  0.95620  Biso   1.000  C
  C6       1.0000 0.77480  0.31410  0.89450  Biso   1.000  C
  H3       1.0000 0.72000  0.33230  0.85870  Biso   1.000  H
  C7       1.0000 0.87420  0.37290  0.82380  Biso   1.000  C
  C8       1.0000 0.02190  0.22270  0.05970  Biso   1.000  C
  C9       1.0000 0.66930  0.26230  0.96280  Biso   1.000  C
  C10      1.0000 0.59150  0.25170  0.96970  Biso   1.000  C
  C11      1.0000 0.49670  0.25120  0.97820  Biso   1.000  C
  C12      1.0000 0.48480  0.21730  0.04200  Biso   1.000  C
  H4       1.0000 0.53770  0.19420  0.07660  Biso   1.000  H
  C13      1.0000 0.39480  0.21820  0.05320  Biso   1.000  C
  C14      1.0000 0.31330  0.25440  0.00510  Biso   1.000  C
  H5       1.0000 0.25390  0.25670  0.01450  Biso   1.000  H
  C15      1.0000 0.32680  0.28800  0.93990  Biso   1.000  C
  C16      1.0000 0.41540  0.28520  0.92930  Biso   1.000  C
  H6       1.0000 0.42180  0.30730  0.88670  Biso   1.000  H
  C17      1.0000 0.38280  0.18730  0.12210  Biso   1.000  C
  C18      1.0000 0.24570  0.32200  0.88520  Biso   1.000  C
  C19      1.0000 0.54340  0.49270  0.78900  Biso   1.000  C
  C20      1.0000 0.53680  0.47300  0.85930  Biso   1.000  C
  H7       1.0000 0.55710  0.42180  0.87850  Biso   1.000  H
  C21      1.0000 0.50210  0.52590  0.89900  Biso   1.000  C
  C22      1.0000 0.46820  0.60080  0.86870  Biso   1.000  C
  H8       1.0000 0.44170  0.63720  0.89440  Biso   1.000  H
  C23      1.0000 0.47360  0.62240  0.79840  Biso   1.000  C
  C24      1.0000 0.50990  0.56970  0.75940  Biso   1.000  C
  H9       1.0000 0.51280  0.58400  0.71360  Biso   1.000  H
  C25      1.0000 0.58340  0.43720  0.74330  Biso   1.000  C
  C26      1.0000 0.44580  0.70170  0.76550  Biso   1.000  C
  C27      1.0000 0.50040  0.50900  0.97050  Biso   1.000  C
  C28      1.0000 0.12820  0.55450  0.88140  Biso   1.000  C
  H10      1.0000 0.08830  0.53760  0.91050  Biso   1.000  H
  H11      1.0000 0.10750  0.60720  0.86100  Biso   1.000  H
  H12      1.0000 0.19470  0.55730  0.91120  Biso   1.000  H
  Sm1      1.0000 0.67709  0.34347  0.66893  Biso   1.000  Sm
  Sm2      1.0000 0.07834  0.36427  0.77097  Biso   1.000  Sm
  O1       1.0000 0.79990  0.38610  0.77280  Biso   1.000  O
  O2       1.0000 0.95720  0.38840  0.82170  Biso   1.000  O
  O3       1.0000 0.10670  0.24280  0.06190  Biso   1.000  O
  O4       1.0000 0.00740  0.18070  0.10650  Biso   1.000  O
  O5       1.0000 0.44820  0.13810  0.16170  Biso   1.000  O
  O6       1.0000 0.30790  0.20590  0.14100  Biso   1.000  O
  O7       1.0000 0.16670  0.32480  0.89830  Biso   1.000  O
  O8       1.0000 0.24590  0.34760  0.82650  Biso   1.000  O
  O9       1.0000 0.59200  0.36480  0.76210  Biso   1.000  O
  O10      1.0000 0.61560  0.46630  0.69580  Biso   1.000  O
  O11      1.0000 0.47680  0.72940  0.72050  Biso   1.000  O
  O12      1.0000 0.38470  0.74480  0.79110  Biso   1.000  O
  O13      1.0000 0.11870  0.49240  0.81960  Biso   1.000  O
  H13      1.0000 0.13560  0.50380  0.78220  Biso   1.000  H
  C29      1.0000 0.63270  0.82520  0.61280  Biso   1.000  C
  C30      1.0000 0.55230  0.79680  0.55750  Biso   1.000  C
  H14      1.0000 0.49070  0.80350  0.56250  Biso   1.000  H
  C31      1.0000 0.56060  0.75930  0.49590  Biso   1.000  C
  C32      1.0000 0.65270  0.74700  0.48930  Biso   1.000  C
  H15      1.0000 0.66030  0.72020  0.44890  Biso   1.000  H
  C33      1.0000 0.73410  0.77530  0.54380  Biso   1.000  C
  C34      1.0000 0.72520  0.81410  0.60550  Biso   1.000  C
  H16      1.0000 0.78000  0.83230  0.64130  Biso   1.000  H
  C35      1.0000 0.62580  0.87290  0.67620  Biso   1.000  C
  C36      1.0000 0.47810  0.72270  0.44030  Biso   1.000  C
  C37      1.0000 0.83070  0.76230  0.53720  Biso   1.000  C
  C38      1.0000 0.90850  0.75170  0.53030  Biso   1.000  C
  C39      1.0000 0.00330  0.75120  0.52180  Biso   1.000  C
  C40      1.0000 0.01520  0.71730  0.45800  Biso   1.000  C
  H17      1.0000 0.96230  0.69420  0.42340  Biso   1.000  H
  C41      1.0000 0.10520  0.71820  0.44680  Biso   1.000  C
  C42      1.0000 0.18670  0.75440  0.49490  Biso   1.000  C
  H18      1.0000 0.24610  0.75670  0.48550  Biso   1.000  H
  C43      1.0000 0.17320  0.78800  0.56010  Biso   1.000  C
  C44      1.0000 0.08460  0.78520  0.57070  Biso   1.000  C
  H19      1.0000 0.07820  0.80730  0.61330  Biso   1.000  H
  C45      1.0000 0.11720  0.68730  0.37790  Biso   1.000  C
  C46      1.0000 0.25430  0.82200  0.61480  Biso   1.000  C
  C47      1.0000 0.95660  0.99270  0.71100  Biso   1.000  C
  C48      1.0000 0.96320  0.97300  0.64070  Biso   1.000  C
  H20      1.0000 0.94290  0.92180  0.62150  Biso   1.000  H
  C49      1.0000 0.99790  0.02590  0.60100  Biso   1.000  C
  C50      1.0000 0.03180  0.10080  0.63130  Biso   1.000  C
  H21      1.0000 0.05830  0.13720  0.60560  Biso   1.000  H
  C51      1.0000 0.02640  0.12240  0.70160  Biso   1.000  C
  C52      1.0000 0.99010  0.06970  0.74060  Biso   1.000  C
  H22      1.0000 0.98720  0.08400  0.78640  Biso   1.000  H
  C53      1.0000 0.91660  0.93720  0.75670  Biso   1.000  C
  C54      1.0000 0.05420  0.20170  0.73450  Biso   1.000  C
  C55      1.0000 0.99960  0.00900  0.52950  Biso   1.000  C
  C56      1.0000 0.37180  0.05450  0.61860  Biso   1.000  C
  H23      1.0000 0.41170  0.03760  0.58950  Biso   1.000  H
  H24      1.0000 0.39250  0.10720  0.63900  Biso   1.000  H
  H25      1.0000 0.30530  0.05730  0.58880  Biso   1.000  H
  Sm3      1.0000 0.82291  0.84347  0.83107  Biso   1.000  Sm
  Sm4      1.0000 0.42166  0.86427  0.72903  Biso   1.000  Sm
  O14      1.0000 0.70010  0.88610  0.72720  Biso   1.000  O
  O15      1.0000 0.54280  0.88840  0.67830  Biso   1.000  O
  O16      1.0000 0.39330  0.74280  0.43810  Biso   1.000  O
  O17      1.0000 0.49260  0.68070  0.39350  Biso   1.000  O
  O18      1.0000 0.05180  0.63810  0.33830  Biso   1.000  O
  O19      1.0000 0.19210  0.70590  0.35900  Biso   1.000  O
  O20      1.0000 0.33330  0.82480  0.60170  Biso   1.000  O
  O21      1.0000 0.25410  0.84760  0.67350  Biso   1.000  O
  O22      1.0000 0.90800  0.86480  0.73790  Biso   1.000  O
  O23      1.0000 0.88440  0.96630  0.80420  Biso   1.000  O
  O24      1.0000 0.02320  0.22940  0.77950  Biso   1.000  O
  O25      1.0000 0.11530  0.24480  0.70890  Biso   1.000  O
  O26      1.0000 0.38130  0.99240  0.68040  Biso   1.000  O
  H26      1.0000 0.36440  0.00380  0.71780  Biso   1.000  H
  C57      1.0000 0.13270  0.67480  0.11280  Biso   1.000  C
  C58      1.0000 0.05230  0.70320  0.05750  Biso   1.000  C
  H27      1.0000 0.99070  0.69650  0.06250  Biso   1.000  H
  C59      1.0000 0.06060  0.74070  0.99590  Biso   1.000  C
  C60      1.0000 0.15270  0.75300  0.98930  Biso   1.000  C
  H28      1.0000 0.16030  0.77980  0.94890  Biso   1.000  H
  C61      1.0000 0.23410  0.72470  0.04380  Biso   1.000  C
  C62      1.0000 0.22520  0.68590  0.10550  Biso   1.000  C
  H29      1.0000 0.28000  0.66770  0.14130  Biso   1.000  H
  C63      1.0000 0.12580  0.62710  0.17620  Biso   1.000  C
  C64      1.0000 0.97810  0.77730  0.94030  Biso   1.000  C
  C65      1.0000 0.33070  0.73770  0.03720  Biso   1.000  C
  C66      1.0000 0.40850  0.74830  0.03030  Biso   1.000  C
  C67      1.0000 0.50330  0.74880  0.02180  Biso   1.000  C
  C68      1.0000 0.51520  0.78270  0.95800  Biso   1.000  C
  H30      1.0000 0.46230  0.80580  0.92340  Biso   1.000  H
  C69      1.0000 0.60520  0.78180  0.94680  Biso   1.000  C
  C70      1.0000 0.68670  0.74560  0.99490  Biso   1.000  C
  H31      1.0000 0.74610  0.74330  0.98550  Biso   1.000  H
  C71      1.0000 0.67320  0.71200  0.06010  Biso   1.000  C
  C72      1.0000 0.58460  0.71480  0.07070  Biso   1.000  C
  H32      1.0000 0.57820  0.69270  0.11330  Biso   1.000  H
  C73      1.0000 0.61720  0.81270  0.87790  Biso   1.000  C
  C74      1.0000 0.75430  0.67800  0.11480  Biso   1.000  C
  C75      1.0000 0.45660  0.50730  0.21100  Biso   1.000  C
  C76      1.0000 0.46320  0.52700  0.14070  Biso   1.000  C
  H33      1.0000 0.44290  0.57820  0.12150  Biso   1.000  H
  C77      1.0000 0.49790  0.47410  0.10100  Biso   1.000  C
  C78      1.0000 0.53180  0.39920  0.13130  Biso   1.000  C
  H34      1.0000 0.55830  0.36280  0.10560  Biso   1.000  H
  C79      1.0000 0.52640  0.37760  0.20160  Biso   1.000  C
  C80      1.0000 0.49010  0.43030  0.24060  Biso   1.000  C
  H35      1.0000 0.48720  0.41600  0.28640  Biso   1.000  H
  C81      1.0000 0.41660  0.56280  0.25670  Biso   1.000  C
  C82      1.0000 0.55420  0.29830  0.23450  Biso   1.000  C
  C83      1.0000 0.49960  0.49100  0.02950  Biso   1.000  C
  C84      1.0000 0.87180  0.44550  0.11860  Biso   1.000  C
  H36      1.0000 0.91170  0.46240  0.08950  Biso   1.000  H
  H37      1.0000 0.89250  0.39280  0.13900  Biso   1.000  H
  H38      1.0000 0.80530  0.44270  0.08880  Biso   1.000  H
  Sm5      1.0000 0.32291  0.65653  0.33107  Biso   1.000  Sm
  Sm6      1.0000 0.92166  0.63573  0.22903  Biso   1.000  Sm
  O27      1.0000 0.20010  0.61390  0.22720  Biso   1.000  O
  O28      1.0000 0.04280  0.61160  0.17830  Biso   1.000  O
  O29      1.0000 0.89330  0.75720  0.93810  Biso   1.000  O
  O30      1.0000 0.99260  0.81930  0.89350  Biso   1.000  O
  O31      1.0000 0.55180  0.86190  0.83830  Biso   1.000  O
  O32      1.0000 0.69210  0.79410  0.85900  Biso   1.000  O
  O33      1.0000 0.83330  0.67520  0.10170  Biso   1.000  O
  O34      1.0000 0.75410  0.65240  0.17350  Biso   1.000  O
  O35      1.0000 0.40800  0.63520  0.23790  Biso   1.000  O
  O36      1.0000 0.38440  0.53370  0.30420  Biso   1.000  O
  O37      1.0000 0.52320  0.27060  0.27950  Biso   1.000  O
  O38      1.0000 0.61530  0.25520  0.20890  Biso   1.000  O
  O39      1.0000 0.88130  0.50760  0.18040  Biso   1.000  O
  H39      1.0000 0.86440  0.49620  0.21780  Biso   1.000  H
  C85      1.0000 0.36730  0.17480  0.38720  Biso   1.000  C
  C86      1.0000 0.44770  0.20320  0.44250  Biso   1.000  C
  H40      1.0000 0.50930  0.19650  0.43750  Biso   1.000  H
  C87      1.0000 0.43940  0.24070  0.50410  Biso   1.000  C
  C88      1.0000 0.34730  0.25300  0.51070  Biso   1.000  C
  H41      1.0000 0.33970  0.27980  0.55110  Biso   1.000  H
  C89      1.0000 0.26590  0.22470  0.45620  Biso   1.000  C
  C90      1.0000 0.27480  0.18590  0.39450  Biso   1.000  C
  H42      1.0000 0.22000  0.16770  0.35870  Biso   1.000  H
  C91      1.0000 0.37420  0.12710  0.32380  Biso   1.000  C
  C92      1.0000 0.52190  0.27730  0.55970  Biso   1.000  C
  C93      1.0000 0.16930  0.23770  0.46280  Biso   1.000  C
  C94      1.0000 0.09150  0.24830  0.46970  Biso   1.000  C
  C95      1.0000 0.99670  0.24880  0.47820  Biso   1.000  C
  C96      1.0000 0.98480  0.28270  0.54200  Biso   1.000  C
  H43      1.0000 0.03770  0.30580  0.57660  Biso   1.000  H
  C97      1.0000 0.89480  0.28180  0.55320  Biso   1.000  C
  C98      1.0000 0.81330  0.24560  0.50510  Biso   1.000  C
  H44      1.0000 0.75390  0.24330  0.51450  Biso   1.000  H
  C99      1.0000 0.82680  0.21200  0.43990  Biso   1.000  C
  C100     1.0000 0.91540  0.21480  0.42930  Biso   1.000  C
  H45      1.0000 0.92180  0.19270  0.38670  Biso   1.000  H
  C101     1.0000 0.88280  0.31270  0.62210  Biso   1.000  C
  C102     1.0000 0.74570  0.17800  0.38520  Biso   1.000  C
  C103     1.0000 0.04340  0.00730  0.28900  Biso   1.000  C
  C104     1.0000 0.03680  0.02700  0.35930  Biso   1.000  C
  H46      1.0000 0.05710  0.07820  0.37850  Biso   1.000  H
  C105     1.0000 0.00210  0.97410  0.39900  Biso   1.000  C
  C106     1.0000 0.96820  0.89920  0.36870  Biso   1.000  C
  H47      1.0000 0.94170  0.86280  0.39440  Biso   1.000  H
  C107     1.0000 0.97360  0.87760  0.29840  Biso   1.000  C
  C108     1.0000 0.00990  0.93030  0.25940  Biso   1.000  C
  H48      1.0000 0.01280  0.91600  0.21360  Biso   1.000  H
  C109     1.0000 0.08340  0.06280  0.24330  Biso   1.000  C
  C110     1.0000 0.94580  0.79830  0.26550  Biso   1.000  C
  C111     1.0000 0.00040  0.99100  0.47050  Biso   1.000  C
  C112     1.0000 0.62820  0.94550  0.38140  Biso   1.000  C
  H49      1.0000 0.58830  0.96240  0.41050  Biso   1.000  H
  H50      1.0000 0.60750  0.89280  0.36100  Biso   1.000  H
  H51      1.0000 0.69470  0.94270  0.41120  Biso   1.000  H
  Sm7      1.0000 0.17709  0.15653  0.16893  Biso   1.000  Sm
  Sm8      1.0000 0.57834  0.13573  0.27097  Biso   1.000  Sm
  O40      1.0000 0.29990  0.11390  0.27280  Biso   1.000  O
  O41      1.0000 0.45720  0.11160  0.32170  Biso   1.000  O
  O42      1.0000 0.60670  0.25720  0.56190  Biso   1.000  O
  O43      1.0000 0.50740  0.31930  0.60650  Biso   1.000  O
  O44      1.0000 0.94820  0.36190  0.66170  Biso   1.000  O
  O45      1.0000 0.80790  0.29410  0.64100  Biso   1.000  O
  O46      1.0000 0.66670  0.17520  0.39830  Biso   1.000  O
  O47      1.0000 0.74590  0.15240  0.32650  Biso   1.000  O
  O48      1.0000 0.09200  0.13520  0.26210  Biso   1.000  O
  O49      1.0000 0.11560  0.03370  0.19580  Biso   1.000  O
  O50      1.0000 0.97680  0.77060  0.22050  Biso   1.000  O
  O51      1.0000 0.88470  0.75520  0.29110  Biso   1.000  O
  O52      1.0000 0.61870  0.00760  0.31960  Biso   1.000  O
  H52      1.0000 0.63560  0.99620  0.28220  Biso   1.000  H
