data_image0
_cell_length_a       15.9082
_cell_length_b       15.9082
_cell_length_c       21.6184
_cell_angle_alpha    90
_cell_angle_beta     90
_cell_angle_gamma    90

_symmetry_space_group_name_H-M    "P 1"
_symmetry_int_tables_number       1

loop_
  _symmetry_equiv_pos_as_xyz
  'x, y, z'

loop_
  _atom_site_label
  _atom_site_occupancy
  _atom_site_fract_x
  _atom_site_fract_y
  _atom_site_fract_z
  _atom_site_thermal_displace_type
  _atom_site_B_iso_or_equiv
  _atom_site_type_symbol
  C1       1.0000 0.91340  0.85940  0.35880  Biso   1.000  C
  H1       1.0000 0.96230  0.88800  0.34810  Biso   1.000  H
  C2       1.0000 0.88450  0.79780  0.31890  Biso   1.000  C
  H2       1.0000 0.91400  0.78570  0.28280  Biso   1.000  H
  C3       1.0000 0.81080  0.75370  0.33280  Biso   1.000  C
  C4       1.0000 0.76810  0.78090  0.38560  Biso   1.000  C
  H3       1.0000 0.71650  0.75720  0.39560  Biso   1.000  H
  C5       1.0000 0.80130  0.84200  0.42280  Biso   1.000  C
  H4       1.0000 0.77120  0.85810  0.45770  Biso   1.000  H
  C6       1.0000 0.78000  0.68150  0.29590  Biso   1.000  C
  C7       1.0000 0.80950  0.66510  0.23650  Biso   1.000  C
  H5       1.0000 0.84970  0.70040  0.21900  Biso   1.000  H
  C8       1.0000 0.77990  0.59730  0.20320  Biso   1.000  C
  H6       1.0000 0.79970  0.58800  0.16330  Biso   1.000  H
  C9       1.0000 0.72090  0.54280  0.22850  Biso   1.000  C
  H7       1.0000 0.70220  0.49640  0.20630  Biso   1.000  H
  C10      1.0000 0.69020  0.55880  0.28779  Biso   1.000  C
  C11      1.0000 0.71980  0.62690  0.32052  Biso   1.000  C
  H8       1.0000 0.69930  0.63680  0.36010  Biso   1.000  H
  C12      1.0000 0.62720  0.50330  0.31857  Biso   1.000  C
  C13      1.0000 0.57670  0.40830  0.38105  Biso   1.000  C
  C14      1.0000 0.56870  0.33890  0.42555  Biso   1.000  C
  C15      1.0000 0.49700  0.33700  0.46300  Biso   1.000  C
  H9       1.0000 0.45670  0.37900  0.45950  Biso   1.000  H
  C16      1.0000 0.48620  0.27320  0.50510  Biso   1.000  C
  H10      1.0000 0.43880  0.27290  0.53040  Biso   1.000  H
  C17      1.0000 0.54500  0.20890  0.51060  Biso   1.000  C
  H11      1.0000 0.53730  0.16650  0.53960  Biso   1.000  H
  C18      1.0000 0.61670  0.20840  0.47170  Biso   1.000  C
  C19      1.0000 0.62710  0.27320  0.42960  Biso   1.000  C
  H12      1.0000 0.67360  0.27320  0.40360  Biso   1.000  H
  C20      1.0000 0.68130  0.14270  0.47790  Biso   1.000  C
  C21      1.0000 0.69090  0.09500  0.53180  Biso   1.000  C
  H13      1.0000 0.65350  0.10170  0.56440  Biso   1.000  H
  C22      1.0000 0.75640  0.03760  0.53640  Biso   1.000  C
  H14      1.0000 0.76110  0.00660  0.57270  Biso   1.000  H
  C23      1.0000 0.80270  0.06700  0.43940  Biso   1.000  C
  H15      1.0000 0.84040  0.05750  0.40720  Biso   1.000  H
  C24      1.0000 0.73890  0.12480  0.43030  Biso   1.000  C
  H16      1.0000 0.73410  0.15220  0.39250  Biso   1.000  H
  N1       1.0000 0.87560  0.88020  0.41147  Biso   1.000  N
  N2       1.0000 0.54560  0.50770  0.31612  Biso   1.000  N
  N3       1.0000 0.51270  0.44680  0.35555  Biso   1.000  N
  N4       1.0000 0.64930  0.44220  0.35865  Biso   1.000  N
  N5       1.0000 0.73160  0.42140  0.37830  Biso   1.000  N
  H17      1.0000 0.77600  0.45330  0.37700  Biso   1.000  H
  H18      1.0000 0.75810  0.39130  0.34990  Biso   1.000  H
  N6       1.0000 0.81300  0.02410  0.49202  Biso   1.000  N
  C25      1.0000 0.08660  0.14060  0.85880  Biso   1.000  C
  H19      1.0000 0.03770  0.11200  0.84810  Biso   1.000  H
  C26      1.0000 0.11550  0.20220  0.81890  Biso   1.000  C
  H20      1.0000 0.08600  0.21430  0.78280  Biso   1.000  H
  C27      1.0000 0.18920  0.24630  0.83280  Biso   1.000  C
  C28      1.0000 0.23190  0.21910  0.88560  Biso   1.000  C
  H21      1.0000 0.28350  0.24280  0.89560  Biso   1.000  H
  C29      1.0000 0.19870  0.15800  0.92280  Biso   1.000  C
  H22      1.0000 0.22880  0.14190  0.95770  Biso   1.000  H
  C30      1.0000 0.22000  0.31850  0.79590  Biso   1.000  C
  C31      1.0000 0.19050  0.33490  0.73650  Biso   1.000  C
  H23      1.0000 0.15030  0.29960  0.71900  Biso   1.000  H
  C32      1.0000 0.22010  0.40270  0.70320  Biso   1.000  C
  H24      1.0000 0.20030  0.41200  0.66330  Biso   1.000  H
  C33      1.0000 0.27910  0.45720  0.72850  Biso   1.000  C
  H25      1.0000 0.29780  0.50360  0.70630  Biso   1.000  H
  C34      1.0000 0.30980  0.44120  0.78779  Biso   1.000  C
  C35      1.0000 0.28020  0.37310  0.82052  Biso   1.000  C
  H26      1.0000 0.30070  0.36320  0.86010  Biso   1.000  H
  C36      1.0000 0.37280  0.49670  0.81857  Biso   1.000  C
  C37      1.0000 0.42330  0.59170  0.88105  Biso   1.000  C
  C38      1.0000 0.43130  0.66110  0.92555  Biso   1.000  C
  C39      1.0000 0.50300  0.66300  0.96300  Biso   1.000  C
  H27      1.0000 0.54330  0.62100  0.95950  Biso   1.000  H
  C40      1.0000 0.51380  0.72680  0.00510  Biso   1.000  C
  H28      1.0000 0.56120  0.72710  0.03040  Biso   1.000  H
  C41      1.0000 0.45500  0.79110  0.01060  Biso   1.000  C
  H29      1.0000 0.46270  0.83350  0.03960  Biso   1.000  H
  C42      1.0000 0.38330  0.79160  0.97170  Biso   1.000  C
  C43      1.0000 0.37290  0.72680  0.92960  Biso   1.000  C
  H30      1.0000 0.32640  0.72680  0.90360  Biso   1.000  H
  C44      1.0000 0.31870  0.85730  0.97790  Biso   1.000  C
  C45      1.0000 0.30910  0.90500  0.03180  Biso   1.000  C
  H31      1.0000 0.34650  0.89830  0.06440  Biso   1.000  H
  C46      1.0000 0.24360  0.96240  0.03640  Biso   1.000  C
  H32      1.0000 0.23890  0.99340  0.07270  Biso   1.000  H
  C47      1.0000 0.19730  0.93300  0.93940  Biso   1.000  C
  H33      1.0000 0.15960  0.94250  0.90720  Biso   1.000  H
  C48      1.0000 0.26110  0.87520  0.93030  Biso   1.000  C
  H34      1.0000 0.26590  0.84780  0.89250  Biso   1.000  H
  N7       1.0000 0.12440  0.11980  0.91147  Biso   1.000  N
  N8       1.0000 0.45440  0.49230  0.81612  Biso   1.000  N
  N9       1.0000 0.48730  0.55320  0.85555  Biso   1.000  N
  N10      1.0000 0.35070  0.55780  0.85865  Biso   1.000  N
  N11      1.0000 0.26840  0.57860  0.87830  Biso   1.000  N
  H35      1.0000 0.22400  0.54670  0.87700  Biso   1.000  H
  H36      1.0000 0.24190  0.60870  0.84990  Biso   1.000  H
  N12      1.0000 0.18700  0.97590  0.99202  Biso   1.000  N
  C49      1.0000 0.64060  0.41340  0.60880  Biso   1.000  C
  H37      1.0000 0.61200  0.46230  0.59810  Biso   1.000  H
  C50      1.0000 0.70220  0.38450  0.56890  Biso   1.000  C
  H38      1.0000 0.71430  0.41400  0.53280  Biso   1.000  H
  C51      1.0000 0.74630  0.31080  0.58280  Biso   1.000  C
  C52      1.0000 0.71910  0.26810  0.63560  Biso   1.000  C
  H39      1.0000 0.74280  0.21650  0.64560  Biso   1.000  H
  C53      1.0000 0.65800  0.30130  0.67280  Biso   1.000  C
  H40      1.0000 0.64190  0.27120  0.70770  Biso   1.000  H
  C54      1.0000 0.81850  0.28000  0.54590  Biso   1.000  C
  C55      1.0000 0.83490  0.30950  0.48650  Biso   1.000  C
  H41      1.0000 0.79960  0.34970  0.46900  Biso   1.000  H
  C56      1.0000 0.90270  0.27990  0.45320  Biso   1.000  C
  H42      1.0000 0.91200  0.29970  0.41330  Biso   1.000  H
  C57      1.0000 0.95720  0.22090  0.47850  Biso   1.000  C
  H43      1.0000 0.00360  0.20220  0.45630  Biso   1.000  H
  C58      1.0000 0.94120  0.19020  0.53779  Biso   1.000  C
  C59      1.0000 0.87310  0.21980  0.57052  Biso   1.000  C
  H44      1.0000 0.86320  0.19930  0.61010  Biso   1.000  H
  C60      1.0000 0.99670  0.12720  0.56857  Biso   1.000  C
  C61      1.0000 0.09170  0.07670  0.63105  Biso   1.000  C
  C62      1.0000 0.16110  0.06870  0.67555  Biso   1.000  C
  C63      1.0000 0.16300  0.99700  0.71300  Biso   1.000  C
  H45      1.0000 0.12100  0.95670  0.70950  Biso   1.000  H
  C64      1.0000 0.22680  0.98620  0.75510  Biso   1.000  C
  H46      1.0000 0.22710  0.93880  0.78040  Biso   1.000  H
  C65      1.0000 0.29110  0.04500  0.76060  Biso   1.000  C
  H47      1.0000 0.33350  0.03730  0.78960  Biso   1.000  H
  C66      1.0000 0.29160  0.11670  0.72170  Biso   1.000  C
  C67      1.0000 0.22680  0.12710  0.67960  Biso   1.000  C
  H48      1.0000 0.22680  0.17360  0.65360  Biso   1.000  H
  C68      1.0000 0.35730  0.18130  0.72790  Biso   1.000  C
  C69      1.0000 0.40500  0.19090  0.78180  Biso   1.000  C
  H49      1.0000 0.39830  0.15350  0.81440  Biso   1.000  H
  C70      1.0000 0.46240  0.25640  0.78640  Biso   1.000  C
  H50      1.0000 0.49340  0.26110  0.82270  Biso   1.000  H
  C71      1.0000 0.43300  0.30270  0.68940  Biso   1.000  C
  H51      1.0000 0.44250  0.34040  0.65720  Biso   1.000  H
  C72      1.0000 0.37520  0.23890  0.68030  Biso   1.000  C
  H52      1.0000 0.34780  0.23410  0.64250  Biso   1.000  H
  N13      1.0000 0.61980  0.37560  0.66147  Biso   1.000  N
  N14      1.0000 0.99230  0.04560  0.56612  Biso   1.000  N
  N15      1.0000 0.05320  0.01270  0.60555  Biso   1.000  N
  N16      1.0000 0.05780  0.14930  0.60865  Biso   1.000  N
  N17      1.0000 0.07860  0.23160  0.62830  Biso   1.000  N
  H53      1.0000 0.04670  0.27600  0.62700  Biso   1.000  H
  H54      1.0000 0.10870  0.25810  0.59990  Biso   1.000  H
  N18      1.0000 0.47590  0.31300  0.74202  Biso   1.000  N
  C73      1.0000 0.35940  0.58660  0.10880  Biso   1.000  C
  H55      1.0000 0.38800  0.53770  0.09810  Biso   1.000  H
  C74      1.0000 0.29780  0.61550  0.06890  Biso   1.000  C
  H56      1.0000 0.28570  0.58600  0.03280  Biso   1.000  H
  C75      1.0000 0.25370  0.68920  0.08280  Biso   1.000  C
  C76      1.0000 0.28090  0.73190  0.13560  Biso   1.000  C
  H57      1.0000 0.25720  0.78350  0.14560  Biso   1.000  H
  C77      1.0000 0.34200  0.69870  0.17280  Biso   1.000  C
  H58      1.0000 0.35810  0.72880  0.20770  Biso   1.000  H
  C78      1.0000 0.18150  0.72000  0.04590  Biso   1.000  C
  C79      1.0000 0.16510  0.69050  0.98650  Biso   1.000  C
  H59      1.0000 0.20040  0.65030  0.96900  Biso   1.000  H
  C80      1.0000 0.09730  0.72010  0.95320  Biso   1.000  C
  H60      1.0000 0.08800  0.70030  0.91330  Biso   1.000  H
  C81      1.0000 0.04280  0.77910  0.97850  Biso   1.000  C
  H61      1.0000 0.99640  0.79780  0.95630  Biso   1.000  H
  C82      1.0000 0.05880  0.80980  0.03779  Biso   1.000  C
  C83      1.0000 0.12690  0.78020  0.07052  Biso   1.000  C
  H62      1.0000 0.13680  0.80070  0.11010  Biso   1.000  H
  C84      1.0000 0.00330  0.87280  0.06857  Biso   1.000  C
  C85      1.0000 0.90830  0.92330  0.13105  Biso   1.000  C
  C86      1.0000 0.83890  0.93130  0.17555  Biso   1.000  C
  C87      1.0000 0.83700  0.00300  0.21300  Biso   1.000  C
  H63      1.0000 0.87900  0.04330  0.20950  Biso   1.000  H
  C88      1.0000 0.77320  0.01380  0.25510  Biso   1.000  C
  H64      1.0000 0.77290  0.06120  0.28040  Biso   1.000  H
  C89      1.0000 0.70890  0.95500  0.26060  Biso   1.000  C
  H65      1.0000 0.66650  0.96270  0.28960  Biso   1.000  H
  C90      1.0000 0.70840  0.88330  0.22170  Biso   1.000  C
  C91      1.0000 0.77320  0.87290  0.17960  Biso   1.000  C
  H66      1.0000 0.77320  0.82640  0.15360  Biso   1.000  H
  C92      1.0000 0.64270  0.81870  0.22790  Biso   1.000  C
  C93      1.0000 0.59500  0.80910  0.28180  Biso   1.000  C
  H67      1.0000 0.60170  0.84650  0.31440  Biso   1.000  H
  C94      1.0000 0.53760  0.74360  0.28640  Biso   1.000  C
  H68      1.0000 0.50660  0.73890  0.32270  Biso   1.000  H
  C95      1.0000 0.56700  0.69730  0.18940  Biso   1.000  C
  H69      1.0000 0.55750  0.65960  0.15720  Biso   1.000  H
  C96      1.0000 0.62480  0.76110  0.18030  Biso   1.000  C
  H70      1.0000 0.65220  0.76590  0.14250  Biso   1.000  H
  N19      1.0000 0.38020  0.62440  0.16147  Biso   1.000  N
  N20      1.0000 0.00770  0.95440  0.06612  Biso   1.000  N
  N21      1.0000 0.94680  0.98730  0.10555  Biso   1.000  N
  N22      1.0000 0.94220  0.85070  0.10865  Biso   1.000  N
  N23      1.0000 0.92140  0.76840  0.12830  Biso   1.000  N
  H71      1.0000 0.95330  0.72400  0.12700  Biso   1.000  H
  H72      1.0000 0.89130  0.74190  0.09990  Biso   1.000  H
  N24      1.0000 0.52410  0.68700  0.24202  Biso   1.000  N
  C97      1.0000 0.58660  0.35940  0.89120  Biso   1.000  C
  H73      1.0000 0.53770  0.38800  0.90190  Biso   1.000  H
  C98      1.0000 0.61550  0.29780  0.93110  Biso   1.000  C
  H74      1.0000 0.58600  0.28570  0.96720  Biso   1.000  H
  C99      1.0000 0.68920  0.25370  0.91720  Biso   1.000  C
  C100     1.0000 0.73190  0.28090  0.86440  Biso   1.000  C
  H75      1.0000 0.78350  0.25720  0.85440  Biso   1.000  H
  C101     1.0000 0.69870  0.34200  0.82720  Biso   1.000  C
  H76      1.0000 0.72880  0.35810  0.79230  Biso   1.000  H
  C102     1.0000 0.72000  0.18150  0.95410  Biso   1.000  C
  C103     1.0000 0.69050  0.16510  0.01350  Biso   1.000  C
  H77      1.0000 0.65030  0.20040  0.03100  Biso   1.000  H
  C104     1.0000 0.72010  0.09730  0.04680  Biso   1.000  C
  H78      1.0000 0.70030  0.08800  0.08670  Biso   1.000  H
  C105     1.0000 0.77910  0.04280  0.02150  Biso   1.000  C
  H79      1.0000 0.79780  0.99640  0.04370  Biso   1.000  H
  C106     1.0000 0.80980  0.05880  0.96221  Biso   1.000  C
  C107     1.0000 0.78020  0.12690  0.92948  Biso   1.000  C
  H80      1.0000 0.80070  0.13680  0.88990  Biso   1.000  H
  C108     1.0000 0.87280  0.00330  0.93143  Biso   1.000  C
  C109     1.0000 0.92330  0.90830  0.86895  Biso   1.000  C
  C110     1.0000 0.93130  0.83890  0.82445  Biso   1.000  C
  C111     1.0000 0.00300  0.83700  0.78700  Biso   1.000  C
  H81      1.0000 0.04330  0.87900  0.79050  Biso   1.000  H
  C112     1.0000 0.01380  0.77320  0.74490  Biso   1.000  C
  H82      1.0000 0.06120  0.77290  0.71960  Biso   1.000  H
  C113     1.0000 0.95500  0.70890  0.73940  Biso   1.000  C
  H83      1.0000 0.96270  0.66650  0.71040  Biso   1.000  H
  C114     1.0000 0.88330  0.70840  0.77830  Biso   1.000  C
  C115     1.0000 0.87290  0.77320  0.82040  Biso   1.000  C
  H84      1.0000 0.82640  0.77320  0.84640  Biso   1.000  H
  C116     1.0000 0.81870  0.64270  0.77210  Biso   1.000  C
  C117     1.0000 0.80910  0.59500  0.71820  Biso   1.000  C
  H85      1.0000 0.84650  0.60170  0.68560  Biso   1.000  H
  C118     1.0000 0.74360  0.53760  0.71360  Biso   1.000  C
  H86      1.0000 0.73890  0.50660  0.67730  Biso   1.000  H
  C119     1.0000 0.69730  0.56700  0.81060  Biso   1.000  C
  H87      1.0000 0.65960  0.55750  0.84280  Biso   1.000  H
  C120     1.0000 0.76110  0.62480  0.81970  Biso   1.000  C
  H88      1.0000 0.76590  0.65220  0.85750  Biso   1.000  H
  N25      1.0000 0.62440  0.38020  0.83853  Biso   1.000  N
  N26      1.0000 0.95440  0.00770  0.93388  Biso   1.000  N
  N27      1.0000 0.98730  0.94680  0.89445  Biso   1.000  N
  N28      1.0000 0.85070  0.94220  0.89135  Biso   1.000  N
  N29      1.0000 0.76840  0.92140  0.87170  Biso   1.000  N
  H89      1.0000 0.72400  0.95330  0.87300  Biso   1.000  H
  H90      1.0000 0.74190  0.89130  0.90010  Biso   1.000  H
  N30      1.0000 0.68700  0.52410  0.75798  Biso   1.000  N
  C121     1.0000 0.41340  0.64060  0.39120  Biso   1.000  C
  H91      1.0000 0.46230  0.61200  0.40190  Biso   1.000  H
  C122     1.0000 0.38450  0.70220  0.43110  Biso   1.000  C
  H92      1.0000 0.41400  0.71430  0.46720  Biso   1.000  H
  C123     1.0000 0.31080  0.74630  0.41720  Biso   1.000  C
  C124     1.0000 0.26810  0.71910  0.36440  Biso   1.000  C
  H93      1.0000 0.21650  0.74280  0.35440  Biso   1.000  H
  C125     1.0000 0.30130  0.65800  0.32720  Biso   1.000  C
  H94      1.0000 0.27120  0.64190  0.29230  Biso   1.000  H
  C126     1.0000 0.28000  0.81850  0.45410  Biso   1.000  C
  C127     1.0000 0.30950  0.83490  0.51350  Biso   1.000  C
  H95      1.0000 0.34970  0.79960  0.53100  Biso   1.000  H
  C128     1.0000 0.27990  0.90270  0.54680  Biso   1.000  C
  H96      1.0000 0.29970  0.91200  0.58670  Biso   1.000  H
  C129     1.0000 0.22090  0.95720  0.52150  Biso   1.000  C
  H97      1.0000 0.20220  0.00360  0.54370  Biso   1.000  H
  C130     1.0000 0.19020  0.94120  0.46221  Biso   1.000  C
  C131     1.0000 0.21980  0.87310  0.42948  Biso   1.000  C
  H98      1.0000 0.19930  0.86320  0.38990  Biso   1.000  H
  C132     1.0000 0.12720  0.99670  0.43143  Biso   1.000  C
  C133     1.0000 0.07670  0.09170  0.36895  Biso   1.000  C
  C134     1.0000 0.06870  0.16110  0.32445  Biso   1.000  C
  C135     1.0000 0.99700  0.16300  0.28700  Biso   1.000  C
  H99      1.0000 0.95670  0.12100  0.29050  Biso   1.000  H
  C136     1.0000 0.98620  0.22680  0.24490  Biso   1.000  C
  H100     1.0000 0.93880  0.22710  0.21960  Biso   1.000  H
  C137     1.0000 0.04500  0.29110  0.23940  Biso   1.000  C
  H101     1.0000 0.03730  0.33350  0.21040  Biso   1.000  H
  C138     1.0000 0.11670  0.29160  0.27830  Biso   1.000  C
  C139     1.0000 0.12710  0.22680  0.32040  Biso   1.000  C
  H102     1.0000 0.17360  0.22680  0.34640  Biso   1.000  H
  C140     1.0000 0.18130  0.35730  0.27210  Biso   1.000  C
  C141     1.0000 0.19090  0.40500  0.21820  Biso   1.000  C
  H103     1.0000 0.15350  0.39830  0.18560  Biso   1.000  H
  C142     1.0000 0.25640  0.46240  0.21360  Biso   1.000  C
  H104     1.0000 0.26110  0.49340  0.17730  Biso   1.000  H
  C143     1.0000 0.30270  0.43300  0.31060  Biso   1.000  C
  H105     1.0000 0.34040  0.44250  0.34280  Biso   1.000  H
  C144     1.0000 0.23890  0.37520  0.31970  Biso   1.000  C
  H106     1.0000 0.23410  0.34780  0.35750  Biso   1.000  H
  N31      1.0000 0.37560  0.61980  0.33853  Biso   1.000  N
  N32      1.0000 0.04560  0.99230  0.43388  Biso   1.000  N
  N33      1.0000 0.01270  0.05320  0.39445  Biso   1.000  N
  N34      1.0000 0.14930  0.05780  0.39135  Biso   1.000  N
  N35      1.0000 0.23160  0.07860  0.37170  Biso   1.000  N
  H107     1.0000 0.27600  0.04670  0.37300  Biso   1.000  H
  H108     1.0000 0.25810  0.10870  0.40010  Biso   1.000  H
  N36      1.0000 0.31300  0.47590  0.25798  Biso   1.000  N
  C145     1.0000 0.85940  0.91340  0.64120  Biso   1.000  C
  H109     1.0000 0.88800  0.96230  0.65190  Biso   1.000  H
  C146     1.0000 0.79780  0.88450  0.68110  Biso   1.000  C
  H110     1.0000 0.78570  0.91400  0.71720  Biso   1.000  H
  C147     1.0000 0.75370  0.81080  0.66720  Biso   1.000  C
  C148     1.0000 0.78090  0.76810  0.61440  Biso   1.000  C
  H111     1.0000 0.75720  0.71650  0.60440  Biso   1.000  H
  C149     1.0000 0.84200  0.80130  0.57720  Biso   1.000  C
  H112     1.0000 0.85810  0.77120  0.54230  Biso   1.000  H
  C150     1.0000 0.68150  0.78000  0.70410  Biso   1.000  C
  C151     1.0000 0.66510  0.80950  0.76350  Biso   1.000  C
  H113     1.0000 0.70040  0.84970  0.78100  Biso   1.000  H
  C152     1.0000 0.59730  0.77990  0.79680  Biso   1.000  C
  H114     1.0000 0.58800  0.79970  0.83670  Biso   1.000  H
  C153     1.0000 0.54280  0.72090  0.77150  Biso   1.000  C
  H115     1.0000 0.49640  0.70220  0.79370  Biso   1.000  H
  C154     1.0000 0.55880  0.69020  0.71221  Biso   1.000  C
  C155     1.0000 0.62690  0.71980  0.67948  Biso   1.000  C
  H116     1.0000 0.63680  0.69930  0.63990  Biso   1.000  H
  C156     1.0000 0.50330  0.62720  0.68143  Biso   1.000  C
  C157     1.0000 0.40830  0.57670  0.61895  Biso   1.000  C
  C158     1.0000 0.33890  0.56870  0.57445  Biso   1.000  C
  C159     1.0000 0.33700  0.49700  0.53700  Biso   1.000  C
  H117     1.0000 0.37900  0.45670  0.54050  Biso   1.000  H
  C160     1.0000 0.27320  0.48620  0.49490  Biso   1.000  C
  H118     1.0000 0.27290  0.43880  0.46960  Biso   1.000  H
  C161     1.0000 0.20890  0.54500  0.48940  Biso   1.000  C
  H119     1.0000 0.16650  0.53730  0.46040  Biso   1.000  H
  C162     1.0000 0.20840  0.61670  0.52830  Biso   1.000  C
  C163     1.0000 0.27320  0.62710  0.57040  Biso   1.000  C
  H120     1.0000 0.27320  0.67360  0.59640  Biso   1.000  H
  C164     1.0000 0.14270  0.68130  0.52210  Biso   1.000  C
  C165     1.0000 0.09500  0.69090  0.46820  Biso   1.000  C
  H121     1.0000 0.10170  0.65350  0.43560  Biso   1.000  H
  C166     1.0000 0.03760  0.75640  0.46360  Biso   1.000  C
  H122     1.0000 0.00660  0.76110  0.42730  Biso   1.000  H
  C167     1.0000 0.06700  0.80270  0.56060  Biso   1.000  C
  H123     1.0000 0.05750  0.84040  0.59280  Biso   1.000  H
  C168     1.0000 0.12480  0.73890  0.56970  Biso   1.000  C
  H124     1.0000 0.15220  0.73410  0.60750  Biso   1.000  H
  N37      1.0000 0.88020  0.87560  0.58853  Biso   1.000  N
  N38      1.0000 0.50770  0.54560  0.68388  Biso   1.000  N
  N39      1.0000 0.44680  0.51270  0.64445  Biso   1.000  N
  N40      1.0000 0.44220  0.64930  0.64135  Biso   1.000  N
  N41      1.0000 0.42140  0.73160  0.62170  Biso   1.000  N
  H125     1.0000 0.45330  0.77600  0.62300  Biso   1.000  H
  H126     1.0000 0.39130  0.75810  0.65010  Biso   1.000  H
  N42      1.0000 0.02410  0.81300  0.50798  Biso   1.000  N
  C169     1.0000 0.14060  0.08660  0.14120  Biso   1.000  C
  H127     1.0000 0.11200  0.03770  0.15190  Biso   1.000  H
  C170     1.0000 0.20220  0.11550  0.18110  Biso   1.000  C
  H128     1.0000 0.21430  0.08600  0.21720  Biso   1.000  H
  C171     1.0000 0.24630  0.18920  0.16720  Biso   1.000  C
  C172     1.0000 0.21910  0.23190  0.11440  Biso   1.000  C
  H129     1.0000 0.24280  0.28350  0.10440  Biso   1.000  H
  C173     1.0000 0.15800  0.19870  0.07720  Biso   1.000  C
  H130     1.0000 0.14190  0.22880  0.04230  Biso   1.000  H
  C174     1.0000 0.31850  0.22000  0.20410  Biso   1.000  C
  C175     1.0000 0.33490  0.19050  0.26350  Biso   1.000  C
  H131     1.0000 0.29960  0.15030  0.28100  Biso   1.000  H
  C176     1.0000 0.40270  0.22010  0.29680  Biso   1.000  C
  H132     1.0000 0.41200  0.20030  0.33670  Biso   1.000  H
  C177     1.0000 0.45720  0.27910  0.27150  Biso   1.000  C
  H133     1.0000 0.50360  0.29780  0.29370  Biso   1.000  H
  C178     1.0000 0.44120  0.30980  0.21221  Biso   1.000  C
  C179     1.0000 0.37310  0.28020  0.17948  Biso   1.000  C
  H134     1.0000 0.36320  0.30070  0.13990  Biso   1.000  H
  C180     1.0000 0.49670  0.37280  0.18143  Biso   1.000  C
  C181     1.0000 0.59170  0.42330  0.11895  Biso   1.000  C
  C182     1.0000 0.66110  0.43130  0.07445  Biso   1.000  C
  C183     1.0000 0.66300  0.50300  0.03700  Biso   1.000  C
  H135     1.0000 0.62100  0.54330  0.04050  Biso   1.000  H
  C184     1.0000 0.72680  0.51380  0.99490  Biso   1.000  C
  H136     1.0000 0.72710  0.56120  0.96960  Biso   1.000  H
  C185     1.0000 0.79110  0.45500  0.98940  Biso   1.000  C
  H137     1.0000 0.83350  0.46270  0.96040  Biso   1.000  H
  C186     1.0000 0.79160  0.38330  0.02830  Biso   1.000  C
  C187     1.0000 0.72680  0.37290  0.07040  Biso   1.000  C
  H138     1.0000 0.72680  0.32640  0.09640  Biso   1.000  H
  C188     1.0000 0.85730  0.31870  0.02210  Biso   1.000  C
  C189     1.0000 0.90500  0.30910  0.96820  Biso   1.000  C
  H139     1.0000 0.89830  0.34650  0.93560  Biso   1.000  H
  C190     1.0000 0.96240  0.24360  0.96360  Biso   1.000  C
  H140     1.0000 0.99340  0.23890  0.92730  Biso   1.000  H
  C191     1.0000 0.93300  0.19730  0.06060  Biso   1.000  C
  H141     1.0000 0.94250  0.15960  0.09280  Biso   1.000  H
  C192     1.0000 0.87520  0.26110  0.06970  Biso   1.000  C
  H142     1.0000 0.84780  0.26590  0.10750  Biso   1.000  H
  N43      1.0000 0.11980  0.12440  0.08853  Biso   1.000  N
  N44      1.0000 0.49230  0.45440  0.18388  Biso   1.000  N
  N45      1.0000 0.55320  0.48730  0.14445  Biso   1.000  N
  N46      1.0000 0.55780  0.35070  0.14135  Biso   1.000  N
  N47      1.0000 0.57860  0.26840  0.12170  Biso   1.000  N
  H143     1.0000 0.54670  0.22400  0.12300  Biso   1.000  H
  H144     1.0000 0.60870  0.24190  0.15010  Biso   1.000  H
  N48      1.0000 0.97590  0.18700  0.00798  Biso   1.000  N
  Cd1      1.0000 0.44115  0.55885  0.25000  Biso   1.000  Cd
  Cd2      1.0000 0.55885  0.44115  0.75000  Biso   1.000  Cd
  Cd3      1.0000 0.94115  0.94115  0.50000  Biso   1.000  Cd
  Cd4      1.0000 0.05885  0.05885  0.00000  Biso   1.000  Cd
