data_image0
_cell_length_a       15.8664
_cell_length_b       15.8664
_cell_length_c       21.7986
_cell_angle_alpha    90
_cell_angle_beta     90
_cell_angle_gamma    90

_symmetry_space_group_name_H-M    "P 1"
_symmetry_int_tables_number       1

loop_
  _symmetry_equiv_pos_as_xyz
  'x, y, z'

loop_
  _atom_site_label
  _atom_site_occupancy
  _atom_site_fract_x
  _atom_site_fract_y
  _atom_site_fract_z
  _atom_site_thermal_displace_type
  _atom_site_B_iso_or_equiv
  _atom_site_type_symbol
  C1       1.0000 0.75600  0.96290  0.78620  Biso   1.000  C
  H1       1.0000 0.76030  0.99410  0.82220  Biso   1.000  H
  C2       1.0000 0.69130  0.90450  0.78160  Biso   1.000  C
  H2       1.0000 0.65430  0.89690  0.81420  Biso   1.000  H
  C3       1.0000 0.68150  0.85680  0.72810  Biso   1.000  C
  C4       1.0000 0.73830  0.87530  0.68020  Biso   1.000  C
  H3       1.0000 0.73340  0.84800  0.64270  Biso   1.000  H
  C5       1.0000 0.80140  0.93410  0.68930  Biso   1.000  C
  H4       1.0000 0.83830  0.94470  0.65710  Biso   1.000  H
  C6       1.0000 0.61640  0.79040  0.72260  Biso   1.000  C
  C7       1.0000 0.54720  0.78540  0.76200  Biso   1.000  C
  H5       1.0000 0.54040  0.82590  0.79250  Biso   1.000  H
  C8       1.0000 0.48900  0.72150  0.75660  Biso   1.000  C
  H6       1.0000 0.44270  0.72030  0.78280  Biso   1.000  H
  C9       1.0000 0.49830  0.65930  0.71280  Biso   1.000  C
  H7       1.0000 0.45800  0.61710  0.70900  Biso   1.000  H
  C10      1.0000 0.56880  0.66000  0.67420  Biso   1.000  C
  C11      1.0000 0.62690  0.72580  0.67890  Biso   1.000  C
  H8       1.0000 0.67330  0.72700  0.65280  Biso   1.000  H
  C12      1.0000 0.57680  0.59170  0.62934  Biso   1.000  C
  C13      1.0000 0.62850  0.49720  0.56697  Biso   1.000  C
  C14      1.0000 0.69110  0.44120  0.53705  Biso   1.000  C
  C15      1.0000 0.72170  0.45730  0.47790  Biso   1.000  C
  H9       1.0000 0.70310  0.50390  0.45590  Biso   1.000  H
  C16      1.0000 0.78070  0.40190  0.45260  Biso   1.000  C
  H10      1.0000 0.80030  0.41090  0.41300  Biso   1.000  H
  C17      1.0000 0.81030  0.33370  0.48610  Biso   1.000  C
  H11      1.0000 0.84940  0.29740  0.46860  Biso   1.000  H
  C18      1.0000 0.78200  0.31900  0.54570  Biso   1.000  C
  C19      1.0000 0.72070  0.37410  0.56970  Biso   1.000  C
  H12      1.0000 0.69990  0.36440  0.60900  Biso   1.000  H
  C20      1.0000 0.81230  0.24680  0.58280  Biso   1.000  C
  C21      1.0000 0.76930  0.22110  0.63540  Biso   1.000  C
  H13      1.0000 0.71800  0.24580  0.64550  Biso   1.000  H
  C22      1.0000 0.80270  0.15940  0.67240  Biso   1.000  C
  H14      1.0000 0.77240  0.14340  0.70700  Biso   1.000  H
  C23      1.0000 0.91500  0.13980  0.60890  Biso   1.000  C
  H15      1.0000 0.96360  0.11030  0.59840  Biso   1.000  H
  C24      1.0000 0.88580  0.20210  0.56880  Biso   1.000  C
  H16      1.0000 0.91520  0.21380  0.53290  Biso   1.000  H
  N1       1.0000 0.81260  0.97680  0.74193  Biso   1.000  N
  N2       1.0000 0.51290  0.55230  0.60443  Biso   1.000  N
  N3       1.0000 0.54580  0.49220  0.56505  Biso   1.000  N
  N4       1.0000 0.65010  0.55880  0.60694  Biso   1.000  N
  N5       1.0000 0.73270  0.58160  0.62480  Biso   1.000  N
  N6       1.0000 0.87680  0.12050  0.66150  Biso   1.000  N
  H17      1.0000 0.76120  0.53340  0.62080  Biso   1.000  H
  H18      1.0000 0.74190  0.61500  0.59100  Biso   1.000  H
  C25      1.0000 0.24400  0.03710  0.28620  Biso   1.000  C
  H19      1.0000 0.23970  0.00590  0.32220  Biso   1.000  H
  C26      1.0000 0.30870  0.09550  0.28160  Biso   1.000  C
  H20      1.0000 0.34570  0.10310  0.31420  Biso   1.000  H
  C27      1.0000 0.31850  0.14320  0.22810  Biso   1.000  C
  C28      1.0000 0.26170  0.12470  0.18020  Biso   1.000  C
  H21      1.0000 0.26660  0.15200  0.14270  Biso   1.000  H
  C29      1.0000 0.19860  0.06590  0.18930  Biso   1.000  C
  H22      1.0000 0.16170  0.05530  0.15710  Biso   1.000  H
  C30      1.0000 0.38360  0.20960  0.22260  Biso   1.000  C
  C31      1.0000 0.45280  0.21460  0.26200  Biso   1.000  C
  H23      1.0000 0.45960  0.17410  0.29250  Biso   1.000  H
  C32      1.0000 0.51100  0.27850  0.25660  Biso   1.000  C
  H24      1.0000 0.55730  0.27970  0.28280  Biso   1.000  H
  C33      1.0000 0.50170  0.34070  0.21280  Biso   1.000  C
  H25      1.0000 0.54200  0.38290  0.20900  Biso   1.000  H
  C34      1.0000 0.43120  0.34000  0.17420  Biso   1.000  C
  C35      1.0000 0.37310  0.27420  0.17890  Biso   1.000  C
  H26      1.0000 0.32670  0.27300  0.15280  Biso   1.000  H
  C36      1.0000 0.42320  0.40830  0.12934  Biso   1.000  C
  C37      1.0000 0.37150  0.50280  0.06697  Biso   1.000  C
  C38      1.0000 0.30890  0.55880  0.03705  Biso   1.000  C
  C39      1.0000 0.27830  0.54270  0.97790  Biso   1.000  C
  H27      1.0000 0.29690  0.49610  0.95590  Biso   1.000  H
  C40      1.0000 0.21930  0.59810  0.95260  Biso   1.000  C
  H28      1.0000 0.19970  0.58910  0.91300  Biso   1.000  H
  C41      1.0000 0.18970  0.66630  0.98610  Biso   1.000  C
  H29      1.0000 0.15060  0.70260  0.96860  Biso   1.000  H
  C42      1.0000 0.21800  0.68100  0.04570  Biso   1.000  C
  C43      1.0000 0.27930  0.62590  0.06970  Biso   1.000  C
  H30      1.0000 0.30010  0.63560  0.10900  Biso   1.000  H
  C44      1.0000 0.18770  0.75320  0.08280  Biso   1.000  C
  C45      1.0000 0.23070  0.77890  0.13540  Biso   1.000  C
  H31      1.0000 0.28200  0.75420  0.14550  Biso   1.000  H
  C46      1.0000 0.19730  0.84060  0.17240  Biso   1.000  C
  H32      1.0000 0.22760  0.85660  0.20700  Biso   1.000  H
  C47      1.0000 0.08500  0.86020  0.10890  Biso   1.000  C
  H33      1.0000 0.03640  0.88970  0.09840  Biso   1.000  H
  C48      1.0000 0.11420  0.79790  0.06880  Biso   1.000  C
  H34      1.0000 0.08480  0.78620  0.03290  Biso   1.000  H
  N7       1.0000 0.18740  0.02320  0.24193  Biso   1.000  N
  N8       1.0000 0.48710  0.44770  0.10443  Biso   1.000  N
  N9       1.0000 0.45420  0.50780  0.06505  Biso   1.000  N
  N10      1.0000 0.34990  0.44120  0.10694  Biso   1.000  N
  N11      1.0000 0.26730  0.41840  0.12480  Biso   1.000  N
  N12      1.0000 0.12320  0.87950  0.16150  Biso   1.000  N
  H35      1.0000 0.23880  0.46660  0.12080  Biso   1.000  H
  H36      1.0000 0.25810  0.38500  0.09100  Biso   1.000  H
  C49      1.0000 0.53710  0.25600  0.53620  Biso   1.000  C
  H37      1.0000 0.50590  0.26030  0.57220  Biso   1.000  H
  C50      1.0000 0.59550  0.19130  0.53160  Biso   1.000  C
  H38      1.0000 0.60310  0.15430  0.56420  Biso   1.000  H
  C51      1.0000 0.64320  0.18150  0.47810  Biso   1.000  C
  C52      1.0000 0.62470  0.23830  0.43020  Biso   1.000  C
  H39      1.0000 0.65200  0.23340  0.39270  Biso   1.000  H
  C53      1.0000 0.56590  0.30140  0.43930  Biso   1.000  C
  H40      1.0000 0.55530  0.33830  0.40710  Biso   1.000  H
  C54      1.0000 0.70960  0.11640  0.47260  Biso   1.000  C
  C55      1.0000 0.71460  0.04720  0.51200  Biso   1.000  C
  H41      1.0000 0.67410  0.04040  0.54250  Biso   1.000  H
  C56      1.0000 0.77850  0.98900  0.50660  Biso   1.000  C
  H42      1.0000 0.77970  0.94270  0.53280  Biso   1.000  H
  C57      1.0000 0.84070  0.99830  0.46280  Biso   1.000  C
  H43      1.0000 0.88290  0.95800  0.45900  Biso   1.000  H
  C58      1.0000 0.84000  0.06880  0.42420  Biso   1.000  C
  C59      1.0000 0.77420  0.12690  0.42890  Biso   1.000  C
  H44      1.0000 0.77300  0.17330  0.40280  Biso   1.000  H
  C60      1.0000 0.90830  0.07680  0.37934  Biso   1.000  C
  C61      1.0000 0.00280  0.12850  0.31697  Biso   1.000  C
  C62      1.0000 0.05880  0.19110  0.28705  Biso   1.000  C
  C63      1.0000 0.04270  0.22170  0.22790  Biso   1.000  C
  H45      1.0000 0.99610  0.20310  0.20590  Biso   1.000  H
  C64      1.0000 0.09810  0.28070  0.20260  Biso   1.000  C
  H46      1.0000 0.08910  0.30030  0.16300  Biso   1.000  H
  C65      1.0000 0.16630  0.31030  0.23610  Biso   1.000  C
  H47      1.0000 0.20260  0.34940  0.21860  Biso   1.000  H
  C66      1.0000 0.18100  0.28200  0.29570  Biso   1.000  C
  C67      1.0000 0.12590  0.22070  0.31970  Biso   1.000  C
  H48      1.0000 0.13560  0.19990  0.35900  Biso   1.000  H
  C68      1.0000 0.25320  0.31230  0.33280  Biso   1.000  C
  C69      1.0000 0.27890  0.26930  0.38540  Biso   1.000  C
  H49      1.0000 0.25420  0.21800  0.39550  Biso   1.000  H
  C70      1.0000 0.34060  0.30270  0.42240  Biso   1.000  C
  H50      1.0000 0.35660  0.27240  0.45700  Biso   1.000  H
  C71      1.0000 0.36020  0.41500  0.35890  Biso   1.000  C
  H51      1.0000 0.38970  0.46360  0.34840  Biso   1.000  H
  C72      1.0000 0.29790  0.38580  0.31880  Biso   1.000  C
  H52      1.0000 0.28620  0.41520  0.28290  Biso   1.000  H
  N13      1.0000 0.52320  0.31260  0.49193  Biso   1.000  N
  N14      1.0000 0.94770  0.01290  0.35443  Biso   1.000  N
  N15      1.0000 0.00780  0.04580  0.31505  Biso   1.000  N
  N16      1.0000 0.94120  0.15010  0.35694  Biso   1.000  N
  N17      1.0000 0.91840  0.23270  0.37480  Biso   1.000  N
  N18      1.0000 0.37950  0.37680  0.41150  Biso   1.000  N
  H53      1.0000 0.96660  0.26120  0.37080  Biso   1.000  H
  H54      1.0000 0.88500  0.24190  0.34100  Biso   1.000  H
  C73      1.0000 0.46290  0.74400  0.03620  Biso   1.000  C
  H55      1.0000 0.49410  0.73970  0.07220  Biso   1.000  H
  C74      1.0000 0.40450  0.80870  0.03160  Biso   1.000  C
  H56      1.0000 0.39690  0.84570  0.06420  Biso   1.000  H
  C75      1.0000 0.35680  0.81850  0.97810  Biso   1.000  C
  C76      1.0000 0.37530  0.76170  0.93020  Biso   1.000  C
  H57      1.0000 0.34800  0.76660  0.89270  Biso   1.000  H
  C77      1.0000 0.43410  0.69860  0.93930  Biso   1.000  C
  H58      1.0000 0.44470  0.66170  0.90710  Biso   1.000  H
  C78      1.0000 0.29040  0.88360  0.97260  Biso   1.000  C
  C79      1.0000 0.28540  0.95280  0.01200  Biso   1.000  C
  H59      1.0000 0.32590  0.95960  0.04250  Biso   1.000  H
  C80      1.0000 0.22150  0.01100  0.00660  Biso   1.000  C
  H60      1.0000 0.22030  0.05730  0.03280  Biso   1.000  H
  C81      1.0000 0.15930  0.00170  0.96280  Biso   1.000  C
  H61      1.0000 0.11710  0.04200  0.95900  Biso   1.000  H
  C82      1.0000 0.16000  0.93120  0.92420  Biso   1.000  C
  C83      1.0000 0.22580  0.87310  0.92890  Biso   1.000  C
  H62      1.0000 0.22700  0.82670  0.90280  Biso   1.000  H
  C84      1.0000 0.09170  0.92320  0.87934  Biso   1.000  C
  C85      1.0000 0.99720  0.87150  0.81697  Biso   1.000  C
  C86      1.0000 0.94120  0.80890  0.78705  Biso   1.000  C
  C87      1.0000 0.95730  0.77830  0.72790  Biso   1.000  C
  H63      1.0000 0.00390  0.79690  0.70590  Biso   1.000  H
  C88      1.0000 0.90190  0.71930  0.70260  Biso   1.000  C
  H64      1.0000 0.91090  0.69970  0.66300  Biso   1.000  H
  C89      1.0000 0.83370  0.68970  0.73610  Biso   1.000  C
  H65      1.0000 0.79740  0.65060  0.71860  Biso   1.000  H
  C90      1.0000 0.81900  0.71800  0.79570  Biso   1.000  C
  C91      1.0000 0.87410  0.77930  0.81970  Biso   1.000  C
  H66      1.0000 0.86440  0.80010  0.85900  Biso   1.000  H
  C92      1.0000 0.74680  0.68770  0.83280  Biso   1.000  C
  C93      1.0000 0.72110  0.73070  0.88540  Biso   1.000  C
  H67      1.0000 0.74580  0.78200  0.89550  Biso   1.000  H
  C94      1.0000 0.65940  0.69730  0.92240  Biso   1.000  C
  H68      1.0000 0.64340  0.72760  0.95700  Biso   1.000  H
  C95      1.0000 0.63980  0.58500  0.85890  Biso   1.000  C
  H69      1.0000 0.61030  0.53640  0.84840  Biso   1.000  H
  C96      1.0000 0.70210  0.61420  0.81880  Biso   1.000  C
  H70      1.0000 0.71380  0.58480  0.78290  Biso   1.000  H
  N19      1.0000 0.47680  0.68740  0.99193  Biso   1.000  N
  N20      1.0000 0.05230  0.98710  0.85443  Biso   1.000  N
  N21      1.0000 0.99220  0.95420  0.81505  Biso   1.000  N
  N22      1.0000 0.05880  0.84990  0.85694  Biso   1.000  N
  N23      1.0000 0.08160  0.76730  0.87480  Biso   1.000  N
  N24      1.0000 0.62050  0.62320  0.91150  Biso   1.000  N
  H71      1.0000 0.03340  0.73880  0.87080  Biso   1.000  H
  H72      1.0000 0.11500  0.75810  0.84100  Biso   1.000  H
  C97      1.0000 0.74400  0.46290  0.96380  Biso   1.000  C
  H73      1.0000 0.73970  0.49410  0.92780  Biso   1.000  H
  C98      1.0000 0.80870  0.40450  0.96840  Biso   1.000  C
  H74      1.0000 0.84570  0.39690  0.93580  Biso   1.000  H
  C99      1.0000 0.81850  0.35680  0.02190  Biso   1.000  C
  C100     1.0000 0.76170  0.37530  0.06980  Biso   1.000  C
  H75      1.0000 0.76660  0.34800  0.10730  Biso   1.000  H
  C101     1.0000 0.69860  0.43410  0.06070  Biso   1.000  C
  H76      1.0000 0.66170  0.44470  0.09290  Biso   1.000  H
  C102     1.0000 0.88360  0.29040  0.02740  Biso   1.000  C
  C103     1.0000 0.95280  0.28540  0.98800  Biso   1.000  C
  H77      1.0000 0.95960  0.32590  0.95750  Biso   1.000  H
  C104     1.0000 0.01100  0.22150  0.99340  Biso   1.000  C
  H78      1.0000 0.05730  0.22030  0.96720  Biso   1.000  H
  C105     1.0000 0.00170  0.15930  0.03720  Biso   1.000  C
  H79      1.0000 0.04200  0.11710  0.04100  Biso   1.000  H
  C106     1.0000 0.93120  0.16000  0.07580  Biso   1.000  C
  C107     1.0000 0.87310  0.22580  0.07110  Biso   1.000  C
  H80      1.0000 0.82670  0.22700  0.09720  Biso   1.000  H
  C108     1.0000 0.92320  0.09170  0.12066  Biso   1.000  C
  C109     1.0000 0.87150  0.99720  0.18303  Biso   1.000  C
  C110     1.0000 0.80890  0.94120  0.21295  Biso   1.000  C
  C111     1.0000 0.77830  0.95730  0.27210  Biso   1.000  C
  H81      1.0000 0.79690  0.00390  0.29410  Biso   1.000  H
  C112     1.0000 0.71930  0.90190  0.29740  Biso   1.000  C
  H82      1.0000 0.69970  0.91090  0.33700  Biso   1.000  H
  C113     1.0000 0.68970  0.83370  0.26390  Biso   1.000  C
  H83      1.0000 0.65060  0.79740  0.28140  Biso   1.000  H
  C114     1.0000 0.71800  0.81900  0.20430  Biso   1.000  C
  C115     1.0000 0.77930  0.87410  0.18030  Biso   1.000  C
  H84      1.0000 0.80010  0.86440  0.14100  Biso   1.000  H
  C116     1.0000 0.68770  0.74680  0.16720  Biso   1.000  C
  C117     1.0000 0.73070  0.72110  0.11460  Biso   1.000  C
  H85      1.0000 0.78200  0.74580  0.10450  Biso   1.000  H
  C118     1.0000 0.69730  0.65940  0.07760  Biso   1.000  C
  H86      1.0000 0.72760  0.64340  0.04300  Biso   1.000  H
  C119     1.0000 0.58500  0.63980  0.14110  Biso   1.000  C
  H87      1.0000 0.53640  0.61030  0.15160  Biso   1.000  H
  C120     1.0000 0.61420  0.70210  0.18120  Biso   1.000  C
  H88      1.0000 0.58480  0.71380  0.21710  Biso   1.000  H
  N25      1.0000 0.68740  0.47680  0.00807  Biso   1.000  N
  N26      1.0000 0.98710  0.05230  0.14557  Biso   1.000  N
  N27      1.0000 0.95420  0.99220  0.18495  Biso   1.000  N
  N28      1.0000 0.84990  0.05880  0.14306  Biso   1.000  N
  N29      1.0000 0.76730  0.08160  0.12520  Biso   1.000  N
  N30      1.0000 0.62320  0.62050  0.08850  Biso   1.000  N
  H89      1.0000 0.73880  0.03340  0.12920  Biso   1.000  H
  H90      1.0000 0.75810  0.11500  0.15900  Biso   1.000  H
  C121     1.0000 0.25600  0.53710  0.46380  Biso   1.000  C
  H91      1.0000 0.26030  0.50590  0.42780  Biso   1.000  H
  C122     1.0000 0.19130  0.59550  0.46840  Biso   1.000  C
  H92      1.0000 0.15430  0.60310  0.43580  Biso   1.000  H
  C123     1.0000 0.18150  0.64320  0.52190  Biso   1.000  C
  C124     1.0000 0.23830  0.62470  0.56980  Biso   1.000  C
  H93      1.0000 0.23340  0.65200  0.60730  Biso   1.000  H
  C125     1.0000 0.30140  0.56590  0.56070  Biso   1.000  C
  H94      1.0000 0.33830  0.55530  0.59290  Biso   1.000  H
  C126     1.0000 0.11640  0.70960  0.52740  Biso   1.000  C
  C127     1.0000 0.04720  0.71460  0.48800  Biso   1.000  C
  H95      1.0000 0.04040  0.67410  0.45750  Biso   1.000  H
  C128     1.0000 0.98900  0.77850  0.49340  Biso   1.000  C
  H96      1.0000 0.94270  0.77970  0.46720  Biso   1.000  H
  C129     1.0000 0.99830  0.84070  0.53720  Biso   1.000  C
  H97      1.0000 0.95800  0.88290  0.54100  Biso   1.000  H
  C130     1.0000 0.06880  0.84000  0.57580  Biso   1.000  C
  C131     1.0000 0.12690  0.77420  0.57110  Biso   1.000  C
  H98      1.0000 0.17330  0.77300  0.59720  Biso   1.000  H
  C132     1.0000 0.07680  0.90830  0.62066  Biso   1.000  C
  C133     1.0000 0.12850  0.00280  0.68303  Biso   1.000  C
  C134     1.0000 0.19110  0.05880  0.71295  Biso   1.000  C
  C135     1.0000 0.22170  0.04270  0.77210  Biso   1.000  C
  H99      1.0000 0.20310  0.99610  0.79410  Biso   1.000  H
  C136     1.0000 0.28070  0.09810  0.79740  Biso   1.000  C
  H100     1.0000 0.30030  0.08910  0.83700  Biso   1.000  H
  C137     1.0000 0.31030  0.16630  0.76390  Biso   1.000  C
  H101     1.0000 0.34940  0.20260  0.78140  Biso   1.000  H
  C138     1.0000 0.28200  0.18100  0.70430  Biso   1.000  C
  C139     1.0000 0.22070  0.12590  0.68030  Biso   1.000  C
  H102     1.0000 0.19990  0.13560  0.64100  Biso   1.000  H
  C140     1.0000 0.31230  0.25320  0.66720  Biso   1.000  C
  C141     1.0000 0.26930  0.27890  0.61460  Biso   1.000  C
  H103     1.0000 0.21800  0.25420  0.60450  Biso   1.000  H
  C142     1.0000 0.30270  0.34060  0.57760  Biso   1.000  C
  H104     1.0000 0.27240  0.35660  0.54300  Biso   1.000  H
  C143     1.0000 0.41500  0.36020  0.64110  Biso   1.000  C
  H105     1.0000 0.46360  0.38970  0.65160  Biso   1.000  H
  C144     1.0000 0.38580  0.29790  0.68120  Biso   1.000  C
  H106     1.0000 0.41520  0.28620  0.71710  Biso   1.000  H
  N31      1.0000 0.31260  0.52320  0.50807  Biso   1.000  N
  N32      1.0000 0.01290  0.94770  0.64557  Biso   1.000  N
  N33      1.0000 0.04580  0.00780  0.68495  Biso   1.000  N
  N34      1.0000 0.15010  0.94120  0.64306  Biso   1.000  N
  N35      1.0000 0.23270  0.91840  0.62520  Biso   1.000  N
  N36      1.0000 0.37680  0.37950  0.58850  Biso   1.000  N
  H107     1.0000 0.26120  0.96660  0.62920  Biso   1.000  H
  H108     1.0000 0.24190  0.88500  0.65900  Biso   1.000  H
  C145     1.0000 0.96290  0.75600  0.21380  Biso   1.000  C
  H109     1.0000 0.99410  0.76030  0.17780  Biso   1.000  H
  C146     1.0000 0.90450  0.69130  0.21840  Biso   1.000  C
  H110     1.0000 0.89690  0.65430  0.18580  Biso   1.000  H
  C147     1.0000 0.85680  0.68150  0.27190  Biso   1.000  C
  C148     1.0000 0.87530  0.73830  0.31980  Biso   1.000  C
  H111     1.0000 0.84800  0.73340  0.35730  Biso   1.000  H
  C149     1.0000 0.93410  0.80140  0.31070  Biso   1.000  C
  H112     1.0000 0.94470  0.83830  0.34290  Biso   1.000  H
  C150     1.0000 0.79040  0.61640  0.27740  Biso   1.000  C
  C151     1.0000 0.78540  0.54720  0.23800  Biso   1.000  C
  H113     1.0000 0.82590  0.54040  0.20750  Biso   1.000  H
  C152     1.0000 0.72150  0.48900  0.24340  Biso   1.000  C
  H114     1.0000 0.72030  0.44270  0.21720  Biso   1.000  H
  C153     1.0000 0.65930  0.49830  0.28720  Biso   1.000  C
  H115     1.0000 0.61710  0.45800  0.29100  Biso   1.000  H
  C154     1.0000 0.66000  0.56880  0.32580  Biso   1.000  C
  C155     1.0000 0.72580  0.62690  0.32110  Biso   1.000  C
  H116     1.0000 0.72700  0.67330  0.34720  Biso   1.000  H
  C156     1.0000 0.59170  0.57680  0.37066  Biso   1.000  C
  C157     1.0000 0.49720  0.62850  0.43303  Biso   1.000  C
  C158     1.0000 0.44120  0.69110  0.46295  Biso   1.000  C
  C159     1.0000 0.45730  0.72170  0.52210  Biso   1.000  C
  H117     1.0000 0.50390  0.70310  0.54410  Biso   1.000  H
  C160     1.0000 0.40190  0.78070  0.54740  Biso   1.000  C
  H118     1.0000 0.41090  0.80030  0.58700  Biso   1.000  H
  C161     1.0000 0.33370  0.81030  0.51390  Biso   1.000  C
  H119     1.0000 0.29740  0.84940  0.53140  Biso   1.000  H
  C162     1.0000 0.31900  0.78200  0.45430  Biso   1.000  C
  C163     1.0000 0.37410  0.72070  0.43030  Biso   1.000  C
  H120     1.0000 0.36440  0.69990  0.39100  Biso   1.000  H
  C164     1.0000 0.24680  0.81230  0.41720  Biso   1.000  C
  C165     1.0000 0.22110  0.76930  0.36460  Biso   1.000  C
  H121     1.0000 0.24580  0.71800  0.35450  Biso   1.000  H
  C166     1.0000 0.15940  0.80270  0.32760  Biso   1.000  C
  H122     1.0000 0.14340  0.77240  0.29300  Biso   1.000  H
  C167     1.0000 0.13980  0.91500  0.39110  Biso   1.000  C
  H123     1.0000 0.11030  0.96360  0.40160  Biso   1.000  H
  C168     1.0000 0.20210  0.88580  0.43120  Biso   1.000  C
  H124     1.0000 0.21380  0.91520  0.46710  Biso   1.000  H
  N37      1.0000 0.97680  0.81260  0.25807  Biso   1.000  N
  N38      1.0000 0.55230  0.51290  0.39557  Biso   1.000  N
  N39      1.0000 0.49220  0.54580  0.43495  Biso   1.000  N
  N40      1.0000 0.55880  0.65010  0.39306  Biso   1.000  N
  N41      1.0000 0.58160  0.73270  0.37520  Biso   1.000  N
  N42      1.0000 0.12050  0.87680  0.33850  Biso   1.000  N
  H125     1.0000 0.53340  0.76120  0.37920  Biso   1.000  H
  H126     1.0000 0.61500  0.74190  0.40900  Biso   1.000  H
  C169     1.0000 0.03710  0.24400  0.71380  Biso   1.000  C
  H127     1.0000 0.00590  0.23970  0.67780  Biso   1.000  H
  C170     1.0000 0.09550  0.30870  0.71840  Biso   1.000  C
  H128     1.0000 0.10310  0.34570  0.68580  Biso   1.000  H
  C171     1.0000 0.14320  0.31850  0.77190  Biso   1.000  C
  C172     1.0000 0.12470  0.26170  0.81980  Biso   1.000  C
  H129     1.0000 0.15200  0.26660  0.85730  Biso   1.000  H
  C173     1.0000 0.06590  0.19860  0.81070  Biso   1.000  C
  H130     1.0000 0.05530  0.16170  0.84290  Biso   1.000  H
  C174     1.0000 0.20960  0.38360  0.77740  Biso   1.000  C
  C175     1.0000 0.21460  0.45280  0.73800  Biso   1.000  C
  H131     1.0000 0.17410  0.45960  0.70750  Biso   1.000  H
  C176     1.0000 0.27850  0.51100  0.74340  Biso   1.000  C
  H132     1.0000 0.27970  0.55730  0.71720  Biso   1.000  H
  C177     1.0000 0.34070  0.50170  0.78720  Biso   1.000  C
  H133     1.0000 0.38290  0.54200  0.79100  Biso   1.000  H
  C178     1.0000 0.34000  0.43120  0.82580  Biso   1.000  C
  C179     1.0000 0.27420  0.37310  0.82110  Biso   1.000  C
  H134     1.0000 0.27300  0.32670  0.84720  Biso   1.000  H
  C180     1.0000 0.40830  0.42320  0.87066  Biso   1.000  C
  C181     1.0000 0.50280  0.37150  0.93303  Biso   1.000  C
  C182     1.0000 0.55880  0.30890  0.96295  Biso   1.000  C
  C183     1.0000 0.54270  0.27830  0.02210  Biso   1.000  C
  H135     1.0000 0.49610  0.29690  0.04410  Biso   1.000  H
  C184     1.0000 0.59810  0.21930  0.04740  Biso   1.000  C
  H136     1.0000 0.58910  0.19970  0.08700  Biso   1.000  H
  C185     1.0000 0.66630  0.18970  0.01390  Biso   1.000  C
  H137     1.0000 0.70260  0.15060  0.03140  Biso   1.000  H
  C186     1.0000 0.68100  0.21800  0.95430  Biso   1.000  C
  C187     1.0000 0.62590  0.27930  0.93030  Biso   1.000  C
  H138     1.0000 0.63560  0.30010  0.89100  Biso   1.000  H
  C188     1.0000 0.75320  0.18770  0.91720  Biso   1.000  C
  C189     1.0000 0.77890  0.23070  0.86460  Biso   1.000  C
  H139     1.0000 0.75420  0.28200  0.85450  Biso   1.000  H
  C190     1.0000 0.84060  0.19730  0.82760  Biso   1.000  C
  H140     1.0000 0.85660  0.22760  0.79300  Biso   1.000  H
  C191     1.0000 0.86020  0.08500  0.89110  Biso   1.000  C
  H141     1.0000 0.88970  0.03640  0.90160  Biso   1.000  H
  C192     1.0000 0.79790  0.11420  0.93120  Biso   1.000  C
  H142     1.0000 0.78620  0.08480  0.96710  Biso   1.000  H
  N43      1.0000 0.02320  0.18740  0.75807  Biso   1.000  N
  N44      1.0000 0.44770  0.48710  0.89557  Biso   1.000  N
  N45      1.0000 0.50780  0.45420  0.93495  Biso   1.000  N
  N46      1.0000 0.44120  0.34990  0.89306  Biso   1.000  N
  N47      1.0000 0.41840  0.26730  0.87520  Biso   1.000  N
  N48      1.0000 0.87950  0.12320  0.83850  Biso   1.000  N
  H143     1.0000 0.46660  0.23880  0.87920  Biso   1.000  H
  H144     1.0000 0.38500  0.25810  0.90900  Biso   1.000  H
  Cd1      1.0000 0.44092  0.44092  0.50000  Biso   1.000  Cd
  Cd2      1.0000 0.55908  0.55908  0.00000  Biso   1.000  Cd
  Cd3      1.0000 0.05908  0.94092  0.25000  Biso   1.000  Cd
  Cd4      1.0000 0.94092  0.05908  0.75000  Biso   1.000  Cd
