data_image0
_cell_length_a       15.8983
_cell_length_b       15.8983
_cell_length_c       21.6675
_cell_angle_alpha    90
_cell_angle_beta     90
_cell_angle_gamma    90

_symmetry_space_group_name_H-M    "P 1"
_symmetry_int_tables_number       1

loop_
  _symmetry_equiv_pos_as_xyz
  'x, y, z'

loop_
  _atom_site_label
  _atom_site_occupancy
  _atom_site_fract_x
  _atom_site_fract_y
  _atom_site_fract_z
  _atom_site_thermal_displace_type
  _atom_site_B_iso_or_equiv
  _atom_site_type_symbol
  C1       1.0000 0.74250  0.53830  0.28700  Biso   1.000  C
  H1       1.0000 0.73720  0.50820  0.32350  Biso   1.000  H
  C2       1.0000 0.80820  0.59580  0.28210  Biso   1.000  C
  H2       1.0000 0.84510  0.60330  0.31500  Biso   1.000  H
  C3       1.0000 0.81860  0.64180  0.22820  Biso   1.000  C
  C4       1.0000 0.76190  0.62400  0.18020  Biso   1.000  C
  H3       1.0000 0.76730  0.65100  0.14230  Biso   1.000  H
  C5       1.0000 0.69830  0.56620  0.18950  Biso   1.000  C
  H4       1.0000 0.66120  0.55600  0.15720  Biso   1.000  H
  C6       1.0000 0.88360  0.70850  0.22220  Biso   1.000  C
  C7       1.0000 0.95400  0.71000  0.26010  Biso   1.000  C
  H5       1.0000 0.96130  0.66800  0.28960  Biso   1.000  H
  C8       1.0000 0.01390  0.77370  0.25460  Biso   1.000  C
  H6       1.0000 0.06130  0.77360  0.27990  Biso   1.000  H
  C9       1.0000 0.00300  0.83670  0.21190  Biso   1.000  C
  H7       1.0000 0.04330  0.87870  0.20810  Biso   1.000  H
  C10      1.0000 0.93270  0.83810  0.17473  Biso   1.000  C
  C11      1.0000 0.87390  0.77300  0.17910  Biso   1.000  C
  H8       1.0000 0.82760  0.77270  0.15290  Biso   1.000  H
  C12      1.0000 0.92350  0.90730  0.13003  Biso   1.000  C
  C13      1.0000 0.87190  0.00260  0.06773  Biso   1.000  C
  C14      1.0000 0.80960  0.05770  0.03761  Biso   1.000  C
  C15      1.0000 0.77880  0.04220  0.97800  Biso   1.000  C
  H9       1.0000 0.79730  0.99580  0.95570  Biso   1.000  H
  C16      1.0000 0.72070  0.09680  0.95300  Biso   1.000  C
  H10      1.0000 0.70150  0.08790  0.91300  Biso   1.000  H
  C17      1.0000 0.69040  0.16480  0.98640  Biso   1.000  C
  H11      1.0000 0.65030  0.20000  0.96890  Biso   1.000  H
  C18      1.0000 0.71920  0.18070  0.04579  Biso   1.000  C
  C19      1.0000 0.77980  0.12590  0.07040  Biso   1.000  C
  H12      1.0000 0.80040  0.13580  0.10990  Biso   1.000  H
  C20      1.0000 0.68850  0.25310  0.08280  Biso   1.000  C
  C21      1.0000 0.61500  0.29790  0.06830  Biso   1.000  C
  H13      1.0000 0.58580  0.28630  0.03210  Biso   1.000  H
  C22      1.0000 0.58640  0.35950  0.10850  Biso   1.000  C
  H14      1.0000 0.53760  0.38830  0.09800  Biso   1.000  H
  C23      1.0000 0.69830  0.34150  0.17310  Biso   1.000  C
  H15      1.0000 0.72820  0.35750  0.20800  Biso   1.000  H
  C24      1.0000 0.73130  0.27970  0.13590  Biso   1.000  C
  H16      1.0000 0.78260  0.25520  0.14600  Biso   1.000  H
  N1       1.0000 0.68680  0.52410  0.24230  Biso   1.000  N
  N2       1.0000 0.98760  0.94670  0.10489  Biso   1.000  N
  N3       1.0000 0.95480  0.00760  0.06595  Biso   1.000  N
  N4       1.0000 0.85036  0.94010  0.10774  Biso   1.000  N
  N5       1.0000 0.76850  0.91700  0.12570  Biso   1.000  N
  H17      1.0000 0.74340  0.88840  0.09510  Biso   1.000  H
  H18      1.0000 0.75900  0.96620  0.14120  Biso   1.000  H
  N6       1.0000 0.62420  0.38010  0.16108  Biso   1.000  N
  C25      1.0000 0.25750  0.46170  0.78700  Biso   1.000  C
  H19      1.0000 0.26280  0.49180  0.82350  Biso   1.000  H
  C26      1.0000 0.19180  0.40420  0.78210  Biso   1.000  C
  H20      1.0000 0.15490  0.39670  0.81500  Biso   1.000  H
  C27      1.0000 0.18140  0.35820  0.72820  Biso   1.000  C
  C28      1.0000 0.23810  0.37600  0.68020  Biso   1.000  C
  H21      1.0000 0.23270  0.34900  0.64230  Biso   1.000  H
  C29      1.0000 0.30170  0.43380  0.68950  Biso   1.000  C
  H22      1.0000 0.33880  0.44400  0.65720  Biso   1.000  H
  C30      1.0000 0.11640  0.29150  0.72220  Biso   1.000  C
  C31      1.0000 0.04600  0.29000  0.76010  Biso   1.000  C
  H23      1.0000 0.03870  0.33200  0.78960  Biso   1.000  H
  C32      1.0000 0.98610  0.22630  0.75460  Biso   1.000  C
  H24      1.0000 0.93870  0.22640  0.77990  Biso   1.000  H
  C33      1.0000 0.99700  0.16330  0.71190  Biso   1.000  C
  H25      1.0000 0.95670  0.12130  0.70810  Biso   1.000  H
  C34      1.0000 0.06730  0.16190  0.67473  Biso   1.000  C
  C35      1.0000 0.12610  0.22700  0.67910  Biso   1.000  C
  H26      1.0000 0.17240  0.22730  0.65290  Biso   1.000  H
  C36      1.0000 0.07650  0.09270  0.63003  Biso   1.000  C
  C37      1.0000 0.12810  0.99740  0.56773  Biso   1.000  C
  C38      1.0000 0.19040  0.94230  0.53761  Biso   1.000  C
  C39      1.0000 0.22120  0.95780  0.47800  Biso   1.000  C
  H27      1.0000 0.20270  0.00420  0.45570  Biso   1.000  H
  C40      1.0000 0.27930  0.90320  0.45300  Biso   1.000  C
  H28      1.0000 0.29850  0.91210  0.41300  Biso   1.000  H
  C41      1.0000 0.30960  0.83520  0.48640  Biso   1.000  C
  H29      1.0000 0.34970  0.80000  0.46890  Biso   1.000  H
  C42      1.0000 0.28080  0.81930  0.54579  Biso   1.000  C
  C43      1.0000 0.22020  0.87410  0.57040  Biso   1.000  C
  H30      1.0000 0.19960  0.86420  0.60990  Biso   1.000  H
  C44      1.0000 0.31150  0.74690  0.58280  Biso   1.000  C
  C45      1.0000 0.38500  0.70210  0.56830  Biso   1.000  C
  H31      1.0000 0.41420  0.71370  0.53210  Biso   1.000  H
  C46      1.0000 0.41360  0.64050  0.60850  Biso   1.000  C
  H32      1.0000 0.46240  0.61170  0.59800  Biso   1.000  H
  C47      1.0000 0.30170  0.65850  0.67310  Biso   1.000  C
  H33      1.0000 0.27180  0.64250  0.70800  Biso   1.000  H
  C48      1.0000 0.26870  0.72030  0.63590  Biso   1.000  C
  H34      1.0000 0.21740  0.74480  0.64600  Biso   1.000  H
  N7       1.0000 0.31320  0.47590  0.74230  Biso   1.000  N
  N8       1.0000 0.01240  0.05330  0.60489  Biso   1.000  N
  N9       1.0000 0.04520  0.99240  0.56595  Biso   1.000  N
  N10      1.0000 0.14964  0.05990  0.60774  Biso   1.000  N
  N11      1.0000 0.23150  0.08300  0.62570  Biso   1.000  N
  H35      1.0000 0.25660  0.11160  0.59510  Biso   1.000  H
  H36      1.0000 0.24100  0.03380  0.64120  Biso   1.000  H
  N12      1.0000 0.37580  0.61990  0.66108  Biso   1.000  N
  C49      1.0000 0.96170  0.24250  0.03700  Biso   1.000  C
  H37      1.0000 0.99180  0.23720  0.07350  Biso   1.000  H
  C50      1.0000 0.90420  0.30820  0.03210  Biso   1.000  C
  H38      1.0000 0.89670  0.34510  0.06500  Biso   1.000  H
  C51      1.0000 0.85820  0.31860  0.97820  Biso   1.000  C
  C52      1.0000 0.87600  0.26190  0.93020  Biso   1.000  C
  H39      1.0000 0.84900  0.26730  0.89230  Biso   1.000  H
  C53      1.0000 0.93380  0.19830  0.93950  Biso   1.000  C
  H40      1.0000 0.94400  0.16120  0.90720  Biso   1.000  H
  C54      1.0000 0.79150  0.38360  0.97220  Biso   1.000  C
  C55      1.0000 0.79000  0.45400  0.01010  Biso   1.000  C
  H41      1.0000 0.83200  0.46130  0.03960  Biso   1.000  H
  C56      1.0000 0.72630  0.51390  0.00460  Biso   1.000  C
  H42      1.0000 0.72640  0.56130  0.02990  Biso   1.000  H
  C57      1.0000 0.66330  0.50300  0.96190  Biso   1.000  C
  H43      1.0000 0.62130  0.54330  0.95810  Biso   1.000  H
  C58      1.0000 0.66190  0.43270  0.92473  Biso   1.000  C
  C59      1.0000 0.72700  0.37390  0.92910  Biso   1.000  C
  H44      1.0000 0.72730  0.32760  0.90290  Biso   1.000  H
  C60      1.0000 0.59270  0.42350  0.88003  Biso   1.000  C
  C61      1.0000 0.49740  0.37190  0.81773  Biso   1.000  C
  C62      1.0000 0.44230  0.30960  0.78761  Biso   1.000  C
  C63      1.0000 0.45780  0.27880  0.72800  Biso   1.000  C
  H45      1.0000 0.50420  0.29730  0.70570  Biso   1.000  H
  C64      1.0000 0.40320  0.22070  0.70300  Biso   1.000  C
  H46      1.0000 0.41210  0.20150  0.66300  Biso   1.000  H
  C65      1.0000 0.33520  0.19040  0.73640  Biso   1.000  C
  H47      1.0000 0.30000  0.15030  0.71890  Biso   1.000  H
  C66      1.0000 0.31930  0.21920  0.79579  Biso   1.000  C
  C67      1.0000 0.37410  0.27980  0.82040  Biso   1.000  C
  H48      1.0000 0.36420  0.30040  0.85990  Biso   1.000  H
  C68      1.0000 0.24690  0.18850  0.83280  Biso   1.000  C
  C69      1.0000 0.20210  0.11500  0.81830  Biso   1.000  C
  H49      1.0000 0.21370  0.08580  0.78210  Biso   1.000  H
  C70      1.0000 0.14050  0.08640  0.85850  Biso   1.000  C
  H50      1.0000 0.11170  0.03760  0.84800  Biso   1.000  H
  C71      1.0000 0.15850  0.19830  0.92310  Biso   1.000  C
  H51      1.0000 0.14250  0.22820  0.95800  Biso   1.000  H
  C72      1.0000 0.22030  0.23130  0.88590  Biso   1.000  C
  H52      1.0000 0.24480  0.28260  0.89600  Biso   1.000  H
  N13      1.0000 0.97590  0.18680  0.99230  Biso   1.000  N
  N14      1.0000 0.55330  0.48760  0.85489  Biso   1.000  N
  N15      1.0000 0.49240  0.45480  0.81595  Biso   1.000  N
  N16      1.0000 0.55990  0.35036  0.85774  Biso   1.000  N
  N17      1.0000 0.58300  0.26850  0.87570  Biso   1.000  N
  H53      1.0000 0.61160  0.24340  0.84510  Biso   1.000  H
  H54      1.0000 0.53380  0.25900  0.89120  Biso   1.000  H
  N18      1.0000 0.11990  0.12420  0.91108  Biso   1.000  N
  C73      1.0000 0.03830  0.75750  0.53700  Biso   1.000  C
  H55      1.0000 0.00820  0.76280  0.57350  Biso   1.000  H
  C74      1.0000 0.09580  0.69180  0.53210  Biso   1.000  C
  H56      1.0000 0.10330  0.65490  0.56500  Biso   1.000  H
  C75      1.0000 0.14180  0.68140  0.47820  Biso   1.000  C
  C76      1.0000 0.12400  0.73810  0.43020  Biso   1.000  C
  H57      1.0000 0.15100  0.73270  0.39230  Biso   1.000  H
  C77      1.0000 0.06620  0.80170  0.43950  Biso   1.000  C
  H58      1.0000 0.05600  0.83880  0.40720  Biso   1.000  H
  C78      1.0000 0.20850  0.61640  0.47220  Biso   1.000  C
  C79      1.0000 0.21000  0.54600  0.51010  Biso   1.000  C
  H59      1.0000 0.16800  0.53870  0.53960  Biso   1.000  H
  C80      1.0000 0.27370  0.48610  0.50460  Biso   1.000  C
  H60      1.0000 0.27360  0.43870  0.52990  Biso   1.000  H
  C81      1.0000 0.33670  0.49700  0.46190  Biso   1.000  C
  H61      1.0000 0.37870  0.45670  0.45810  Biso   1.000  H
  C82      1.0000 0.33810  0.56730  0.42473  Biso   1.000  C
  C83      1.0000 0.27300  0.62610  0.42910  Biso   1.000  C
  H62      1.0000 0.27270  0.67240  0.40290  Biso   1.000  H
  C84      1.0000 0.40730  0.57650  0.38003  Biso   1.000  C
  C85      1.0000 0.50260  0.62810  0.31773  Biso   1.000  C
  C86      1.0000 0.55770  0.69040  0.28761  Biso   1.000  C
  C87      1.0000 0.54220  0.72120  0.22800  Biso   1.000  C
  H63      1.0000 0.49580  0.70270  0.20570  Biso   1.000  H
  C88      1.0000 0.59680  0.77930  0.20300  Biso   1.000  C
  H64      1.0000 0.58790  0.79850  0.16300  Biso   1.000  H
  C89      1.0000 0.66480  0.80960  0.23640  Biso   1.000  C
  H65      1.0000 0.70000  0.84970  0.21890  Biso   1.000  H
  C90      1.0000 0.68070  0.78080  0.29579  Biso   1.000  C
  C91      1.0000 0.62590  0.72020  0.32040  Biso   1.000  C
  H66      1.0000 0.63580  0.69960  0.35990  Biso   1.000  H
  C92      1.0000 0.75310  0.81150  0.33280  Biso   1.000  C
  C93      1.0000 0.79790  0.88500  0.31830  Biso   1.000  C
  H67      1.0000 0.78630  0.91420  0.28210  Biso   1.000  H
  C94      1.0000 0.85950  0.91360  0.35850  Biso   1.000  C
  H68      1.0000 0.88830  0.96240  0.34800  Biso   1.000  H
  C95      1.0000 0.84150  0.80170  0.42310  Biso   1.000  C
  H69      1.0000 0.85750  0.77180  0.45800  Biso   1.000  H
  C96      1.0000 0.77970  0.76870  0.38590  Biso   1.000  C
  H70      1.0000 0.75520  0.71740  0.39600  Biso   1.000  H
  N19      1.0000 0.02410  0.81320  0.49230  Biso   1.000  N
  N20      1.0000 0.44670  0.51240  0.35489  Biso   1.000  N
  N21      1.0000 0.50760  0.54520  0.31595  Biso   1.000  N
  N22      1.0000 0.44010  0.64964  0.35774  Biso   1.000  N
  N23      1.0000 0.41700  0.73150  0.37570  Biso   1.000  N
  H71      1.0000 0.38840  0.75660  0.34510  Biso   1.000  H
  H72      1.0000 0.46620  0.74100  0.39120  Biso   1.000  H
  N24      1.0000 0.88010  0.87580  0.41108  Biso   1.000  N
  C97      1.0000 0.75750  0.03830  0.46300  Biso   1.000  C
  H73      1.0000 0.76280  0.00820  0.42650  Biso   1.000  H
  C98      1.0000 0.69180  0.09580  0.46790  Biso   1.000  C
  H74      1.0000 0.65490  0.10330  0.43500  Biso   1.000  H
  C99      1.0000 0.68140  0.14180  0.52180  Biso   1.000  C
  C100     1.0000 0.73810  0.12400  0.56980  Biso   1.000  C
  H75      1.0000 0.73270  0.15100  0.60770  Biso   1.000  H
  C101     1.0000 0.80170  0.06620  0.56050  Biso   1.000  C
  H76      1.0000 0.83880  0.05600  0.59280  Biso   1.000  H
  C102     1.0000 0.61640  0.20850  0.52780  Biso   1.000  C
  C103     1.0000 0.54600  0.21000  0.48990  Biso   1.000  C
  H77      1.0000 0.53870  0.16800  0.46040  Biso   1.000  H
  C104     1.0000 0.48610  0.27370  0.49540  Biso   1.000  C
  H78      1.0000 0.43870  0.27360  0.47010  Biso   1.000  H
  C105     1.0000 0.49700  0.33670  0.53810  Biso   1.000  C
  H79      1.0000 0.45670  0.37870  0.54190  Biso   1.000  H
  C106     1.0000 0.56730  0.33810  0.57527  Biso   1.000  C
  C107     1.0000 0.62610  0.27300  0.57090  Biso   1.000  C
  H80      1.0000 0.67240  0.27270  0.59710  Biso   1.000  H
  C108     1.0000 0.57650  0.40730  0.61997  Biso   1.000  C
  C109     1.0000 0.62810  0.50260  0.68227  Biso   1.000  C
  C110     1.0000 0.69040  0.55770  0.71239  Biso   1.000  C
  C111     1.0000 0.72120  0.54220  0.77200  Biso   1.000  C
  H81      1.0000 0.70270  0.49580  0.79430  Biso   1.000  H
  C112     1.0000 0.77930  0.59680  0.79700  Biso   1.000  C
  H82      1.0000 0.79850  0.58790  0.83700  Biso   1.000  H
  C113     1.0000 0.80960  0.66480  0.76360  Biso   1.000  C
  H83      1.0000 0.84970  0.70000  0.78110  Biso   1.000  H
  C114     1.0000 0.78080  0.68070  0.70421  Biso   1.000  C
  C115     1.0000 0.72020  0.62590  0.67960  Biso   1.000  C
  H84      1.0000 0.69960  0.63580  0.64010  Biso   1.000  H
  C116     1.0000 0.81150  0.75310  0.66720  Biso   1.000  C
  C117     1.0000 0.88500  0.79790  0.68170  Biso   1.000  C
  H85      1.0000 0.91420  0.78630  0.71790  Biso   1.000  H
  C118     1.0000 0.91360  0.85950  0.64150  Biso   1.000  C
  H86      1.0000 0.96240  0.88830  0.65200  Biso   1.000  H
  C119     1.0000 0.80170  0.84150  0.57690  Biso   1.000  C
  H87      1.0000 0.77180  0.85750  0.54200  Biso   1.000  H
  C120     1.0000 0.76870  0.77970  0.61410  Biso   1.000  C
  H88      1.0000 0.71740  0.75520  0.60400  Biso   1.000  H
  N25      1.0000 0.81320  0.02410  0.50770  Biso   1.000  N
  N26      1.0000 0.51240  0.44670  0.64511  Biso   1.000  N
  N27      1.0000 0.54520  0.50760  0.68405  Biso   1.000  N
  N28      1.0000 0.64964  0.44010  0.64226  Biso   1.000  N
  N29      1.0000 0.73150  0.41700  0.62430  Biso   1.000  N
  H89      1.0000 0.75660  0.38840  0.65490  Biso   1.000  H
  H90      1.0000 0.74100  0.46620  0.60880  Biso   1.000  H
  N30      1.0000 0.87580  0.88010  0.58892  Biso   1.000  N
  C121     1.0000 0.24250  0.96170  0.96300  Biso   1.000  C
  H91      1.0000 0.23720  0.99180  0.92650  Biso   1.000  H
  C122     1.0000 0.30820  0.90420  0.96790  Biso   1.000  C
  H92      1.0000 0.34510  0.89670  0.93500  Biso   1.000  H
  C123     1.0000 0.31860  0.85820  0.02180  Biso   1.000  C
  C124     1.0000 0.26190  0.87600  0.06980  Biso   1.000  C
  H93      1.0000 0.26730  0.84900  0.10770  Biso   1.000  H
  C125     1.0000 0.19830  0.93380  0.06050  Biso   1.000  C
  H94      1.0000 0.16120  0.94400  0.09280  Biso   1.000  H
  C126     1.0000 0.38360  0.79150  0.02780  Biso   1.000  C
  C127     1.0000 0.45400  0.79000  0.98990  Biso   1.000  C
  H95      1.0000 0.46130  0.83200  0.96040  Biso   1.000  H
  C128     1.0000 0.51390  0.72630  0.99540  Biso   1.000  C
  H96      1.0000 0.56130  0.72640  0.97010  Biso   1.000  H
  C129     1.0000 0.50300  0.66330  0.03810  Biso   1.000  C
  H97      1.0000 0.54330  0.62130  0.04190  Biso   1.000  H
  C130     1.0000 0.43270  0.66190  0.07527  Biso   1.000  C
  C131     1.0000 0.37390  0.72700  0.07090  Biso   1.000  C
  H98      1.0000 0.32760  0.72730  0.09710  Biso   1.000  H
  C132     1.0000 0.42350  0.59270  0.11997  Biso   1.000  C
  C133     1.0000 0.37190  0.49740  0.18227  Biso   1.000  C
  C134     1.0000 0.30960  0.44230  0.21239  Biso   1.000  C
  C135     1.0000 0.27880  0.45780  0.27200  Biso   1.000  C
  H99      1.0000 0.29730  0.50420  0.29430  Biso   1.000  H
  C136     1.0000 0.22070  0.40320  0.29700  Biso   1.000  C
  H100     1.0000 0.20150  0.41210  0.33700  Biso   1.000  H
  C137     1.0000 0.19040  0.33520  0.26360  Biso   1.000  C
  H101     1.0000 0.15030  0.30000  0.28110  Biso   1.000  H
  C138     1.0000 0.21920  0.31930  0.20421  Biso   1.000  C
  C139     1.0000 0.27980  0.37410  0.17960  Biso   1.000  C
  H102     1.0000 0.30040  0.36420  0.14010  Biso   1.000  H
  C140     1.0000 0.18850  0.24690  0.16720  Biso   1.000  C
  C141     1.0000 0.11500  0.20210  0.18170  Biso   1.000  C
  H103     1.0000 0.08580  0.21370  0.21790  Biso   1.000  H
  C142     1.0000 0.08640  0.14050  0.14150  Biso   1.000  C
  H104     1.0000 0.03760  0.11170  0.15200  Biso   1.000  H
  C143     1.0000 0.19830  0.15850  0.07690  Biso   1.000  C
  H105     1.0000 0.22820  0.14250  0.04200  Biso   1.000  H
  C144     1.0000 0.23130  0.22030  0.11410  Biso   1.000  C
  H106     1.0000 0.28260  0.24480  0.10400  Biso   1.000  H
  N31      1.0000 0.18680  0.97590  0.00770  Biso   1.000  N
  N32      1.0000 0.48760  0.55330  0.14511  Biso   1.000  N
  N33      1.0000 0.45480  0.49240  0.18405  Biso   1.000  N
  N34      1.0000 0.35036  0.55990  0.14226  Biso   1.000  N
  N35      1.0000 0.26850  0.58300  0.12430  Biso   1.000  N
  H107     1.0000 0.24340  0.61160  0.15490  Biso   1.000  H
  H108     1.0000 0.25900  0.53380  0.10880  Biso   1.000  H
  N36      1.0000 0.12420  0.11990  0.08892  Biso   1.000  N
  C145     1.0000 0.53830  0.74250  0.71300  Biso   1.000  C
  H109     1.0000 0.50820  0.73720  0.67650  Biso   1.000  H
  C146     1.0000 0.59580  0.80820  0.71790  Biso   1.000  C
  H110     1.0000 0.60330  0.84510  0.68500  Biso   1.000  H
  C147     1.0000 0.64180  0.81860  0.77180  Biso   1.000  C
  C148     1.0000 0.62400  0.76190  0.81980  Biso   1.000  C
  H111     1.0000 0.65100  0.76730  0.85770  Biso   1.000  H
  C149     1.0000 0.56620  0.69830  0.81050  Biso   1.000  C
  H112     1.0000 0.55600  0.66120  0.84280  Biso   1.000  H
  C150     1.0000 0.70850  0.88360  0.77780  Biso   1.000  C
  C151     1.0000 0.71000  0.95400  0.73990  Biso   1.000  C
  H113     1.0000 0.66800  0.96130  0.71040  Biso   1.000  H
  C152     1.0000 0.77370  0.01390  0.74540  Biso   1.000  C
  H114     1.0000 0.77360  0.06130  0.72010  Biso   1.000  H
  C153     1.0000 0.83670  0.00300  0.78810  Biso   1.000  C
  H115     1.0000 0.87870  0.04330  0.79190  Biso   1.000  H
  C154     1.0000 0.83810  0.93270  0.82527  Biso   1.000  C
  C155     1.0000 0.77300  0.87390  0.82090  Biso   1.000  C
  H116     1.0000 0.77270  0.82760  0.84710  Biso   1.000  H
  C156     1.0000 0.90730  0.92350  0.86997  Biso   1.000  C
  C157     1.0000 0.00260  0.87190  0.93227  Biso   1.000  C
  C158     1.0000 0.05770  0.80960  0.96239  Biso   1.000  C
  C159     1.0000 0.04220  0.77880  0.02200  Biso   1.000  C
  H117     1.0000 0.99580  0.79730  0.04430  Biso   1.000  H
  C160     1.0000 0.09680  0.72070  0.04700  Biso   1.000  C
  H118     1.0000 0.08790  0.70150  0.08700  Biso   1.000  H
  C161     1.0000 0.16480  0.69040  0.01360  Biso   1.000  C
  H119     1.0000 0.20000  0.65030  0.03110  Biso   1.000  H
  C162     1.0000 0.18070  0.71920  0.95421  Biso   1.000  C
  C163     1.0000 0.12590  0.77980  0.92960  Biso   1.000  C
  H120     1.0000 0.13580  0.80040  0.89010  Biso   1.000  H
  C164     1.0000 0.25310  0.68850  0.91720  Biso   1.000  C
  C165     1.0000 0.29790  0.61500  0.93170  Biso   1.000  C
  H121     1.0000 0.28630  0.58580  0.96790  Biso   1.000  H
  C166     1.0000 0.35950  0.58640  0.89150  Biso   1.000  C
  H122     1.0000 0.38830  0.53760  0.90200  Biso   1.000  H
  C167     1.0000 0.34150  0.69830  0.82690  Biso   1.000  C
  H123     1.0000 0.35750  0.72820  0.79200  Biso   1.000  H
  C168     1.0000 0.27970  0.73130  0.86410  Biso   1.000  C
  H124     1.0000 0.25520  0.78260  0.85400  Biso   1.000  H
  N37      1.0000 0.52410  0.68680  0.75770  Biso   1.000  N
  N38      1.0000 0.94670  0.98760  0.89511  Biso   1.000  N
  N39      1.0000 0.00760  0.95480  0.93405  Biso   1.000  N
  N40      1.0000 0.94010  0.85036  0.89226  Biso   1.000  N
  N41      1.0000 0.91700  0.76850  0.87430  Biso   1.000  N
  H125     1.0000 0.88840  0.74340  0.90490  Biso   1.000  H
  H126     1.0000 0.96620  0.75900  0.85880  Biso   1.000  H
  N42      1.0000 0.38010  0.62420  0.83892  Biso   1.000  N
  C169     1.0000 0.46170  0.25750  0.21300  Biso   1.000  C
  H127     1.0000 0.49180  0.26280  0.17650  Biso   1.000  H
  C170     1.0000 0.40420  0.19180  0.21790  Biso   1.000  C
  H128     1.0000 0.39670  0.15490  0.18500  Biso   1.000  H
  C171     1.0000 0.35820  0.18140  0.27180  Biso   1.000  C
  C172     1.0000 0.37600  0.23810  0.31980  Biso   1.000  C
  H129     1.0000 0.34900  0.23270  0.35770  Biso   1.000  H
  C173     1.0000 0.43380  0.30170  0.31050  Biso   1.000  C
  H130     1.0000 0.44400  0.33880  0.34280  Biso   1.000  H
  C174     1.0000 0.29150  0.11640  0.27780  Biso   1.000  C
  C175     1.0000 0.29000  0.04600  0.23990  Biso   1.000  C
  H131     1.0000 0.33200  0.03870  0.21040  Biso   1.000  H
  C176     1.0000 0.22630  0.98610  0.24540  Biso   1.000  C
  H132     1.0000 0.22640  0.93870  0.22010  Biso   1.000  H
  C177     1.0000 0.16330  0.99700  0.28810  Biso   1.000  C
  H133     1.0000 0.12130  0.95670  0.29190  Biso   1.000  H
  C178     1.0000 0.16190  0.06730  0.32527  Biso   1.000  C
  C179     1.0000 0.22700  0.12610  0.32090  Biso   1.000  C
  H134     1.0000 0.22730  0.17240  0.34710  Biso   1.000  H
  C180     1.0000 0.09270  0.07650  0.36997  Biso   1.000  C
  C181     1.0000 0.99740  0.12810  0.43227  Biso   1.000  C
  C182     1.0000 0.94230  0.19040  0.46239  Biso   1.000  C
  C183     1.0000 0.95780  0.22120  0.52200  Biso   1.000  C
  H135     1.0000 0.00420  0.20270  0.54430  Biso   1.000  H
  C184     1.0000 0.90320  0.27930  0.54700  Biso   1.000  C
  H136     1.0000 0.91210  0.29850  0.58700  Biso   1.000  H
  C185     1.0000 0.83520  0.30960  0.51360  Biso   1.000  C
  H137     1.0000 0.80000  0.34970  0.53110  Biso   1.000  H
  C186     1.0000 0.81930  0.28080  0.45421  Biso   1.000  C
  C187     1.0000 0.87410  0.22020  0.42960  Biso   1.000  C
  H138     1.0000 0.86420  0.19960  0.39010  Biso   1.000  H
  C188     1.0000 0.74690  0.31150  0.41720  Biso   1.000  C
  C189     1.0000 0.70210  0.38500  0.43170  Biso   1.000  C
  H139     1.0000 0.71370  0.41420  0.46790  Biso   1.000  H
  C190     1.0000 0.64050  0.41360  0.39150  Biso   1.000  C
  H140     1.0000 0.61170  0.46240  0.40200  Biso   1.000  H
  C191     1.0000 0.65850  0.30170  0.32690  Biso   1.000  C
  H141     1.0000 0.64250  0.27180  0.29200  Biso   1.000  H
  C192     1.0000 0.72030  0.26870  0.36410  Biso   1.000  C
  H142     1.0000 0.74480  0.21740  0.35400  Biso   1.000  H
  N43      1.0000 0.47590  0.31320  0.25770  Biso   1.000  N
  N44      1.0000 0.05330  0.01240  0.39511  Biso   1.000  N
  N45      1.0000 0.99240  0.04520  0.43405  Biso   1.000  N
  N46      1.0000 0.05990  0.14964  0.39226  Biso   1.000  N
  N47      1.0000 0.08300  0.23150  0.37430  Biso   1.000  N
  H143     1.0000 0.11160  0.25660  0.40490  Biso   1.000  H
  H144     1.0000 0.03380  0.24100  0.35880  Biso   1.000  H
  N48      1.0000 0.61990  0.37580  0.33892  Biso   1.000  N
  Cd1      1.0000 0.05877  0.05877  0.00000  Biso   1.000  Cd
  Cd2      1.0000 0.94123  0.94123  0.50000  Biso   1.000  Cd
  Cd3      1.0000 0.44123  0.55877  0.75000  Biso   1.000  Cd
  Cd4      1.0000 0.55877  0.44123  0.25000  Biso   1.000  Cd
