data_image0
_cell_length_a       15.1973
_cell_length_b       15.1973
_cell_length_c       22.1529
_cell_angle_alpha    90
_cell_angle_beta     90
_cell_angle_gamma    90

_symmetry_space_group_name_H-M    "P 1"
_symmetry_int_tables_number       1

loop_
  _symmetry_equiv_pos_as_xyz
  'x, y, z'

loop_
  _atom_site_label
  _atom_site_occupancy
  _atom_site_fract_x
  _atom_site_fract_y
  _atom_site_fract_z
  _atom_site_thermal_displace_type
  _atom_site_B_iso_or_equiv
  _atom_site_type_symbol
  Ni1      1.0000 0.96096  0.01341  0.05785  Biso   1.000  Ni
  N1       1.0000 0.88000  0.96580  0.28460  Biso   1.000  N
  C1       1.0000 0.83430  0.03250  0.30640  Biso   1.000  C
  H1       1.0000 0.81830  0.02880  0.34680  Biso   1.000  H
  N2       1.0000 0.80790  0.10600  0.27630  Biso   1.000  N
  C2       1.0000 0.83680  0.10700  0.21790  Biso   1.000  C
  C3       1.0000 0.88340  0.03730  0.19000  Biso   1.000  C
  C4       1.0000 0.90480  0.96560  0.22550  Biso   1.000  C
  N3       1.0000 0.95010  0.89630  0.20460  Biso   1.000  N
  H2       1.0000 0.96280  0.85340  0.22830  Biso   1.000  H
  H3       1.0000 0.96640  0.89480  0.16740  Biso   1.000  H
  N4       1.0000 0.90110  0.06390  0.13200  Biso   1.000  N
  C5       1.0000 0.86680  0.14300  0.12880  Biso   1.000  C
  H4       1.0000 0.86920  0.17640  0.09370  Biso   1.000  H
  N5       1.0000 0.82830  0.17290  0.17910  Biso   1.000  N
  O1       1.0000 0.92350  0.10980  0.99990  Biso   1.000  O
  O2       1.0000 0.98320  0.09820  0.91080  Biso   1.000  O
  C6       1.0000 0.93300  0.13340  0.94690  Biso   1.000  C
  C7       1.0000 0.87660  0.20730  0.92340  Biso   1.000  C
  H5       1.0000 0.91330  0.25050  0.90320  Biso   1.000  H
  H6       1.0000 0.84700  0.23610  0.95670  Biso   1.000  H
  C8       1.0000 0.80390  0.16890  0.87600  Biso   1.000  C
  H7       1.0000 0.82870  0.12520  0.84900  Biso   1.000  H
  H8       1.0000 0.77600  0.21520  0.85280  Biso   1.000  H
  Ni2      1.0000 0.46096  0.51341  0.55785  Biso   1.000  Ni
  N6       1.0000 0.38000  0.46580  0.78460  Biso   1.000  N
  C9       1.0000 0.33430  0.53250  0.80640  Biso   1.000  C
  H9       1.0000 0.31830  0.52880  0.84680  Biso   1.000  H
  N7       1.0000 0.30790  0.60600  0.77630  Biso   1.000  N
  C10      1.0000 0.33680  0.60700  0.71790  Biso   1.000  C
  C11      1.0000 0.38340  0.53730  0.69000  Biso   1.000  C
  C12      1.0000 0.40480  0.46560  0.72550  Biso   1.000  C
  N8       1.0000 0.45010  0.39630  0.70460  Biso   1.000  N
  H10      1.0000 0.46280  0.35340  0.72830  Biso   1.000  H
  H11      1.0000 0.46640  0.39480  0.66740  Biso   1.000  H
  N9       1.0000 0.40110  0.56390  0.63200  Biso   1.000  N
  C13      1.0000 0.36680  0.64300  0.62880  Biso   1.000  C
  H12      1.0000 0.36920  0.67640  0.59370  Biso   1.000  H
  N10      1.0000 0.32830  0.67290  0.67910  Biso   1.000  N
  O3       1.0000 0.42350  0.60980  0.49990  Biso   1.000  O
  O4       1.0000 0.48320  0.59820  0.41080  Biso   1.000  O
  C14      1.0000 0.43300  0.63340  0.44690  Biso   1.000  C
  C15      1.0000 0.37660  0.70730  0.42340  Biso   1.000  C
  H13      1.0000 0.41330  0.75050  0.40320  Biso   1.000  H
  H14      1.0000 0.34700  0.73610  0.45670  Biso   1.000  H
  C16      1.0000 0.30390  0.66890  0.37600  Biso   1.000  C
  H15      1.0000 0.32870  0.62520  0.34900  Biso   1.000  H
  H16      1.0000 0.27600  0.71520  0.35280  Biso   1.000  H
  Ni3      1.0000 0.53904  0.98659  0.55785  Biso   1.000  Ni
  N11      1.0000 0.62000  0.03420  0.78460  Biso   1.000  N
  C17      1.0000 0.66570  0.96750  0.80640  Biso   1.000  C
  H17      1.0000 0.68170  0.97120  0.84680  Biso   1.000  H
  N12      1.0000 0.69210  0.89400  0.77630  Biso   1.000  N
  C18      1.0000 0.66320  0.89300  0.71790  Biso   1.000  C
  C19      1.0000 0.61660  0.96270  0.69000  Biso   1.000  C
  C20      1.0000 0.59520  0.03440  0.72550  Biso   1.000  C
  N13      1.0000 0.54990  0.10370  0.70460  Biso   1.000  N
  H18      1.0000 0.53720  0.14660  0.72830  Biso   1.000  H
  H19      1.0000 0.53360  0.10520  0.66740  Biso   1.000  H
  N14      1.0000 0.59890  0.93610  0.63200  Biso   1.000  N
  C21      1.0000 0.63320  0.85700  0.62880  Biso   1.000  C
  H20      1.0000 0.63080  0.82360  0.59370  Biso   1.000  H
  N15      1.0000 0.67170  0.82710  0.67910  Biso   1.000  N
  O5       1.0000 0.57650  0.89020  0.49990  Biso   1.000  O
  O6       1.0000 0.51680  0.90180  0.41080  Biso   1.000  O
  C22      1.0000 0.56700  0.86660  0.44690  Biso   1.000  C
  C23      1.0000 0.62340  0.79270  0.42340  Biso   1.000  C
  H21      1.0000 0.58670  0.74950  0.40320  Biso   1.000  H
  H22      1.0000 0.65300  0.76390  0.45670  Biso   1.000  H
  C24      1.0000 0.69610  0.83110  0.37600  Biso   1.000  C
  H23      1.0000 0.67130  0.87480  0.34900  Biso   1.000  H
  H24      1.0000 0.72400  0.78480  0.35280  Biso   1.000  H
  Ni4      1.0000 0.03904  0.48659  0.05785  Biso   1.000  Ni
  N16      1.0000 0.12000  0.53420  0.28460  Biso   1.000  N
  C25      1.0000 0.16570  0.46750  0.30640  Biso   1.000  C
  H25      1.0000 0.18170  0.47120  0.34680  Biso   1.000  H
  N17      1.0000 0.19210  0.39400  0.27630  Biso   1.000  N
  C26      1.0000 0.16320  0.39300  0.21790  Biso   1.000  C
  C27      1.0000 0.11660  0.46270  0.19000  Biso   1.000  C
  C28      1.0000 0.09520  0.53440  0.22550  Biso   1.000  C
  N18      1.0000 0.04990  0.60370  0.20460  Biso   1.000  N
  H26      1.0000 0.03720  0.64660  0.22830  Biso   1.000  H
  H27      1.0000 0.03360  0.60520  0.16740  Biso   1.000  H
  N19      1.0000 0.09890  0.43610  0.13200  Biso   1.000  N
  C29      1.0000 0.13320  0.35700  0.12880  Biso   1.000  C
  H28      1.0000 0.13080  0.32360  0.09370  Biso   1.000  H
  N20      1.0000 0.17170  0.32710  0.17910  Biso   1.000  N
  O7       1.0000 0.07650  0.39020  0.99990  Biso   1.000  O
  O8       1.0000 0.01680  0.40180  0.91080  Biso   1.000  O
  C30      1.0000 0.06700  0.36660  0.94690  Biso   1.000  C
  C31      1.0000 0.12340  0.29270  0.92340  Biso   1.000  C
  H29      1.0000 0.08670  0.24950  0.90320  Biso   1.000  H
  H30      1.0000 0.15300  0.26390  0.95670  Biso   1.000  H
  C32      1.0000 0.19610  0.33110  0.87600  Biso   1.000  C
  H31      1.0000 0.17130  0.37480  0.84900  Biso   1.000  H
  H32      1.0000 0.22400  0.28480  0.85280  Biso   1.000  H
  Ni5      1.0000 0.73659  0.21096  0.30785  Biso   1.000  Ni
  N21      1.0000 0.78420  0.13000  0.53460  Biso   1.000  N
  C33      1.0000 0.71750  0.08430  0.55640  Biso   1.000  C
  H33      1.0000 0.72120  0.06830  0.59680  Biso   1.000  H
  N22      1.0000 0.64400  0.05790  0.52630  Biso   1.000  N
  C34      1.0000 0.64300  0.08680  0.46790  Biso   1.000  C
  C35      1.0000 0.71270  0.13340  0.44000  Biso   1.000  C
  C36      1.0000 0.78440  0.15480  0.47550  Biso   1.000  C
  N23      1.0000 0.85370  0.20010  0.45460  Biso   1.000  N
  H34      1.0000 0.89660  0.21280  0.47830  Biso   1.000  H
  H35      1.0000 0.85520  0.21640  0.41740  Biso   1.000  H
  N24      1.0000 0.68610  0.15110  0.38200  Biso   1.000  N
  C37      1.0000 0.60700  0.11680  0.37880  Biso   1.000  C
  H36      1.0000 0.57360  0.11920  0.34370  Biso   1.000  H
  N25      1.0000 0.57710  0.07830  0.42910  Biso   1.000  N
  O9       1.0000 0.64020  0.17350  0.24990  Biso   1.000  O
  O10      1.0000 0.65180  0.23320  0.16080  Biso   1.000  O
  C38      1.0000 0.61660  0.18300  0.19690  Biso   1.000  C
  C39      1.0000 0.54270  0.12660  0.17340  Biso   1.000  C
  H37      1.0000 0.49950  0.16330  0.15320  Biso   1.000  H
  H38      1.0000 0.51390  0.09700  0.20670  Biso   1.000  H
  C40      1.0000 0.58110  0.05390  0.12600  Biso   1.000  C
  H39      1.0000 0.62480  0.07870  0.09900  Biso   1.000  H
  H40      1.0000 0.53480  0.02600  0.10280  Biso   1.000  H
  Ni6      1.0000 0.23659  0.71096  0.80785  Biso   1.000  Ni
  N26      1.0000 0.28420  0.63000  0.03460  Biso   1.000  N
  C41      1.0000 0.21750  0.58430  0.05640  Biso   1.000  C
  H41      1.0000 0.22120  0.56830  0.09680  Biso   1.000  H
  N27      1.0000 0.14400  0.55790  0.02630  Biso   1.000  N
  C42      1.0000 0.14300  0.58680  0.96790  Biso   1.000  C
  C43      1.0000 0.21270  0.63340  0.94000  Biso   1.000  C
  C44      1.0000 0.28440  0.65480  0.97550  Biso   1.000  C
  N28      1.0000 0.35370  0.70010  0.95460  Biso   1.000  N
  H42      1.0000 0.39660  0.71280  0.97830  Biso   1.000  H
  H43      1.0000 0.35520  0.71640  0.91740  Biso   1.000  H
  N29      1.0000 0.18610  0.65110  0.88200  Biso   1.000  N
  C45      1.0000 0.10700  0.61680  0.87880  Biso   1.000  C
  H44      1.0000 0.07360  0.61920  0.84370  Biso   1.000  H
  N30      1.0000 0.07710  0.57830  0.92910  Biso   1.000  N
  O11      1.0000 0.14020  0.67350  0.74990  Biso   1.000  O
  O12      1.0000 0.15180  0.73320  0.66080  Biso   1.000  O
  C46      1.0000 0.11660  0.68300  0.69690  Biso   1.000  C
  C47      1.0000 0.04270  0.62660  0.67340  Biso   1.000  C
  H45      1.0000 0.99950  0.66330  0.65320  Biso   1.000  H
  H46      1.0000 0.01390  0.59700  0.70670  Biso   1.000  H
  C48      1.0000 0.08110  0.55390  0.62600  Biso   1.000  C
  H47      1.0000 0.12480  0.57870  0.59900  Biso   1.000  H
  H48      1.0000 0.03480  0.52600  0.60280  Biso   1.000  H
  Ni7      1.0000 0.76341  0.78904  0.80785  Biso   1.000  Ni
  N31      1.0000 0.71580  0.87000  0.03460  Biso   1.000  N
  C49      1.0000 0.78250  0.91570  0.05640  Biso   1.000  C
  H49      1.0000 0.77880  0.93170  0.09680  Biso   1.000  H
  N32      1.0000 0.85600  0.94210  0.02630  Biso   1.000  N
  C50      1.0000 0.85700  0.91320  0.96790  Biso   1.000  C
  C51      1.0000 0.78730  0.86660  0.94000  Biso   1.000  C
  C52      1.0000 0.71560  0.84520  0.97550  Biso   1.000  C
  N33      1.0000 0.64630  0.79990  0.95460  Biso   1.000  N
  H50      1.0000 0.60340  0.78720  0.97830  Biso   1.000  H
  H51      1.0000 0.64480  0.78360  0.91740  Biso   1.000  H
  N34      1.0000 0.81390  0.84890  0.88200  Biso   1.000  N
  C53      1.0000 0.89300  0.88320  0.87880  Biso   1.000  C
  H52      1.0000 0.92640  0.88080  0.84370  Biso   1.000  H
  N35      1.0000 0.92290  0.92170  0.92910  Biso   1.000  N
  O13      1.0000 0.85980  0.82650  0.74990  Biso   1.000  O
  O14      1.0000 0.84820  0.76680  0.66080  Biso   1.000  O
  C54      1.0000 0.88340  0.81700  0.69690  Biso   1.000  C
  C55      1.0000 0.95730  0.87340  0.67340  Biso   1.000  C
  H53      1.0000 0.00050  0.83670  0.65320  Biso   1.000  H
  H54      1.0000 0.98610  0.90300  0.70670  Biso   1.000  H
  C56      1.0000 0.91890  0.94610  0.62600  Biso   1.000  C
  H55      1.0000 0.87520  0.92130  0.59900  Biso   1.000  H
  H56      1.0000 0.96520  0.97400  0.60280  Biso   1.000  H
  Ni8      1.0000 0.26341  0.28904  0.30785  Biso   1.000  Ni
  N36      1.0000 0.21580  0.37000  0.53460  Biso   1.000  N
  C57      1.0000 0.28250  0.41570  0.55640  Biso   1.000  C
  H57      1.0000 0.27880  0.43170  0.59680  Biso   1.000  H
  N37      1.0000 0.35600  0.44210  0.52630  Biso   1.000  N
  C58      1.0000 0.35700  0.41320  0.46790  Biso   1.000  C
  C59      1.0000 0.28730  0.36660  0.44000  Biso   1.000  C
  C60      1.0000 0.21560  0.34520  0.47550  Biso   1.000  C
  N38      1.0000 0.14630  0.29990  0.45460  Biso   1.000  N
  H58      1.0000 0.10340  0.28720  0.47830  Biso   1.000  H
  H59      1.0000 0.14480  0.28360  0.41740  Biso   1.000  H
  N39      1.0000 0.31390  0.34890  0.38200  Biso   1.000  N
  C61      1.0000 0.39300  0.38320  0.37880  Biso   1.000  C
  H60      1.0000 0.42640  0.38080  0.34370  Biso   1.000  H
  N40      1.0000 0.42290  0.42170  0.42910  Biso   1.000  N
  O15      1.0000 0.35980  0.32650  0.24990  Biso   1.000  O
  O16      1.0000 0.34820  0.26680  0.16080  Biso   1.000  O
  C62      1.0000 0.38340  0.31700  0.19690  Biso   1.000  C
  C63      1.0000 0.45730  0.37340  0.17340  Biso   1.000  C
  H61      1.0000 0.50050  0.33670  0.15320  Biso   1.000  H
  H62      1.0000 0.48610  0.40300  0.20670  Biso   1.000  H
  C64      1.0000 0.41890  0.44610  0.12600  Biso   1.000  C
  H63      1.0000 0.37520  0.42130  0.09900  Biso   1.000  H
  H64      1.0000 0.46520  0.47400  0.10280  Biso   1.000  H
  Ni9      1.0000 0.03904  0.98659  0.94215  Biso   1.000  Ni
  N41      1.0000 0.12000  0.03420  0.71540  Biso   1.000  N
  C65      1.0000 0.16570  0.96750  0.69360  Biso   1.000  C
  H65      1.0000 0.18170  0.97120  0.65320  Biso   1.000  H
  N42      1.0000 0.19210  0.89400  0.72370  Biso   1.000  N
  C66      1.0000 0.16320  0.89300  0.78210  Biso   1.000  C
  C67      1.0000 0.11660  0.96270  0.81000  Biso   1.000  C
  C68      1.0000 0.09520  0.03440  0.77450  Biso   1.000  C
  N43      1.0000 0.04990  0.10370  0.79540  Biso   1.000  N
  H66      1.0000 0.03720  0.14660  0.77170  Biso   1.000  H
  H67      1.0000 0.03360  0.10520  0.83260  Biso   1.000  H
  N44      1.0000 0.09890  0.93610  0.86800  Biso   1.000  N
  C69      1.0000 0.13320  0.85700  0.87120  Biso   1.000  C
  H68      1.0000 0.13080  0.82360  0.90630  Biso   1.000  H
  N45      1.0000 0.17170  0.82710  0.82090  Biso   1.000  N
  O17      1.0000 0.07650  0.89020  0.00010  Biso   1.000  O
  O18      1.0000 0.01680  0.90180  0.08920  Biso   1.000  O
  C70      1.0000 0.06700  0.86660  0.05310  Biso   1.000  C
  C71      1.0000 0.12340  0.79270  0.07660  Biso   1.000  C
  H69      1.0000 0.08670  0.74950  0.09680  Biso   1.000  H
  H70      1.0000 0.15300  0.76390  0.04330  Biso   1.000  H
  C72      1.0000 0.19610  0.83110  0.12400  Biso   1.000  C
  H71      1.0000 0.17130  0.87480  0.15100  Biso   1.000  H
  H72      1.0000 0.22400  0.78480  0.14720  Biso   1.000  H
  Ni10     1.0000 0.53904  0.48659  0.44215  Biso   1.000  Ni
  N46      1.0000 0.62000  0.53420  0.21540  Biso   1.000  N
  C73      1.0000 0.66570  0.46750  0.19360  Biso   1.000  C
  H73      1.0000 0.68170  0.47120  0.15320  Biso   1.000  H
  N47      1.0000 0.69210  0.39400  0.22370  Biso   1.000  N
  C74      1.0000 0.66320  0.39300  0.28210  Biso   1.000  C
  C75      1.0000 0.61660  0.46270  0.31000  Biso   1.000  C
  C76      1.0000 0.59520  0.53440  0.27450  Biso   1.000  C
  N48      1.0000 0.54990  0.60370  0.29540  Biso   1.000  N
  H74      1.0000 0.53720  0.64660  0.27170  Biso   1.000  H
  H75      1.0000 0.53360  0.60520  0.33260  Biso   1.000  H
  N49      1.0000 0.59890  0.43610  0.36800  Biso   1.000  N
  C77      1.0000 0.63320  0.35700  0.37120  Biso   1.000  C
  H76      1.0000 0.63080  0.32360  0.40630  Biso   1.000  H
  N50      1.0000 0.67170  0.32710  0.32090  Biso   1.000  N
  O19      1.0000 0.57650  0.39020  0.50010  Biso   1.000  O
  O20      1.0000 0.51680  0.40180  0.58920  Biso   1.000  O
  C78      1.0000 0.56700  0.36660  0.55310  Biso   1.000  C
  C79      1.0000 0.62340  0.29270  0.57660  Biso   1.000  C
  H77      1.0000 0.58670  0.24950  0.59680  Biso   1.000  H
  H78      1.0000 0.65300  0.26390  0.54330  Biso   1.000  H
  C80      1.0000 0.69610  0.33110  0.62400  Biso   1.000  C
  H79      1.0000 0.67130  0.37480  0.65100  Biso   1.000  H
  H80      1.0000 0.72400  0.28480  0.64720  Biso   1.000  H
  Ni11     1.0000 0.46096  0.01341  0.44215  Biso   1.000  Ni
  N51      1.0000 0.38000  0.96580  0.21540  Biso   1.000  N
  C81      1.0000 0.33430  0.03250  0.19360  Biso   1.000  C
  H81      1.0000 0.31830  0.02880  0.15320  Biso   1.000  H
  N52      1.0000 0.30790  0.10600  0.22370  Biso   1.000  N
  C82      1.0000 0.33680  0.10700  0.28210  Biso   1.000  C
  C83      1.0000 0.38340  0.03730  0.31000  Biso   1.000  C
  C84      1.0000 0.40480  0.96560  0.27450  Biso   1.000  C
  N53      1.0000 0.45010  0.89630  0.29540  Biso   1.000  N
  H82      1.0000 0.46280  0.85340  0.27170  Biso   1.000  H
  H83      1.0000 0.46640  0.89480  0.33260  Biso   1.000  H
  N54      1.0000 0.40110  0.06390  0.36800  Biso   1.000  N
  C85      1.0000 0.36680  0.14300  0.37120  Biso   1.000  C
  H84      1.0000 0.36920  0.17640  0.40630  Biso   1.000  H
  N55      1.0000 0.32830  0.17290  0.32090  Biso   1.000  N
  O21      1.0000 0.42350  0.10980  0.50010  Biso   1.000  O
  O22      1.0000 0.48320  0.09820  0.58920  Biso   1.000  O
  C86      1.0000 0.43300  0.13340  0.55310  Biso   1.000  C
  C87      1.0000 0.37660  0.20730  0.57660  Biso   1.000  C
  H85      1.0000 0.41330  0.25050  0.59680  Biso   1.000  H
  H86      1.0000 0.34700  0.23610  0.54330  Biso   1.000  H
  C88      1.0000 0.30390  0.16890  0.62400  Biso   1.000  C
  H87      1.0000 0.32870  0.12520  0.65100  Biso   1.000  H
  H88      1.0000 0.27600  0.21520  0.64720  Biso   1.000  H
  Ni12     1.0000 0.96096  0.51341  0.94215  Biso   1.000  Ni
  N56      1.0000 0.88000  0.46580  0.71540  Biso   1.000  N
  C89      1.0000 0.83430  0.53250  0.69360  Biso   1.000  C
  H89      1.0000 0.81830  0.52880  0.65320  Biso   1.000  H
  N57      1.0000 0.80790  0.60600  0.72370  Biso   1.000  N
  C90      1.0000 0.83680  0.60700  0.78210  Biso   1.000  C
  C91      1.0000 0.88340  0.53730  0.81000  Biso   1.000  C
  C92      1.0000 0.90480  0.46560  0.77450  Biso   1.000  C
  N58      1.0000 0.95010  0.39630  0.79540  Biso   1.000  N
  H90      1.0000 0.96280  0.35340  0.77170  Biso   1.000  H
  H91      1.0000 0.96640  0.39480  0.83260  Biso   1.000  H
  N59      1.0000 0.90110  0.56390  0.86800  Biso   1.000  N
  C93      1.0000 0.86680  0.64300  0.87120  Biso   1.000  C
  H92      1.0000 0.86920  0.67640  0.90630  Biso   1.000  H
  N60      1.0000 0.82830  0.67290  0.82090  Biso   1.000  N
  O23      1.0000 0.92350  0.60980  0.00010  Biso   1.000  O
  O24      1.0000 0.98320  0.59820  0.08920  Biso   1.000  O
  C94      1.0000 0.93300  0.63340  0.05310  Biso   1.000  C
  C95      1.0000 0.87660  0.70730  0.07660  Biso   1.000  C
  H93      1.0000 0.91330  0.75050  0.09680  Biso   1.000  H
  H94      1.0000 0.84700  0.73610  0.04330  Biso   1.000  H
  C96      1.0000 0.80390  0.66890  0.12400  Biso   1.000  C
  H95      1.0000 0.82870  0.62520  0.15100  Biso   1.000  H
  H96      1.0000 0.77600  0.71520  0.14720  Biso   1.000  H
  Ni13     1.0000 0.26341  0.78904  0.69215  Biso   1.000  Ni
  N61      1.0000 0.21580  0.87000  0.46540  Biso   1.000  N
  C97      1.0000 0.28250  0.91570  0.44360  Biso   1.000  C
  H97      1.0000 0.27880  0.93170  0.40320  Biso   1.000  H
  N62      1.0000 0.35600  0.94210  0.47370  Biso   1.000  N
  C98      1.0000 0.35700  0.91320  0.53210  Biso   1.000  C
  C99      1.0000 0.28730  0.86660  0.56000  Biso   1.000  C
  C100     1.0000 0.21560  0.84520  0.52450  Biso   1.000  C
  N63      1.0000 0.14630  0.79990  0.54540  Biso   1.000  N
  H98      1.0000 0.10340  0.78720  0.52170  Biso   1.000  H
  H99      1.0000 0.14480  0.78360  0.58260  Biso   1.000  H
  N64      1.0000 0.31390  0.84890  0.61800  Biso   1.000  N
  C101     1.0000 0.39300  0.88320  0.62120  Biso   1.000  C
  H100     1.0000 0.42640  0.88080  0.65630  Biso   1.000  H
  N65      1.0000 0.42290  0.92170  0.57090  Biso   1.000  N
  O25      1.0000 0.35980  0.82650  0.75010  Biso   1.000  O
  O26      1.0000 0.34820  0.76680  0.83920  Biso   1.000  O
  C102     1.0000 0.38340  0.81700  0.80310  Biso   1.000  C
  C103     1.0000 0.45730  0.87340  0.82660  Biso   1.000  C
  H101     1.0000 0.50050  0.83670  0.84680  Biso   1.000  H
  H102     1.0000 0.48610  0.90300  0.79330  Biso   1.000  H
  C104     1.0000 0.41890  0.94610  0.87400  Biso   1.000  C
  H103     1.0000 0.37520  0.92130  0.90100  Biso   1.000  H
  H104     1.0000 0.46520  0.97400  0.89720  Biso   1.000  H
  Ni14     1.0000 0.76341  0.28904  0.19215  Biso   1.000  Ni
  N66      1.0000 0.71580  0.37000  0.96540  Biso   1.000  N
  C105     1.0000 0.78250  0.41570  0.94360  Biso   1.000  C
  H105     1.0000 0.77880  0.43170  0.90320  Biso   1.000  H
  N67      1.0000 0.85600  0.44210  0.97370  Biso   1.000  N
  C106     1.0000 0.85700  0.41320  0.03210  Biso   1.000  C
  C107     1.0000 0.78730  0.36660  0.06000  Biso   1.000  C
  C108     1.0000 0.71560  0.34520  0.02450  Biso   1.000  C
  N68      1.0000 0.64630  0.29990  0.04540  Biso   1.000  N
  H106     1.0000 0.60340  0.28720  0.02170  Biso   1.000  H
  H107     1.0000 0.64480  0.28360  0.08260  Biso   1.000  H
  N69      1.0000 0.81390  0.34890  0.11800  Biso   1.000  N
  C109     1.0000 0.89300  0.38320  0.12120  Biso   1.000  C
  H108     1.0000 0.92640  0.38080  0.15630  Biso   1.000  H
  N70      1.0000 0.92290  0.42170  0.07090  Biso   1.000  N
  O27      1.0000 0.85980  0.32650  0.25010  Biso   1.000  O
  O28      1.0000 0.84820  0.26680  0.33920  Biso   1.000  O
  C110     1.0000 0.88340  0.31700  0.30310  Biso   1.000  C
  C111     1.0000 0.95730  0.37340  0.32660  Biso   1.000  C
  H109     1.0000 0.00050  0.33670  0.34680  Biso   1.000  H
  H110     1.0000 0.98610  0.40300  0.29330  Biso   1.000  H
  C112     1.0000 0.91890  0.44610  0.37400  Biso   1.000  C
  H111     1.0000 0.87520  0.42130  0.40100  Biso   1.000  H
  H112     1.0000 0.96520  0.47400  0.39720  Biso   1.000  H
  Ni15     1.0000 0.23659  0.21096  0.19215  Biso   1.000  Ni
  N71      1.0000 0.28420  0.13000  0.96540  Biso   1.000  N
  C113     1.0000 0.21750  0.08430  0.94360  Biso   1.000  C
  H113     1.0000 0.22120  0.06830  0.90320  Biso   1.000  H
  N72      1.0000 0.14400  0.05790  0.97370  Biso   1.000  N
  C114     1.0000 0.14300  0.08680  0.03210  Biso   1.000  C
  C115     1.0000 0.21270  0.13340  0.06000  Biso   1.000  C
  C116     1.0000 0.28440  0.15480  0.02450  Biso   1.000  C
  N73      1.0000 0.35370  0.20010  0.04540  Biso   1.000  N
  H114     1.0000 0.39660  0.21280  0.02170  Biso   1.000  H
  H115     1.0000 0.35520  0.21640  0.08260  Biso   1.000  H
  N74      1.0000 0.18610  0.15110  0.11800  Biso   1.000  N
  C117     1.0000 0.10700  0.11680  0.12120  Biso   1.000  C
  H116     1.0000 0.07360  0.11920  0.15630  Biso   1.000  H
  N75      1.0000 0.07710  0.07830  0.07090  Biso   1.000  N
  O29      1.0000 0.14020  0.17350  0.25010  Biso   1.000  O
  O30      1.0000 0.15180  0.23320  0.33920  Biso   1.000  O
  C118     1.0000 0.11660  0.18300  0.30310  Biso   1.000  C
  C119     1.0000 0.04270  0.12660  0.32660  Biso   1.000  C
  H117     1.0000 0.99950  0.16330  0.34680  Biso   1.000  H
  H118     1.0000 0.01390  0.09700  0.29330  Biso   1.000  H
  C120     1.0000 0.08110  0.05390  0.37400  Biso   1.000  C
  H119     1.0000 0.12480  0.07870  0.40100  Biso   1.000  H
  H120     1.0000 0.03480  0.02600  0.39720  Biso   1.000  H
  Ni16     1.0000 0.73659  0.71096  0.69215  Biso   1.000  Ni
  N76      1.0000 0.78420  0.63000  0.46540  Biso   1.000  N
  C121     1.0000 0.71750  0.58430  0.44360  Biso   1.000  C
  H121     1.0000 0.72120  0.56830  0.40320  Biso   1.000  H
  N77      1.0000 0.64400  0.55790  0.47370  Biso   1.000  N
  C122     1.0000 0.64300  0.58680  0.53210  Biso   1.000  C
  C123     1.0000 0.71270  0.63340  0.56000  Biso   1.000  C
  C124     1.0000 0.78440  0.65480  0.52450  Biso   1.000  C
  N78      1.0000 0.85370  0.70010  0.54540  Biso   1.000  N
  H122     1.0000 0.89660  0.71280  0.52170  Biso   1.000  H
  H123     1.0000 0.85520  0.71640  0.58260  Biso   1.000  H
  N79      1.0000 0.68610  0.65110  0.61800  Biso   1.000  N
  C125     1.0000 0.60700  0.61680  0.62120  Biso   1.000  C
  H124     1.0000 0.57360  0.61920  0.65630  Biso   1.000  H
  N80      1.0000 0.57710  0.57830  0.57090  Biso   1.000  N
  O31      1.0000 0.64020  0.67350  0.75010  Biso   1.000  O
  O32      1.0000 0.65180  0.73320  0.83920  Biso   1.000  O
  C126     1.0000 0.61660  0.68300  0.80310  Biso   1.000  C
  C127     1.0000 0.54270  0.62660  0.82660  Biso   1.000  C
  H125     1.0000 0.49950  0.66330  0.84680  Biso   1.000  H
  H126     1.0000 0.51390  0.59700  0.79330  Biso   1.000  H
  C128     1.0000 0.58110  0.55390  0.87400  Biso   1.000  C
  H127     1.0000 0.62480  0.57870  0.90100  Biso   1.000  H
  H128     1.0000 0.53480  0.52600  0.89720  Biso   1.000  H
