data_image0
_cell_length_a       19.764
_cell_length_b       19.948
_cell_length_c       12.039
_cell_angle_alpha    90
_cell_angle_beta     90
_cell_angle_gamma    90

_symmetry_space_group_name_H-M    "P 1"
_symmetry_int_tables_number       1

loop_
  _symmetry_equiv_pos_as_xyz
  'x, y, z'

loop_
  _atom_site_label
  _atom_site_occupancy
  _atom_site_fract_x
  _atom_site_fract_y
  _atom_site_fract_z
  _atom_site_thermal_displace_type
  _atom_site_B_iso_or_equiv
  _atom_site_type_symbol
  Zn1      1.0000 0.25821  0.99203  0.03076  Biso   1.000  Zn
  K1       1.0000 0.19622  0.94407  0.28540  Biso   1.000  K
  O1       1.0000 0.28590  0.91650  0.12670  Biso   1.000  O
  O2       1.0000 0.12480  0.94260  0.09700  Biso   1.000  O
  O3       1.0000 0.31870  0.85990  0.97770  Biso   1.000  O
  O4       1.0000 0.29490  0.61260  0.98750  Biso   1.000  O
  O5       1.0000 0.17780  0.96240  0.93910  Biso   1.000  O
  O6       1.0000 0.26790  0.56200  0.14470  Biso   1.000  O
  C1       1.0000 0.30500  0.74160  0.32370  Biso   1.000  C
  H1       1.0000 0.30930  0.74280  0.40060  Biso   1.000  H
  C2       1.0000 0.30130  0.73810  0.09250  Biso   1.000  C
  H2       1.0000 0.30170  0.73670  0.01530  Biso   1.000  H
  C3       1.0000 0.29810  0.67850  0.15220  Biso   1.000  C
  C4       1.0000 0.30390  0.79890  0.14620  Biso   1.000  C
  C5       1.0000 0.30440  0.80190  0.26200  Biso   1.000  C
  H3       1.0000 0.30440  0.84310  0.29810  Biso   1.000  H
  C6       1.0000 0.06060  0.93840  0.81450  Biso   1.000  C
  H4       1.0000 0.10140  0.93780  0.77590  Biso   1.000  H
  C7       1.0000 0.06040  0.94250  0.92880  Biso   1.000  C
  C8       1.0000 0.28640  0.61380  0.09030  Biso   1.000  C
  C9       1.0000 0.30150  0.86400  0.07740  Biso   1.000  C
  C10      1.0000 0.12480  0.94630  0.99580  Biso   1.000  C
  C11      1.0000 0.29910  0.67970  0.26810  Biso   1.000  C
  H5       1.0000 0.29590  0.64000  0.30830  Biso   1.000  H
  O7       1.0000 0.32300  0.01720  0.90960  Biso   1.000  O
  O8       1.0000 0.37500  0.04670  0.06110  Biso   1.000  O
  C12      1.0000 0.37530  0.03740  0.96240  Biso   1.000  C
  C13      1.0000 0.43800  0.04740  0.89160  Biso   1.000  C
  C14      1.0000 0.43950  0.05250  0.77670  Biso   1.000  C
  H6       1.0000 0.39890  0.05360  0.73770  Biso   1.000  H
  K2       1.0000 0.35800  0.90066  0.77280  Biso   1.000  K
  Zn2      1.0000 0.75821  0.49203  0.03076  Biso   1.000  Zn
  K3       1.0000 0.69622  0.44407  0.28540  Biso   1.000  K
  O9       1.0000 0.78590  0.41650  0.12670  Biso   1.000  O
  O10      1.0000 0.62480  0.44260  0.09700  Biso   1.000  O
  O11      1.0000 0.81870  0.35990  0.97770  Biso   1.000  O
  O12      1.0000 0.79490  0.11260  0.98750  Biso   1.000  O
  O13      1.0000 0.67780  0.46240  0.93910  Biso   1.000  O
  O14      1.0000 0.76790  0.06200  0.14470  Biso   1.000  O
  C15      1.0000 0.80500  0.24160  0.32370  Biso   1.000  C
  H7       1.0000 0.80930  0.24280  0.40060  Biso   1.000  H
  C16      1.0000 0.80130  0.23810  0.09250  Biso   1.000  C
  H8       1.0000 0.80170  0.23670  0.01530  Biso   1.000  H
  C17      1.0000 0.79810  0.17850  0.15220  Biso   1.000  C
  C18      1.0000 0.80390  0.29890  0.14620  Biso   1.000  C
  C19      1.0000 0.80440  0.30190  0.26200  Biso   1.000  C
  H9       1.0000 0.80440  0.34310  0.29810  Biso   1.000  H
  C20      1.0000 0.56060  0.43840  0.81450  Biso   1.000  C
  H10      1.0000 0.60140  0.43780  0.77590  Biso   1.000  H
  C21      1.0000 0.56040  0.44250  0.92880  Biso   1.000  C
  C22      1.0000 0.78640  0.11380  0.09030  Biso   1.000  C
  C23      1.0000 0.80150  0.36400  0.07740  Biso   1.000  C
  C24      1.0000 0.62480  0.44630  0.99580  Biso   1.000  C
  C25      1.0000 0.79910  0.17970  0.26810  Biso   1.000  C
  H11      1.0000 0.79590  0.14000  0.30830  Biso   1.000  H
  O15      1.0000 0.82300  0.51720  0.90960  Biso   1.000  O
  O16      1.0000 0.87500  0.54670  0.06110  Biso   1.000  O
  C26      1.0000 0.87530  0.53740  0.96240  Biso   1.000  C
  C27      1.0000 0.93800  0.54740  0.89160  Biso   1.000  C
  C28      1.0000 0.93950  0.55250  0.77670  Biso   1.000  C
  H12      1.0000 0.89890  0.55360  0.73770  Biso   1.000  H
  K4       1.0000 0.85800  0.40066  0.77280  Biso   1.000  K
  Zn3      1.0000 0.74179  0.00797  0.53076  Biso   1.000  Zn
  K5       1.0000 0.80378  0.05593  0.78540  Biso   1.000  K
  O17      1.0000 0.71410  0.08350  0.62670  Biso   1.000  O
  O18      1.0000 0.87520  0.05740  0.59700  Biso   1.000  O
  O19      1.0000 0.68130  0.14010  0.47770  Biso   1.000  O
  O20      1.0000 0.70510  0.38740  0.48750  Biso   1.000  O
  O21      1.0000 0.82220  0.03760  0.43910  Biso   1.000  O
  O22      1.0000 0.73210  0.43800  0.64470  Biso   1.000  O
  C29      1.0000 0.69500  0.25840  0.82370  Biso   1.000  C
  H13      1.0000 0.69070  0.25720  0.90060  Biso   1.000  H
  C30      1.0000 0.69870  0.26190  0.59250  Biso   1.000  C
  H14      1.0000 0.69830  0.26330  0.51530  Biso   1.000  H
  C31      1.0000 0.70190  0.32150  0.65220  Biso   1.000  C
  C32      1.0000 0.69610  0.20110  0.64620  Biso   1.000  C
  C33      1.0000 0.69560  0.19810  0.76200  Biso   1.000  C
  H15      1.0000 0.69560  0.15690  0.79810  Biso   1.000  H
  C34      1.0000 0.93940  0.06160  0.31450  Biso   1.000  C
  H16      1.0000 0.89860  0.06220  0.27590  Biso   1.000  H
  C35      1.0000 0.93960  0.05750  0.42880  Biso   1.000  C
  C36      1.0000 0.71360  0.38620  0.59030  Biso   1.000  C
  C37      1.0000 0.69850  0.13600  0.57740  Biso   1.000  C
  C38      1.0000 0.87520  0.05370  0.49580  Biso   1.000  C
  C39      1.0000 0.70090  0.32030  0.76810  Biso   1.000  C
  H17      1.0000 0.70410  0.36000  0.80830  Biso   1.000  H
  O23      1.0000 0.67700  0.98280  0.40960  Biso   1.000  O
  O24      1.0000 0.62500  0.95330  0.56110  Biso   1.000  O
  C40      1.0000 0.62470  0.96260  0.46240  Biso   1.000  C
  C41      1.0000 0.56200  0.95260  0.39160  Biso   1.000  C
  C42      1.0000 0.56050  0.94750  0.27670  Biso   1.000  C
  H18      1.0000 0.60110  0.94640  0.23770  Biso   1.000  H
  K6       1.0000 0.64200  0.09934  0.27280  Biso   1.000  K
  Zn4      1.0000 0.24179  0.50797  0.53076  Biso   1.000  Zn
  K7       1.0000 0.30378  0.55593  0.78540  Biso   1.000  K
  O25      1.0000 0.21410  0.58350  0.62670  Biso   1.000  O
  O26      1.0000 0.37520  0.55740  0.59700  Biso   1.000  O
  O27      1.0000 0.18130  0.64010  0.47770  Biso   1.000  O
  O28      1.0000 0.20510  0.88740  0.48750  Biso   1.000  O
  O29      1.0000 0.32220  0.53760  0.43910  Biso   1.000  O
  O30      1.0000 0.23210  0.93800  0.64470  Biso   1.000  O
  C43      1.0000 0.19500  0.75840  0.82370  Biso   1.000  C
  H19      1.0000 0.19070  0.75720  0.90060  Biso   1.000  H
  C44      1.0000 0.19870  0.76190  0.59250  Biso   1.000  C
  H20      1.0000 0.19830  0.76330  0.51530  Biso   1.000  H
  C45      1.0000 0.20190  0.82150  0.65220  Biso   1.000  C
  C46      1.0000 0.19610  0.70110  0.64620  Biso   1.000  C
  C47      1.0000 0.19560  0.69810  0.76200  Biso   1.000  C
  H21      1.0000 0.19560  0.65690  0.79810  Biso   1.000  H
  C48      1.0000 0.43940  0.56160  0.31450  Biso   1.000  C
  H22      1.0000 0.39860  0.56220  0.27590  Biso   1.000  H
  C49      1.0000 0.43960  0.55750  0.42880  Biso   1.000  C
  C50      1.0000 0.21360  0.88620  0.59030  Biso   1.000  C
  C51      1.0000 0.19850  0.63600  0.57740  Biso   1.000  C
  C52      1.0000 0.37520  0.55370  0.49580  Biso   1.000  C
  C53      1.0000 0.20090  0.82030  0.76810  Biso   1.000  C
  H23      1.0000 0.20410  0.86000  0.80830  Biso   1.000  H
  O31      1.0000 0.17700  0.48280  0.40960  Biso   1.000  O
  O32      1.0000 0.12500  0.45330  0.56110  Biso   1.000  O
  C54      1.0000 0.12470  0.46260  0.46240  Biso   1.000  C
  C55      1.0000 0.06200  0.45260  0.39160  Biso   1.000  C
  C56      1.0000 0.06050  0.44750  0.27670  Biso   1.000  C
  H24      1.0000 0.10110  0.44640  0.23770  Biso   1.000  H
  K8       1.0000 0.14200  0.59934  0.27280  Biso   1.000  K
  Zn5      1.0000 0.25821  0.00797  0.53076  Biso   1.000  Zn
  K9       1.0000 0.19622  0.05593  0.78540  Biso   1.000  K
  O33      1.0000 0.28590  0.08350  0.62670  Biso   1.000  O
  O34      1.0000 0.12480  0.05740  0.59700  Biso   1.000  O
  O35      1.0000 0.31870  0.14010  0.47770  Biso   1.000  O
  O36      1.0000 0.29490  0.38740  0.48750  Biso   1.000  O
  O37      1.0000 0.17780  0.03760  0.43910  Biso   1.000  O
  O38      1.0000 0.26790  0.43800  0.64470  Biso   1.000  O
  C57      1.0000 0.30500  0.25840  0.82370  Biso   1.000  C
  H25      1.0000 0.30930  0.25720  0.90060  Biso   1.000  H
  C58      1.0000 0.30130  0.26190  0.59250  Biso   1.000  C
  H26      1.0000 0.30170  0.26330  0.51530  Biso   1.000  H
  C59      1.0000 0.29810  0.32150  0.65220  Biso   1.000  C
  C60      1.0000 0.30390  0.20110  0.64620  Biso   1.000  C
  C61      1.0000 0.30440  0.19810  0.76200  Biso   1.000  C
  H27      1.0000 0.30440  0.15690  0.79810  Biso   1.000  H
  C62      1.0000 0.06060  0.06160  0.31450  Biso   1.000  C
  H28      1.0000 0.10140  0.06220  0.27590  Biso   1.000  H
  C63      1.0000 0.06040  0.05750  0.42880  Biso   1.000  C
  C64      1.0000 0.28640  0.38620  0.59030  Biso   1.000  C
  C65      1.0000 0.30150  0.13600  0.57740  Biso   1.000  C
  C66      1.0000 0.12480  0.05370  0.49580  Biso   1.000  C
  C67      1.0000 0.29910  0.32030  0.76810  Biso   1.000  C
  H29      1.0000 0.29590  0.36000  0.80830  Biso   1.000  H
  O39      1.0000 0.32300  0.98280  0.40960  Biso   1.000  O
  O40      1.0000 0.37500  0.95330  0.56110  Biso   1.000  O
  C68      1.0000 0.37530  0.96260  0.46240  Biso   1.000  C
  C69      1.0000 0.43800  0.95260  0.39160  Biso   1.000  C
  C70      1.0000 0.43950  0.94750  0.27670  Biso   1.000  C
  H30      1.0000 0.39890  0.94640  0.23770  Biso   1.000  H
  K10      1.0000 0.35800  0.09934  0.27280  Biso   1.000  K
  Zn6      1.0000 0.75821  0.50797  0.53076  Biso   1.000  Zn
  K11      1.0000 0.69622  0.55593  0.78540  Biso   1.000  K
  O41      1.0000 0.78590  0.58350  0.62670  Biso   1.000  O
  O42      1.0000 0.62480  0.55740  0.59700  Biso   1.000  O
  O43      1.0000 0.81870  0.64010  0.47770  Biso   1.000  O
  O44      1.0000 0.79490  0.88740  0.48750  Biso   1.000  O
  O45      1.0000 0.67780  0.53760  0.43910  Biso   1.000  O
  O46      1.0000 0.76790  0.93800  0.64470  Biso   1.000  O
  C71      1.0000 0.80500  0.75840  0.82370  Biso   1.000  C
  H31      1.0000 0.80930  0.75720  0.90060  Biso   1.000  H
  C72      1.0000 0.80130  0.76190  0.59250  Biso   1.000  C
  H32      1.0000 0.80170  0.76330  0.51530  Biso   1.000  H
  C73      1.0000 0.79810  0.82150  0.65220  Biso   1.000  C
  C74      1.0000 0.80390  0.70110  0.64620  Biso   1.000  C
  C75      1.0000 0.80440  0.69810  0.76200  Biso   1.000  C
  H33      1.0000 0.80440  0.65690  0.79810  Biso   1.000  H
  C76      1.0000 0.56060  0.56160  0.31450  Biso   1.000  C
  H34      1.0000 0.60140  0.56220  0.27590  Biso   1.000  H
  C77      1.0000 0.56040  0.55750  0.42880  Biso   1.000  C
  C78      1.0000 0.78640  0.88620  0.59030  Biso   1.000  C
  C79      1.0000 0.80150  0.63600  0.57740  Biso   1.000  C
  C80      1.0000 0.62480  0.55370  0.49580  Biso   1.000  C
  C81      1.0000 0.79910  0.82030  0.76810  Biso   1.000  C
  H35      1.0000 0.79590  0.86000  0.80830  Biso   1.000  H
  O47      1.0000 0.82300  0.48280  0.40960  Biso   1.000  O
  O48      1.0000 0.87500  0.45330  0.56110  Biso   1.000  O
  C82      1.0000 0.87530  0.46260  0.46240  Biso   1.000  C
  C83      1.0000 0.93800  0.45260  0.39160  Biso   1.000  C
  C84      1.0000 0.93950  0.44750  0.27670  Biso   1.000  C
  H36      1.0000 0.89890  0.44640  0.23770  Biso   1.000  H
  K12      1.0000 0.85800  0.59934  0.27280  Biso   1.000  K
  Zn7      1.0000 0.74179  0.99203  0.03076  Biso   1.000  Zn
  K13      1.0000 0.80378  0.94407  0.28540  Biso   1.000  K
  O49      1.0000 0.71410  0.91650  0.12670  Biso   1.000  O
  O50      1.0000 0.87520  0.94260  0.09700  Biso   1.000  O
  O51      1.0000 0.68130  0.85990  0.97770  Biso   1.000  O
  O52      1.0000 0.70510  0.61260  0.98750  Biso   1.000  O
  O53      1.0000 0.82220  0.96240  0.93910  Biso   1.000  O
  O54      1.0000 0.73210  0.56200  0.14470  Biso   1.000  O
  C85      1.0000 0.69500  0.74160  0.32370  Biso   1.000  C
  H37      1.0000 0.69070  0.74280  0.40060  Biso   1.000  H
  C86      1.0000 0.69870  0.73810  0.09250  Biso   1.000  C
  H38      1.0000 0.69830  0.73670  0.01530  Biso   1.000  H
  C87      1.0000 0.70190  0.67850  0.15220  Biso   1.000  C
  C88      1.0000 0.69610  0.79890  0.14620  Biso   1.000  C
  C89      1.0000 0.69560  0.80190  0.26200  Biso   1.000  C
  H39      1.0000 0.69560  0.84310  0.29810  Biso   1.000  H
  C90      1.0000 0.93940  0.93840  0.81450  Biso   1.000  C
  H40      1.0000 0.89860  0.93780  0.77590  Biso   1.000  H
  C91      1.0000 0.93960  0.94250  0.92880  Biso   1.000  C
  C92      1.0000 0.71360  0.61380  0.09030  Biso   1.000  C
  C93      1.0000 0.69850  0.86400  0.07740  Biso   1.000  C
  C94      1.0000 0.87520  0.94630  0.99580  Biso   1.000  C
  C95      1.0000 0.70090  0.67970  0.26810  Biso   1.000  C
  H41      1.0000 0.70410  0.64000  0.30830  Biso   1.000  H
  O55      1.0000 0.67700  0.01720  0.90960  Biso   1.000  O
  O56      1.0000 0.62500  0.04670  0.06110  Biso   1.000  O
  C96      1.0000 0.62470  0.03740  0.96240  Biso   1.000  C
  C97      1.0000 0.56200  0.04740  0.89160  Biso   1.000  C
  C98      1.0000 0.56050  0.05250  0.77670  Biso   1.000  C
  H42      1.0000 0.60110  0.05360  0.73770  Biso   1.000  H
  K14      1.0000 0.64200  0.90066  0.77280  Biso   1.000  K
  Zn8      1.0000 0.24179  0.49203  0.03076  Biso   1.000  Zn
  K15      1.0000 0.30378  0.44407  0.28540  Biso   1.000  K
  O57      1.0000 0.21410  0.41650  0.12670  Biso   1.000  O
  O58      1.0000 0.37520  0.44260  0.09700  Biso   1.000  O
  O59      1.0000 0.18130  0.35990  0.97770  Biso   1.000  O
  O60      1.0000 0.20510  0.11260  0.98750  Biso   1.000  O
  O61      1.0000 0.32220  0.46240  0.93910  Biso   1.000  O
  O62      1.0000 0.23210  0.06200  0.14470  Biso   1.000  O
  C99      1.0000 0.19500  0.24160  0.32370  Biso   1.000  C
  H43      1.0000 0.19070  0.24280  0.40060  Biso   1.000  H
  C100     1.0000 0.19870  0.23810  0.09250  Biso   1.000  C
  H44      1.0000 0.19830  0.23670  0.01530  Biso   1.000  H
  C101     1.0000 0.20190  0.17850  0.15220  Biso   1.000  C
  C102     1.0000 0.19610  0.29890  0.14620  Biso   1.000  C
  C103     1.0000 0.19560  0.30190  0.26200  Biso   1.000  C
  H45      1.0000 0.19560  0.34310  0.29810  Biso   1.000  H
  C104     1.0000 0.43940  0.43840  0.81450  Biso   1.000  C
  H46      1.0000 0.39860  0.43780  0.77590  Biso   1.000  H
  C105     1.0000 0.43960  0.44250  0.92880  Biso   1.000  C
  C106     1.0000 0.21360  0.11380  0.09030  Biso   1.000  C
  C107     1.0000 0.19850  0.36400  0.07740  Biso   1.000  C
  C108     1.0000 0.37520  0.44630  0.99580  Biso   1.000  C
  C109     1.0000 0.20090  0.17970  0.26810  Biso   1.000  C
  H47      1.0000 0.20410  0.14000  0.30830  Biso   1.000  H
  O63      1.0000 0.17700  0.51720  0.90960  Biso   1.000  O
  O64      1.0000 0.12500  0.54670  0.06110  Biso   1.000  O
  C110     1.0000 0.12470  0.53740  0.96240  Biso   1.000  C
  C111     1.0000 0.06200  0.54740  0.89160  Biso   1.000  C
  C112     1.0000 0.06050  0.55250  0.77670  Biso   1.000  C
  H48      1.0000 0.10110  0.55360  0.73770  Biso   1.000  H
  K16      1.0000 0.14200  0.40066  0.77280  Biso   1.000  K
  C113     1.0000 0.00000  0.94250  0.98590  Biso   1.000  C
  H49      1.0000 0.00000  0.94250  0.06320  Biso   1.000  H
  C114     1.0000 0.00000  0.93520  0.75740  Biso   1.000  C
  H50      1.0000 0.00000  0.93080  0.68050  Biso   1.000  H
  C115     1.0000 0.50000  0.44250  0.98590  Biso   1.000  C
  H51      1.0000 0.50000  0.44250  0.06320  Biso   1.000  H
  C116     1.0000 0.50000  0.43520  0.75740  Biso   1.000  C
  H52      1.0000 0.50000  0.43080  0.68050  Biso   1.000  H
  C117     1.0000 0.00000  0.05750  0.48590  Biso   1.000  C
  H53      1.0000 0.00000  0.05750  0.56320  Biso   1.000  H
  C118     1.0000 0.00000  0.06480  0.25740  Biso   1.000  C
  H54      1.0000 0.00000  0.06920  0.18050  Biso   1.000  H
  C119     1.0000 0.50000  0.55750  0.48590  Biso   1.000  C
  H55      1.0000 0.50000  0.55750  0.56320  Biso   1.000  H
  C120     1.0000 0.50000  0.56480  0.25740  Biso   1.000  C
  H56      1.0000 0.50000  0.56920  0.18050  Biso   1.000  H
  C121     1.0000 0.50000  0.04570  0.95110  Biso   1.000  C
  H57      1.0000 0.50000  0.04350  0.02830  Biso   1.000  H
  C122     1.0000 0.50000  0.05600  0.71840  Biso   1.000  C
  H58      1.0000 0.50000  0.06060  0.64150  Biso   1.000  H
  O65      1.0000 0.50000  0.87690  0.82900  Biso   1.000  O
  C123     1.0000 0.00000  0.54570  0.95110  Biso   1.000  C
  H59      1.0000 0.00000  0.54350  0.02830  Biso   1.000  H
  C124     1.0000 0.00000  0.55600  0.71840  Biso   1.000  C
  H60      1.0000 0.00000  0.56060  0.64150  Biso   1.000  H
  O66      1.0000 0.00000  0.37690  0.82900  Biso   1.000  O
  C125     1.0000 0.50000  0.95430  0.45110  Biso   1.000  C
  H61      1.0000 0.50000  0.95650  0.52830  Biso   1.000  H
  C126     1.0000 0.50000  0.94400  0.21840  Biso   1.000  C
  H62      1.0000 0.50000  0.93940  0.14150  Biso   1.000  H
  O67      1.0000 0.50000  0.12310  0.32900  Biso   1.000  O
  C127     1.0000 0.00000  0.45430  0.45110  Biso   1.000  C
  H63      1.0000 0.00000  0.45650  0.52830  Biso   1.000  H
  C128     1.0000 0.00000  0.44400  0.21840  Biso   1.000  C
  H64      1.0000 0.00000  0.43940  0.14150  Biso   1.000  H
  O68      1.0000 0.00000  0.62310  0.32900  Biso   1.000  O
