data_image0
_cell_length_a       16.0121
_cell_length_b       7.5502
_cell_length_c       27.8153
_cell_angle_alpha    90
_cell_angle_beta     99.733
_cell_angle_gamma    90

_symmetry_space_group_name_H-M    "P 1"
_symmetry_int_tables_number       1

loop_
  _symmetry_equiv_pos_as_xyz
  'x, y, z'

loop_
  _atom_site_label
  _atom_site_occupancy
  _atom_site_fract_x
  _atom_site_fract_y
  _atom_site_fract_z
  _atom_site_thermal_displace_type
  _atom_site_B_iso_or_equiv
  _atom_site_type_symbol
  Cd1      1.0000 0.21561  0.52604  0.08014  Biso   1.000  Cd
  Cd2      1.0000 0.15100  0.04265  0.04651  Biso   1.000  Cd
  O1       1.0000 0.17731  0.26370  0.10964  Biso   1.000  O
  O2       1.0000 0.30694  0.31820  0.14816  Biso   1.000  O
  O3       1.0000 0.24574  0.90720  0.10858  Biso   1.000  O
  O4       1.0000 0.21943  0.66970  0.15094  Biso   1.000  O
  O5       1.0000 0.90343  0.19900  0.44264  Biso   1.000  O
  O6       1.0000 0.96237  0.44650  0.42239  Biso   1.000  O
  O7       1.0000 0.08121  0.24000  0.49984  Biso   1.000  O
  O8       1.0000 0.17962  0.03060  0.50002  Biso   1.000  O
  N1       1.0000 0.34271  0.60810  0.05865  Biso   1.000  N
  N2       1.0000 0.72262  0.90550  0.98336  Biso   1.000  N
  F1       1.0000 0.32360  0.76280  0.32262  Biso   1.000  F
  F2       1.0000 0.30796  0.98840  0.36690  Biso   1.000  F
  F3       1.0000 0.27510  0.72910  0.38927  Biso   1.000  F
  F4       1.0000 0.11550  0.61930  0.35374  Biso   1.000  F
  F5       1.0000 0.06920  0.69120  0.27943  Biso   1.000  F
  F6       1.0000 0.18860  0.55770  0.29804  Biso   1.000  F
  C1       1.0000 0.23870  0.24120  0.14517  Biso   1.000  C
  C2       1.0000 0.22270  0.13100  0.18848  Biso   1.000  C
  C3       1.0000 0.21660  0.94730  0.18939  Biso   1.000  C
  C4       1.0000 0.20300  0.86200  0.23186  Biso   1.000  C
  H1       1.0000 0.20050  0.73900  0.23240  Biso   1.000  H
  C5       1.0000 0.19320  0.95610  0.27338  Biso   1.000  C
  C6       1.0000 0.20020  0.13940  0.27210  Biso   1.000  C
  H2       1.0000 0.19520  0.20520  0.29970  Biso   1.000  H
  C7       1.0000 0.21460  0.22560  0.23041  Biso   1.000  C
  H3       1.0000 0.21880  0.34840  0.23040  Biso   1.000  H
  C8       1.0000 0.22830  0.83380  0.14643  Biso   1.000  C
  C9       1.0000 0.18220  0.86400  0.32154  Biso   1.000  C
  C10      1.0000 0.13850  0.68230  0.31327  Biso   1.000  C
  C11      1.0000 0.27280  0.83700  0.35067  Biso   1.000  C
  C12      1.0000 0.12630  0.97530  0.35052  Biso   1.000  C
  C13      1.0000 0.05240  0.05150  0.32544  Biso   1.000  C
  H4       1.0000 0.03840  0.03630  0.29190  Biso   1.000  H
  C14      1.0000 0.99990  0.14900  0.34964  Biso   1.000  C
  H5       1.0000 0.95080  0.19860  0.33220  Biso   1.000  H
  C15      1.0000 0.01930  0.17440  0.39966  Biso   1.000  C
  C16      1.0000 0.09210  0.09660  0.42539  Biso   1.000  C
  C17      1.0000 0.14460  0.99720  0.40051  Biso   1.000  C
  H6       1.0000 0.19300  0.94470  0.41790  Biso   1.000  H
  C18      1.0000 0.95860  0.27960  0.42417  Biso   1.000  C
  C19      1.0000 0.11890  0.12350  0.47959  Biso   1.000  C
  C20      1.0000 0.34580  0.65830  0.01294  Biso   1.000  C
  H7       1.0000 0.29630  0.65310  0.99000  Biso   1.000  H
  C21      1.0000 0.41870  0.71740  0.99804  Biso   1.000  C
  H8       1.0000 0.41720  0.75070  0.96570  Biso   1.000  H
  C22      1.0000 0.49410  0.72770  0.03049  Biso   1.000  C
  C23      1.0000 0.49050  0.67690  0.07762  Biso   1.000  C
  H9       1.0000 0.53890  0.68160  0.10140  Biso   1.000  H
  C24      1.0000 0.41450  0.61870  0.08959  Biso   1.000  C
  H10      1.0000 0.41420  0.58480  0.12170  Biso   1.000  H
  C25      1.0000 0.57320  0.79170  0.01466  Biso   1.000  C
  C26      1.0000 0.57740  0.81700  0.96571  Biso   1.000  C
  H11      1.0000 0.52990  0.79560  0.94220  Biso   1.000  H
  C27      1.0000 0.65180  0.87380  0.95162  Biso   1.000  C
  H12      1.0000 0.65250  0.89070  0.91860  Biso   1.000  H
  C28      1.0000 0.71840  0.88390  0.03067  Biso   1.000  C
  H13      1.0000 0.76670  0.90740  0.05340  Biso   1.000  H
  C29      1.0000 0.64640  0.82870  0.04776  Biso   1.000  C
  H14      1.0000 0.64700  0.81640  0.08110  Biso   1.000  H
  Cd3      1.0000 0.78439  0.02604  0.41986  Biso   1.000  Cd
  Cd4      1.0000 0.84900  0.54265  0.45349  Biso   1.000  Cd
  O9       1.0000 0.82269  0.76370  0.39036  Biso   1.000  O
  O10      1.0000 0.69306  0.81820  0.35184  Biso   1.000  O
  O11      1.0000 0.75426  0.40720  0.39142  Biso   1.000  O
  O12      1.0000 0.78057  0.16970  0.34906  Biso   1.000  O
  O13      1.0000 0.09657  0.69900  0.05736  Biso   1.000  O
  O14      1.0000 0.03763  0.94650  0.07761  Biso   1.000  O
  O15      1.0000 0.91879  0.74000  0.00016  Biso   1.000  O
  O16      1.0000 0.82038  0.53060  0.99998  Biso   1.000  O
  N3       1.0000 0.65729  0.10810  0.44135  Biso   1.000  N
  N4       1.0000 0.27738  0.40550  0.51664  Biso   1.000  N
  F7       1.0000 0.67640  0.26280  0.17738  Biso   1.000  F
  F8       1.0000 0.69204  0.48840  0.13310  Biso   1.000  F
  F9       1.0000 0.72490  0.22910  0.11073  Biso   1.000  F
  F10      1.0000 0.88450  0.11930  0.14626  Biso   1.000  F
  F11      1.0000 0.93080  0.19120  0.22057  Biso   1.000  F
  F12      1.0000 0.81140  0.05770  0.20196  Biso   1.000  F
  C30      1.0000 0.76130  0.74120  0.35483  Biso   1.000  C
  C31      1.0000 0.77730  0.63100  0.31152  Biso   1.000  C
  C32      1.0000 0.78340  0.44730  0.31061  Biso   1.000  C
  C33      1.0000 0.79700  0.36200  0.26814  Biso   1.000  C
  H15      1.0000 0.79950  0.23900  0.26760  Biso   1.000  H
  C34      1.0000 0.80680  0.45610  0.22662  Biso   1.000  C
  C35      1.0000 0.79980  0.63940  0.22790  Biso   1.000  C
  H16      1.0000 0.80480  0.70520  0.20030  Biso   1.000  H
  C36      1.0000 0.78540  0.72560  0.26959  Biso   1.000  C
  H17      1.0000 0.78120  0.84840  0.26960  Biso   1.000  H
  C37      1.0000 0.77170  0.33380  0.35357  Biso   1.000  C
  C38      1.0000 0.81780  0.36400  0.17846  Biso   1.000  C
  C39      1.0000 0.86150  0.18230  0.18673  Biso   1.000  C
  C40      1.0000 0.72720  0.33700  0.14933  Biso   1.000  C
  C41      1.0000 0.87370  0.47530  0.14948  Biso   1.000  C
  C42      1.0000 0.94760  0.55150  0.17456  Biso   1.000  C
  H18      1.0000 0.96160  0.53630  0.20810  Biso   1.000  H
  C43      1.0000 0.00010  0.64900  0.15036  Biso   1.000  C
  H19      1.0000 0.04920  0.69860  0.16780  Biso   1.000  H
  C44      1.0000 0.98070  0.67440  0.10034  Biso   1.000  C
  C45      1.0000 0.90790  0.59660  0.07461  Biso   1.000  C
  C46      1.0000 0.85540  0.49720  0.09949  Biso   1.000  C
  H20      1.0000 0.80700  0.44470  0.08210  Biso   1.000  H
  C47      1.0000 0.04140  0.77960  0.07583  Biso   1.000  C
  C48      1.0000 0.88110  0.62350  0.02041  Biso   1.000  C
  C49      1.0000 0.65420  0.15830  0.48706  Biso   1.000  C
  H21      1.0000 0.70370  0.15310  0.51000  Biso   1.000  H
  C50      1.0000 0.58130  0.21740  0.50196  Biso   1.000  C
  H22      1.0000 0.58280  0.25070  0.53430  Biso   1.000  H
  C51      1.0000 0.50590  0.22770  0.46951  Biso   1.000  C
  C52      1.0000 0.50950  0.17690  0.42238  Biso   1.000  C
  H23      1.0000 0.46110  0.18160  0.39860  Biso   1.000  H
  C53      1.0000 0.58550  0.11870  0.41041  Biso   1.000  C
  H24      1.0000 0.58580  0.08480  0.37830  Biso   1.000  H
  C54      1.0000 0.42680  0.29170  0.48534  Biso   1.000  C
  C55      1.0000 0.42260  0.31700  0.53429  Biso   1.000  C
  H25      1.0000 0.47010  0.29560  0.55780  Biso   1.000  H
  C56      1.0000 0.34820  0.37380  0.54838  Biso   1.000  C
  H26      1.0000 0.34750  0.39070  0.58140  Biso   1.000  H
  C57      1.0000 0.28160  0.38390  0.46933  Biso   1.000  C
  H27      1.0000 0.23330  0.40740  0.44660  Biso   1.000  H
  C58      1.0000 0.35360  0.32870  0.45224  Biso   1.000  C
  H28      1.0000 0.35300  0.31640  0.41890  Biso   1.000  H
  Cd5      1.0000 0.78439  0.47396  0.91986  Biso   1.000  Cd
  Cd6      1.0000 0.84900  0.95735  0.95349  Biso   1.000  Cd
  O17      1.0000 0.82269  0.73630  0.89036  Biso   1.000  O
  O18      1.0000 0.69306  0.68180  0.85184  Biso   1.000  O
  O19      1.0000 0.75426  0.09280  0.89142  Biso   1.000  O
  O20      1.0000 0.78057  0.33030  0.84906  Biso   1.000  O
  O21      1.0000 0.09657  0.80100  0.55736  Biso   1.000  O
  O22      1.0000 0.03763  0.55350  0.57761  Biso   1.000  O
  O23      1.0000 0.91879  0.76000  0.50016  Biso   1.000  O
  O24      1.0000 0.82038  0.96940  0.49998  Biso   1.000  O
  N5       1.0000 0.65729  0.39190  0.94135  Biso   1.000  N
  N6       1.0000 0.27738  0.09450  0.01664  Biso   1.000  N
  F13      1.0000 0.67640  0.23720  0.67738  Biso   1.000  F
  F14      1.0000 0.69204  0.01160  0.63310  Biso   1.000  F
  F15      1.0000 0.72490  0.27090  0.61073  Biso   1.000  F
  F16      1.0000 0.88450  0.38070  0.64626  Biso   1.000  F
  F17      1.0000 0.93080  0.30880  0.72057  Biso   1.000  F
  F18      1.0000 0.81140  0.44230  0.70196  Biso   1.000  F
  C59      1.0000 0.76130  0.75880  0.85483  Biso   1.000  C
  C60      1.0000 0.77730  0.86900  0.81152  Biso   1.000  C
  C61      1.0000 0.78340  0.05270  0.81061  Biso   1.000  C
  C62      1.0000 0.79700  0.13800  0.76814  Biso   1.000  C
  H29      1.0000 0.79950  0.26100  0.76760  Biso   1.000  H
  C63      1.0000 0.80680  0.04390  0.72662  Biso   1.000  C
  C64      1.0000 0.79980  0.86060  0.72790  Biso   1.000  C
  H30      1.0000 0.80480  0.79480  0.70030  Biso   1.000  H
  C65      1.0000 0.78540  0.77440  0.76959  Biso   1.000  C
  H31      1.0000 0.78120  0.65160  0.76960  Biso   1.000  H
  C66      1.0000 0.77170  0.16620  0.85357  Biso   1.000  C
  C67      1.0000 0.81780  0.13600  0.67846  Biso   1.000  C
  C68      1.0000 0.86150  0.31770  0.68673  Biso   1.000  C
  C69      1.0000 0.72720  0.16300  0.64933  Biso   1.000  C
  C70      1.0000 0.87370  0.02470  0.64948  Biso   1.000  C
  C71      1.0000 0.94760  0.94850  0.67456  Biso   1.000  C
  H32      1.0000 0.96160  0.96370  0.70810  Biso   1.000  H
  C72      1.0000 0.00010  0.85100  0.65036  Biso   1.000  C
  H33      1.0000 0.04920  0.80140  0.66780  Biso   1.000  H
  C73      1.0000 0.98070  0.82560  0.60034  Biso   1.000  C
  C74      1.0000 0.90790  0.90340  0.57461  Biso   1.000  C
  C75      1.0000 0.85540  0.00280  0.59949  Biso   1.000  C
  H34      1.0000 0.80700  0.05530  0.58210  Biso   1.000  H
  C76      1.0000 0.04140  0.72040  0.57583  Biso   1.000  C
  C77      1.0000 0.88110  0.87650  0.52041  Biso   1.000  C
  C78      1.0000 0.65420  0.34170  0.98706  Biso   1.000  C
  H35      1.0000 0.70370  0.34690  0.01000  Biso   1.000  H
  C79      1.0000 0.58130  0.28260  0.00196  Biso   1.000  C
  H36      1.0000 0.58280  0.24930  0.03430  Biso   1.000  H
  C80      1.0000 0.50590  0.27230  0.96951  Biso   1.000  C
  C81      1.0000 0.50950  0.32310  0.92238  Biso   1.000  C
  H37      1.0000 0.46110  0.31840  0.89860  Biso   1.000  H
  C82      1.0000 0.58550  0.38130  0.91041  Biso   1.000  C
  H38      1.0000 0.58580  0.41520  0.87830  Biso   1.000  H
  C83      1.0000 0.42680  0.20830  0.98534  Biso   1.000  C
  C84      1.0000 0.42260  0.18300  0.03429  Biso   1.000  C
  H39      1.0000 0.47010  0.20440  0.05780  Biso   1.000  H
  C85      1.0000 0.34820  0.12620  0.04838  Biso   1.000  C
  H40      1.0000 0.34750  0.10930  0.08140  Biso   1.000  H
  C86      1.0000 0.28160  0.11610  0.96933  Biso   1.000  C
  H41      1.0000 0.23330  0.09260  0.94660  Biso   1.000  H
  C87      1.0000 0.35360  0.17130  0.95224  Biso   1.000  C
  H42      1.0000 0.35300  0.18360  0.91890  Biso   1.000  H
  Cd7      1.0000 0.21561  0.97396  0.58014  Biso   1.000  Cd
  Cd8      1.0000 0.15100  0.45735  0.54651  Biso   1.000  Cd
  O25      1.0000 0.17731  0.23630  0.60964  Biso   1.000  O
  O26      1.0000 0.30694  0.18180  0.64816  Biso   1.000  O
  O27      1.0000 0.24574  0.59280  0.60858  Biso   1.000  O
  O28      1.0000 0.21943  0.83030  0.65094  Biso   1.000  O
  O29      1.0000 0.90343  0.30100  0.94264  Biso   1.000  O
  O30      1.0000 0.96237  0.05350  0.92239  Biso   1.000  O
  O31      1.0000 0.08121  0.26000  0.99984  Biso   1.000  O
  O32      1.0000 0.17962  0.46940  0.00002  Biso   1.000  O
  N7       1.0000 0.34271  0.89190  0.55865  Biso   1.000  N
  N8       1.0000 0.72262  0.59450  0.48336  Biso   1.000  N
  F19      1.0000 0.32360  0.73720  0.82262  Biso   1.000  F
  F20      1.0000 0.30796  0.51160  0.86690  Biso   1.000  F
  F21      1.0000 0.27510  0.77090  0.88927  Biso   1.000  F
  F22      1.0000 0.11550  0.88070  0.85374  Biso   1.000  F
  F23      1.0000 0.06920  0.80880  0.77943  Biso   1.000  F
  F24      1.0000 0.18860  0.94230  0.79804  Biso   1.000  F
  C88      1.0000 0.23870  0.25880  0.64517  Biso   1.000  C
  C89      1.0000 0.22270  0.36900  0.68848  Biso   1.000  C
  C90      1.0000 0.21660  0.55270  0.68939  Biso   1.000  C
  C91      1.0000 0.20300  0.63800  0.73186  Biso   1.000  C
  H43      1.0000 0.20050  0.76100  0.73240  Biso   1.000  H
  C92      1.0000 0.19320  0.54390  0.77338  Biso   1.000  C
  C93      1.0000 0.20020  0.36060  0.77210  Biso   1.000  C
  H44      1.0000 0.19520  0.29480  0.79970  Biso   1.000  H
  C94      1.0000 0.21460  0.27440  0.73041  Biso   1.000  C
  H45      1.0000 0.21880  0.15160  0.73040  Biso   1.000  H
  C95      1.0000 0.22830  0.66620  0.64643  Biso   1.000  C
  C96      1.0000 0.18220  0.63600  0.82154  Biso   1.000  C
  C97      1.0000 0.13850  0.81770  0.81327  Biso   1.000  C
  C98      1.0000 0.27280  0.66300  0.85067  Biso   1.000  C
  C99      1.0000 0.12630  0.52470  0.85052  Biso   1.000  C
  C100     1.0000 0.05240  0.44850  0.82544  Biso   1.000  C
  H46      1.0000 0.03840  0.46370  0.79190  Biso   1.000  H
  C101     1.0000 0.99990  0.35100  0.84964  Biso   1.000  C
  H47      1.0000 0.95080  0.30140  0.83220  Biso   1.000  H
  C102     1.0000 0.01930  0.32560  0.89966  Biso   1.000  C
  C103     1.0000 0.09210  0.40340  0.92539  Biso   1.000  C
  C104     1.0000 0.14460  0.50280  0.90051  Biso   1.000  C
  H48      1.0000 0.19300  0.55530  0.91790  Biso   1.000  H
  C105     1.0000 0.95860  0.22040  0.92417  Biso   1.000  C
  C106     1.0000 0.11890  0.37650  0.97959  Biso   1.000  C
  C107     1.0000 0.34580  0.84170  0.51294  Biso   1.000  C
  H49      1.0000 0.29630  0.84690  0.49000  Biso   1.000  H
  C108     1.0000 0.41870  0.78260  0.49804  Biso   1.000  C
  H50      1.0000 0.41720  0.74930  0.46570  Biso   1.000  H
  C109     1.0000 0.49410  0.77230  0.53049  Biso   1.000  C
  C110     1.0000 0.49050  0.82310  0.57762  Biso   1.000  C
  H51      1.0000 0.53890  0.81840  0.60140  Biso   1.000  H
  C111     1.0000 0.41450  0.88130  0.58959  Biso   1.000  C
  H52      1.0000 0.41420  0.91520  0.62170  Biso   1.000  H
  C112     1.0000 0.57320  0.70830  0.51466  Biso   1.000  C
  C113     1.0000 0.57740  0.68300  0.46571  Biso   1.000  C
  H53      1.0000 0.52990  0.70440  0.44220  Biso   1.000  H
  C114     1.0000 0.65180  0.62620  0.45162  Biso   1.000  C
  H54      1.0000 0.65250  0.60930  0.41860  Biso   1.000  H
  C115     1.0000 0.71840  0.61610  0.53067  Biso   1.000  C
  H55      1.0000 0.76670  0.59260  0.55340  Biso   1.000  H
  C116     1.0000 0.64640  0.67130  0.54776  Biso   1.000  C
  H56      1.0000 0.64700  0.68360  0.58110  Biso   1.000  H
