data_COWMUX_clean
_audit_creation_date              2014-07-02
_audit_creation_method            'Materials Studio'
_symmetry_space_group_name_H-M    'P1'
_symmetry_Int_Tables_number       1
_symmetry_cell_setting            triclinic
loop_
_symmetry_equiv_pos_as_xyz
  x,y,z
_cell_length_a                    9.5430
_cell_length_b                    13.8215
_cell_length_c                    15.2993
_cell_angle_alpha                 90.0000
_cell_angle_beta                  93.3880
_cell_angle_gamma                 90.0000
loop_
_atom_site_label
_atom_site_type_symbol
_atom_site_fract_x
_atom_site_fract_y
_atom_site_fract_z
_atom_site_U_iso_or_equiv
_atom_site_adp_type
_atom_site_occupancy
Tm1    Tm    0.54323   0.11137   0.91444   0.01267  Uiso   1.00
Tm2    Tm    0.95677   0.61137   0.58556   0.01267  Uiso   1.00
Tm3    Tm    0.45677   0.88863   0.08556   0.01267  Uiso   1.00
Tm4    Tm    0.04323   0.38863   0.41444   0.01267  Uiso   1.00
H1     H     0.89240   0.90840   0.74010   0.01267  Uiso   1.00
H2     H     0.80690   0.83650   0.79630   0.01267  Uiso   1.00
H3     H     0.90690   0.90300   0.92490   0.01267  Uiso   1.00
H4     H     0.05210   0.03750   0.92890   0.01267  Uiso   1.00
H5     H     0.05320   0.03650   0.82640   0.01267  Uiso   1.00
H6     H     0.16260   0.88810   0.93670   0.01267  Uiso   1.00
H7     H     0.16920   0.89380   0.75220   0.01267  Uiso   1.00
H8     H     0.23700   0.81180   0.81170   0.01267  Uiso   1.00
H9     H     0.01510   0.76490   0.85460   0.01267  Uiso   1.00
H10    H     0.60760   0.40840   0.75990   0.01267  Uiso   1.00
H11    H     0.69310   0.33650   0.70370   0.01267  Uiso   1.00
H12    H     0.59310   0.40300   0.57510   0.01267  Uiso   1.00
H13    H     0.44790   0.53750   0.57110   0.01267  Uiso   1.00
H14    H     0.44680   0.53650   0.67360   0.01267  Uiso   1.00
H15    H     0.33740   0.38810   0.56330   0.01267  Uiso   1.00
H16    H     0.33080   0.39380   0.74780   0.01267  Uiso   1.00
H17    H     0.26300   0.31180   0.68830   0.01267  Uiso   1.00
H18    H     0.48490   0.26490   0.64540   0.01267  Uiso   1.00
H19    H     0.10760   0.09160   0.25990   0.01267  Uiso   1.00
H20    H     0.19310   0.16350   0.20370   0.01267  Uiso   1.00
H21    H     0.09310   0.09700   0.07510   0.01267  Uiso   1.00
H22    H     0.94790   0.96250   0.07110   0.01267  Uiso   1.00
H23    H     0.94680   0.96350   0.17360   0.01267  Uiso   1.00
H24    H     0.83740   0.11190   0.06330   0.01267  Uiso   1.00
H25    H     0.83080   0.10620   0.24780   0.01267  Uiso   1.00
H26    H     0.76300   0.18820   0.18830   0.01267  Uiso   1.00
H27    H     0.98490   0.23510   0.14540   0.01267  Uiso   1.00
H28    H     0.39240   0.59160   0.24010   0.01267  Uiso   1.00
H29    H     0.30690   0.66350   0.29630   0.01267  Uiso   1.00
H30    H     0.40690   0.59700   0.42490   0.01267  Uiso   1.00
H31    H     0.55210   0.46250   0.42890   0.01267  Uiso   1.00
H32    H     0.55320   0.46350   0.32640   0.01267  Uiso   1.00
H33    H     0.66260   0.61190   0.43670   0.01267  Uiso   1.00
H34    H     0.66920   0.60620   0.25220   0.01267  Uiso   1.00
H35    H     0.73700   0.68820   0.31170   0.01267  Uiso   1.00
H36    H     0.51510   0.73510   0.35460   0.01267  Uiso   1.00
C1     C     0.89380   0.87280   0.79480   0.01267  Uiso   1.00
C2     C     0.90640   0.94350   0.87230   0.01267  Uiso   1.00
C3     C     0.04680   0.99590   0.87770   0.01267  Uiso   1.00
C4     C     0.16860   0.92650   0.88320   0.01267  Uiso   1.00
C5     C     0.16010   0.85760   0.80590   0.01267  Uiso   1.00
C6     C     0.02020   0.80280   0.80070   0.01267  Uiso   1.00
C7     C     0.78110   0.00850   0.87720   0.01267  Uiso   1.00
C8     C     0.30760   0.97970   0.88890   0.01267  Uiso   1.00
C9     C     0.00330   0.73340   0.72370   0.01267  Uiso   1.00
C10    C     0.60620   0.37280   0.70520   0.01267  Uiso   1.00
C11    C     0.59360   0.44350   0.62770   0.01267  Uiso   1.00
C12    C     0.45320   0.49590   0.62230   0.01267  Uiso   1.00
C13    C     0.33140   0.42650   0.61680   0.01267  Uiso   1.00
C14    C     0.33990   0.35760   0.69410   0.01267  Uiso   1.00
C15    C     0.47980   0.30280   0.69930   0.01267  Uiso   1.00
C16    C     0.71890   0.50850   0.62280   0.01267  Uiso   1.00
C17    C     0.19240   0.47970   0.61110   0.01267  Uiso   1.00
C18    C     0.49670   0.23340   0.77630   0.01267  Uiso   1.00
C19    C     0.10620   0.12720   0.20520   0.01267  Uiso   1.00
C20    C     0.09360   0.05650   0.12770   0.01267  Uiso   1.00
C21    C     0.95320   0.00410   0.12230   0.01267  Uiso   1.00
C22    C     0.83140   0.07350   0.11680   0.01267  Uiso   1.00
C23    C     0.83990   0.14240   0.19410   0.01267  Uiso   1.00
C24    C     0.97980   0.19720   0.19930   0.01267  Uiso   1.00
C25    C     0.21890   0.99150   0.12280   0.01267  Uiso   1.00
C26    C     0.69240   0.02030   0.11110   0.01267  Uiso   1.00
C27    C     0.99670   0.26660   0.27630   0.01267  Uiso   1.00
C28    C     0.39380   0.62720   0.29480   0.01267  Uiso   1.00
C29    C     0.40640   0.55650   0.37230   0.01267  Uiso   1.00
C30    C     0.54680   0.50410   0.37770   0.01267  Uiso   1.00
C31    C     0.66860   0.57350   0.38320   0.01267  Uiso   1.00
C32    C     0.66010   0.64240   0.30590   0.01267  Uiso   1.00
C33    C     0.52020   0.69720   0.30070   0.01267  Uiso   1.00
C34    C     0.28110   0.49150   0.37720   0.01267  Uiso   1.00
C35    C     0.80760   0.52030   0.38890   0.01267  Uiso   1.00
C36    C     0.50330   0.76660   0.22370   0.01267  Uiso   1.00
O1     O     0.65940   0.97160   0.86530   0.01267  Uiso   1.00
O2     O     0.79360   0.09530   0.89860   0.01267  Uiso   1.00
O3     O     0.92060   0.66310   0.73010   0.01267  Uiso   1.00
O4     O     0.06690   0.74720   0.65630   0.01267  Uiso   1.00
O5     O     0.33770   0.04360   0.83620   0.01267  Uiso   1.00
O6     O     0.39420   0.96150   0.95280   0.01267  Uiso   1.00
O7     O     0.84060   0.47160   0.63470   0.01267  Uiso   1.00
O8     O     0.70640   0.59530   0.60140   0.01267  Uiso   1.00
O9     O     0.57940   0.16310   0.76990   0.01267  Uiso   1.00
O10    O     0.43310   0.24720   0.84370   0.01267  Uiso   1.00
O11    O     0.16230   0.54360   0.66380   0.01267  Uiso   1.00
O12    O     0.10580   0.46150   0.54720   0.01267  Uiso   1.00
O13    O     0.34060   0.02840   0.13470   0.01267  Uiso   1.00
O14    O     0.20640   0.90470   0.10140   0.01267  Uiso   1.00
O15    O     0.07940   0.33690   0.26990   0.01267  Uiso   1.00
O16    O     0.93310   0.25280   0.34370   0.01267  Uiso   1.00
O17    O     0.66230   0.95640   0.16380   0.01267  Uiso   1.00
O18    O     0.60580   0.03850   0.04720   0.01267  Uiso   1.00
O19    O     0.15940   0.52840   0.36530   0.01267  Uiso   1.00
O20    O     0.29360   0.40470   0.39860   0.01267  Uiso   1.00
O21    O     0.42060   0.83690   0.23010   0.01267  Uiso   1.00
O22    O     0.56690   0.75280   0.15630   0.01267  Uiso   1.00
O23    O     0.83770   0.45640   0.33620   0.01267  Uiso   1.00
O24    O     0.89420   0.53850   0.45280   0.01267  Uiso   1.00
