data_COWMIL_clean
_audit_creation_date              2014-07-02
_audit_creation_method            'Materials Studio'
_symmetry_space_group_name_H-M    'P1'
_symmetry_Int_Tables_number       1
_symmetry_cell_setting            triclinic
loop_
_symmetry_equiv_pos_as_xyz
  x,y,z
_cell_length_a                    9.5736
_cell_length_b                    13.8317
_cell_length_c                    15.3442
_cell_angle_alpha                 90.0000
_cell_angle_beta                  93.4360
_cell_angle_gamma                 90.0000
loop_
_atom_site_label
_atom_site_type_symbol
_atom_site_fract_x
_atom_site_fract_y
_atom_site_fract_z
_atom_site_U_iso_or_equiv
_atom_site_adp_type
_atom_site_occupancy
Ho1    Ho    0.54270   0.38866   0.91439   0.01267  Uiso   1.00
Ho2    Ho    0.95730   0.88866   0.58561   0.01267  Uiso   1.00
Ho3    Ho    0.45730   0.61134   0.08561   0.01267  Uiso   1.00
Ho4    Ho    0.04270   0.11134   0.41439   0.01267  Uiso   1.00
H1     H     0.23590   0.68850   0.81240   0.01267  Uiso   1.00
H2     H     0.16980   0.60690   0.75210   0.01267  Uiso   1.00
H3     H     0.16420   0.61110   0.93500   0.01267  Uiso   1.00
H4     H     0.05080   0.46280   0.82650   0.01267  Uiso   1.00
H5     H     0.05200   0.46280   0.92880   0.01267  Uiso   1.00
H6     H     0.90910   0.59770   0.92560   0.01267  Uiso   1.00
H7     H     0.89520   0.59090   0.74280   0.01267  Uiso   1.00
H8     H     0.81010   0.66290   0.79830   0.01267  Uiso   1.00
H9     H     0.01430   0.73530   0.85380   0.01267  Uiso   1.00
H10    H     0.26410   0.18850   0.68760   0.01267  Uiso   1.00
H11    H     0.33020   0.10690   0.74790   0.01267  Uiso   1.00
H12    H     0.33580   0.11110   0.56500   0.01267  Uiso   1.00
H13    H     0.44920   0.96280   0.67350   0.01267  Uiso   1.00
H14    H     0.44800   0.96280   0.57120   0.01267  Uiso   1.00
H15    H     0.59090   0.09770   0.57440   0.01267  Uiso   1.00
H16    H     0.60480   0.09090   0.75720   0.01267  Uiso   1.00
H17    H     0.68990   0.16290   0.70170   0.01267  Uiso   1.00
H18    H     0.48570   0.23530   0.64620   0.01267  Uiso   1.00
H19    H     0.76410   0.31150   0.18760   0.01267  Uiso   1.00
H20    H     0.83020   0.39310   0.24790   0.01267  Uiso   1.00
H21    H     0.83580   0.38890   0.06500   0.01267  Uiso   1.00
H22    H     0.94920   0.53720   0.17350   0.01267  Uiso   1.00
H23    H     0.94800   0.53720   0.07120   0.01267  Uiso   1.00
H24    H     0.09090   0.40230   0.07440   0.01267  Uiso   1.00
H25    H     0.10480   0.40910   0.25720   0.01267  Uiso   1.00
H26    H     0.18990   0.33710   0.20170   0.01267  Uiso   1.00
H27    H     0.98570   0.26470   0.14620   0.01267  Uiso   1.00
H28    H     0.73590   0.81150   0.31240   0.01267  Uiso   1.00
H29    H     0.66980   0.89310   0.25210   0.01267  Uiso   1.00
H30    H     0.66420   0.88890   0.43500   0.01267  Uiso   1.00
H31    H     0.55080   0.03720   0.32650   0.01267  Uiso   1.00
H32    H     0.55200   0.03720   0.42880   0.01267  Uiso   1.00
H33    H     0.40910   0.90230   0.42560   0.01267  Uiso   1.00
H34    H     0.39520   0.90910   0.24280   0.01267  Uiso   1.00
H35    H     0.31010   0.83710   0.29830   0.01267  Uiso   1.00
H36    H     0.51430   0.76470   0.35380   0.01267  Uiso   1.00
C1     C     0.15980   0.64230   0.80590   0.01267  Uiso   1.00
C2     C     0.16910   0.57290   0.88150   0.01267  Uiso   1.00
C3     C     0.04630   0.50390   0.87750   0.01267  Uiso   1.00
C4     C     0.90790   0.55750   0.87290   0.01267  Uiso   1.00
C5     C     0.89700   0.62700   0.79710   0.01267  Uiso   1.00
C6     C     0.01880   0.69710   0.80030   0.01267  Uiso   1.00
C7     C     0.30680   0.51840   0.88800   0.01267  Uiso   1.00
C8     C     0.78110   0.49140   0.87750   0.01267  Uiso   1.00
C9     C     0.00320   0.76530   0.72480   0.01267  Uiso   1.00
C10    C     0.34020   0.14230   0.69410   0.01267  Uiso   1.00
C11    C     0.33090   0.07290   0.61850   0.01267  Uiso   1.00
C12    C     0.45370   0.00390   0.62250   0.01267  Uiso   1.00
C13    C     0.59210   0.05750   0.62710   0.01267  Uiso   1.00
C14    C     0.60300   0.12700   0.70290   0.01267  Uiso   1.00
C15    C     0.48120   0.19710   0.69970   0.01267  Uiso   1.00
C16    C     0.19320   0.01840   0.61200   0.01267  Uiso   1.00
C17    C     0.71890   0.99140   0.62250   0.01267  Uiso   1.00
C18    C     0.49680   0.26530   0.77520   0.01267  Uiso   1.00
C19    C     0.84020   0.35770   0.19410   0.01267  Uiso   1.00
C20    C     0.83090   0.42710   0.11850   0.01267  Uiso   1.00
C21    C     0.95370   0.49610   0.12250   0.01267  Uiso   1.00
C22    C     0.09210   0.44250   0.12710   0.01267  Uiso   1.00
C23    C     0.10300   0.37300   0.20290   0.01267  Uiso   1.00
C24    C     0.98120   0.30290   0.19970   0.01267  Uiso   1.00
C25    C     0.69320   0.48160   0.11200   0.01267  Uiso   1.00
C26    C     0.21890   0.50860   0.12250   0.01267  Uiso   1.00
C27    C     0.99680   0.23470   0.27520   0.01267  Uiso   1.00
C28    C     0.65980   0.85770   0.30590   0.01267  Uiso   1.00
C29    C     0.66910   0.92710   0.38150   0.01267  Uiso   1.00
C30    C     0.54630   0.99610   0.37750   0.01267  Uiso   1.00
C31    C     0.40790   0.94250   0.37290   0.01267  Uiso   1.00
C32    C     0.39700   0.87300   0.29710   0.01267  Uiso   1.00
C33    C     0.51880   0.80290   0.30030   0.01267  Uiso   1.00
C34    C     0.80680   0.98160   0.38800   0.01267  Uiso   1.00
C35    C     0.28110   0.00860   0.37750   0.01267  Uiso   1.00
C36    C     0.50320   0.73470   0.22480   0.01267  Uiso   1.00
O1     O     0.39440   0.53720   0.95150   0.01267  Uiso   1.00
O2     O     0.33450   0.45510   0.83510   0.01267  Uiso   1.00
O3     O     0.66000   0.53020   0.86520   0.01267  Uiso   1.00
O4     O     0.79440   0.40530   0.89890   0.01267  Uiso   1.00
O5     O     0.92170   0.83670   0.73040   0.01267  Uiso   1.00
O6     O     0.06510   0.75110   0.65720   0.01267  Uiso   1.00
O7     O     0.10560   0.03720   0.54850   0.01267  Uiso   1.00
O8     O     0.16550   0.95510   0.66490   0.01267  Uiso   1.00
O9     O     0.84000   0.03020   0.63480   0.01267  Uiso   1.00
O10    O     0.70560   0.90530   0.60110   0.01267  Uiso   1.00
O11    O     0.57830   0.33670   0.76960   0.01267  Uiso   1.00
O12    O     0.43490   0.25110   0.84280   0.01267  Uiso   1.00
O13    O     0.60560   0.46280   0.04850   0.01267  Uiso   1.00
O14    O     0.66550   0.54490   0.16490   0.01267  Uiso   1.00
O15    O     0.34000   0.46980   0.13480   0.01267  Uiso   1.00
O16    O     0.20560   0.59470   0.10110   0.01267  Uiso   1.00
O17    O     0.07830   0.16330   0.26960   0.01267  Uiso   1.00
O18    O     0.93490   0.24890   0.34280   0.01267  Uiso   1.00
O19    O     0.89440   0.96280   0.45150   0.01267  Uiso   1.00
O20    O     0.83450   0.04490   0.33510   0.01267  Uiso   1.00
O21    O     0.16000   0.96980   0.36520   0.01267  Uiso   1.00
O22    O     0.29440   0.09470   0.39890   0.01267  Uiso   1.00
O23    O     0.42170   0.66330   0.23040   0.01267  Uiso   1.00
O24    O     0.56510   0.74890   0.15720   0.01267  Uiso   1.00
