data_COWMAD_clean
_audit_creation_date              2014-07-02
_audit_creation_method            'Materials Studio'
_symmetry_space_group_name_H-M    'P1'
_symmetry_Int_Tables_number       1
_symmetry_cell_setting            triclinic
loop_
_symmetry_equiv_pos_as_xyz
  x,y,z
_cell_length_a                    9.5983
_cell_length_b                    13.8789
_cell_length_c                    15.3443
_cell_angle_alpha                 90.0000
_cell_angle_beta                  93.4510
_cell_angle_gamma                 90.0000
loop_
_atom_site_label
_atom_site_type_symbol
_atom_site_fract_x
_atom_site_fract_y
_atom_site_fract_z
_atom_site_U_iso_or_equiv
_atom_site_adp_type
_atom_site_occupancy
Dy1    Dy    0.04247   0.88872   0.91421   0.01267  Uiso   1.00
Dy2    Dy    0.45753   0.38872   0.58579   0.01267  Uiso   1.00
Dy3    Dy    0.95753   0.11128   0.08579   0.01267  Uiso   1.00
Dy4    Dy    0.54247   0.61128   0.41421   0.01267  Uiso   1.00
H1     H     0.39550   0.09110   0.74310   0.01267  Uiso   1.00
H2     H     0.31030   0.16220   0.79900   0.01267  Uiso   1.00
H3     H     0.51540   0.23520   0.85530   0.01267  Uiso   1.00
H4     H     0.73580   0.18820   0.81220   0.01267  Uiso   1.00
H5     H     0.66830   0.10710   0.75200   0.01267  Uiso   1.00
H6     H     0.66270   0.11040   0.93630   0.01267  Uiso   1.00
H7     H     0.55210   0.96340   0.82580   0.01267  Uiso   1.00
H8     H     0.55220   0.96180   0.92810   0.01267  Uiso   1.00
H9     H     0.40940   0.09660   0.92550   0.01267  Uiso   1.00
H10    H     0.10450   0.59110   0.75690   0.01267  Uiso   1.00
H11    H     0.18970   0.66220   0.70100   0.01267  Uiso   1.00
H12    H     0.98460   0.73520   0.64470   0.01267  Uiso   1.00
H13    H     0.76420   0.68820   0.68780   0.01267  Uiso   1.00
H14    H     0.83170   0.60710   0.74800   0.01267  Uiso   1.00
H15    H     0.83730   0.61040   0.56370   0.01267  Uiso   1.00
H16    H     0.94790   0.46340   0.67420   0.01267  Uiso   1.00
H17    H     0.94780   0.46180   0.57190   0.01267  Uiso   1.00
H18    H     0.09060   0.59660   0.57450   0.01267  Uiso   1.00
H19    H     0.60450   0.90890   0.25690   0.01267  Uiso   1.00
H20    H     0.68970   0.83780   0.20100   0.01267  Uiso   1.00
H21    H     0.48460   0.76480   0.14470   0.01267  Uiso   1.00
H22    H     0.26420   0.81180   0.18780   0.01267  Uiso   1.00
H23    H     0.33170   0.89290   0.24800   0.01267  Uiso   1.00
H24    H     0.33730   0.88960   0.06370   0.01267  Uiso   1.00
H25    H     0.44790   0.03660   0.17420   0.01267  Uiso   1.00
H26    H     0.44780   0.03820   0.07190   0.01267  Uiso   1.00
H27    H     0.59060   0.90340   0.07450   0.01267  Uiso   1.00
H28    H     0.89550   0.40890   0.24310   0.01267  Uiso   1.00
H29    H     0.81030   0.33780   0.29900   0.01267  Uiso   1.00
H30    H     0.01540   0.26480   0.35530   0.01267  Uiso   1.00
H31    H     0.23580   0.31180   0.31220   0.01267  Uiso   1.00
H32    H     0.16830   0.39290   0.25200   0.01267  Uiso   1.00
H33    H     0.16270   0.38960   0.43630   0.01267  Uiso   1.00
H34    H     0.05210   0.53660   0.32580   0.01267  Uiso   1.00
H35    H     0.05220   0.53820   0.42810   0.01267  Uiso   1.00
H36    H     0.90940   0.40340   0.42550   0.01267  Uiso   1.00
C1     C     0.39700   0.12650   0.79760   0.01267  Uiso   1.00
C2     C     0.51960   0.19710   0.80180   0.01267  Uiso   1.00
C3     C     0.65940   0.14250   0.80600   0.01267  Uiso   1.00
C4     C     0.66810   0.07270   0.88260   0.01267  Uiso   1.00
C5     C     0.54670   0.00350   0.87720   0.01267  Uiso   1.00
C6     C     0.40790   0.05680   0.87270   0.01267  Uiso   1.00
C7     C     0.28090   0.99110   0.87770   0.01267  Uiso   1.00
C8     C     0.50370   0.26540   0.72440   0.01267  Uiso   1.00
C9     C     0.80590   0.01870   0.88820   0.01267  Uiso   1.00
C10    C     0.10300   0.62650   0.70240   0.01267  Uiso   1.00
C11    C     0.98040   0.69710   0.69820   0.01267  Uiso   1.00
C12    C     0.84060   0.64250   0.69400   0.01267  Uiso   1.00
C13    C     0.83190   0.57270   0.61740   0.01267  Uiso   1.00
C14    C     0.95330   0.50350   0.62280   0.01267  Uiso   1.00
C15    C     0.09210   0.55680   0.62730   0.01267  Uiso   1.00
C16    C     0.21910   0.49110   0.62230   0.01267  Uiso   1.00
C17    C     0.99630   0.76540   0.77560   0.01267  Uiso   1.00
C18    C     0.69410   0.51870   0.61180   0.01267  Uiso   1.00
C19    C     0.60300   0.87350   0.20240   0.01267  Uiso   1.00
C20    C     0.48040   0.80290   0.19820   0.01267  Uiso   1.00
C21    C     0.34060   0.85750   0.19400   0.01267  Uiso   1.00
C22    C     0.33190   0.92730   0.11740   0.01267  Uiso   1.00
C23    C     0.45330   0.99650   0.12280   0.01267  Uiso   1.00
C24    C     0.59210   0.94320   0.12730   0.01267  Uiso   1.00
C25    C     0.71910   0.00890   0.12230   0.01267  Uiso   1.00
C26    C     0.49630   0.73460   0.27560   0.01267  Uiso   1.00
C27    C     0.19410   0.98130   0.11180   0.01267  Uiso   1.00
C28    C     0.89700   0.37350   0.29760   0.01267  Uiso   1.00
C29    C     0.01960   0.30290   0.30180   0.01267  Uiso   1.00
C30    C     0.15940   0.35750   0.30600   0.01267  Uiso   1.00
C31    C     0.16810   0.42730   0.38260   0.01267  Uiso   1.00
C32    C     0.04670   0.49650   0.37720   0.01267  Uiso   1.00
C33    C     0.90790   0.44320   0.37270   0.01267  Uiso   1.00
C34    C     0.78090   0.50890   0.37770   0.01267  Uiso   1.00
C35    C     0.00370   0.23460   0.22440   0.01267  Uiso   1.00
C36    C     0.30590   0.48130   0.38820   0.01267  Uiso   1.00
O1     O     0.29500   0.90550   0.89750   0.01267  Uiso   1.00
O2     O     0.16090   0.02980   0.86470   0.01267  Uiso   1.00
O3     O     0.89380   0.03750   0.95070   0.01267  Uiso   1.00
O4     O     0.83260   0.95560   0.83480   0.01267  Uiso   1.00
O5     O     0.42290   0.33620   0.73240   0.01267  Uiso   1.00
O6     O     0.56610   0.25210   0.65780   0.01267  Uiso   1.00
O7     O     0.20500   0.40550   0.60250   0.01267  Uiso   1.00
O8     O     0.33910   0.52980   0.63530   0.01267  Uiso   1.00
O9     O     0.60620   0.53750   0.54930   0.01267  Uiso   1.00
O10    O     0.66740   0.45560   0.66520   0.01267  Uiso   1.00
O11    O     0.07710   0.83620   0.76760   0.01267  Uiso   1.00
O12    O     0.93390   0.75210   0.84220   0.01267  Uiso   1.00
O13    O     0.70500   0.09450   0.10250   0.01267  Uiso   1.00
O14    O     0.83910   0.97020   0.13530   0.01267  Uiso   1.00
O15    O     0.10620   0.96250   0.04930   0.01267  Uiso   1.00
O16    O     0.16740   0.04440   0.16520   0.01267  Uiso   1.00
O17    O     0.57710   0.66380   0.26760   0.01267  Uiso   1.00
O18    O     0.43390   0.74790   0.34220   0.01267  Uiso   1.00
O19    O     0.79500   0.59450   0.39750   0.01267  Uiso   1.00
O20    O     0.66090   0.47020   0.36470   0.01267  Uiso   1.00
O21    O     0.39380   0.46250   0.45070   0.01267  Uiso   1.00
O22    O     0.33260   0.54440   0.33480   0.01267  Uiso   1.00
O23    O     0.92290   0.16380   0.23240   0.01267  Uiso   1.00
O24    O     0.06610   0.24790   0.15780   0.01267  Uiso   1.00
