data_COWMOR_clean
_audit_creation_date              2014-07-02
_audit_creation_method            'Materials Studio'
_symmetry_space_group_name_H-M    'P1'
_symmetry_Int_Tables_number       1
_symmetry_cell_setting            triclinic
loop_
_symmetry_equiv_pos_as_xyz
  x,y,z
_cell_length_a                    9.5631
_cell_length_b                    13.8741
_cell_length_c                    15.3000
_cell_angle_alpha                 90.0000
_cell_angle_beta                  93.3820
_cell_angle_gamma                 90.0000
loop_
_atom_site_label
_atom_site_type_symbol
_atom_site_fract_x
_atom_site_fract_y
_atom_site_fract_z
_atom_site_U_iso_or_equiv
_atom_site_adp_type
_atom_site_occupancy
Er1    Er    0.54267   0.88905   0.91423   0.01267  Uiso   1.00
Er2    Er    0.95733   0.38905   0.58577   0.01267  Uiso   1.00
Er3    Er    0.45733   0.11095   0.08577   0.01267  Uiso   1.00
Er4    Er    0.04267   0.61095   0.41423   0.01267  Uiso   1.00
H1     H     0.23700   0.18870   0.81160   0.01267  Uiso   1.00
H2     H     0.16940   0.10700   0.75200   0.01267  Uiso   1.00
H3     H     0.01310   0.23500   0.85560   0.01267  Uiso   1.00
H4     H     0.80890   0.16530   0.79510   0.01267  Uiso   1.00
H5     H     0.89540   0.09470   0.73880   0.01267  Uiso   1.00
H6     H     0.90710   0.09550   0.92500   0.01267  Uiso   1.00
H7     H     0.05270   0.96270   0.92840   0.01267  Uiso   1.00
H8     H     0.05330   0.96370   0.82590   0.01267  Uiso   1.00
H9     H     0.16430   0.11230   0.93630   0.01267  Uiso   1.00
H10    H     0.26300   0.68870   0.68840   0.01267  Uiso   1.00
H11    H     0.33060   0.60700   0.74800   0.01267  Uiso   1.00
H12    H     0.48690   0.73500   0.64440   0.01267  Uiso   1.00
H13    H     0.69110   0.66530   0.70490   0.01267  Uiso   1.00
H14    H     0.60460   0.59470   0.76120   0.01267  Uiso   1.00
H15    H     0.59290   0.59550   0.57500   0.01267  Uiso   1.00
H16    H     0.44730   0.46270   0.57160   0.01267  Uiso   1.00
H17    H     0.44670   0.46370   0.67410   0.01267  Uiso   1.00
H18    H     0.33570   0.61230   0.56370   0.01267  Uiso   1.00
H19    H     0.76300   0.81130   0.18840   0.01267  Uiso   1.00
H20    H     0.83060   0.89300   0.24800   0.01267  Uiso   1.00
H21    H     0.98690   0.76500   0.14440   0.01267  Uiso   1.00
H22    H     0.19110   0.83470   0.20490   0.01267  Uiso   1.00
H23    H     0.10460   0.90530   0.26120   0.01267  Uiso   1.00
H24    H     0.09290   0.90450   0.07500   0.01267  Uiso   1.00
H25    H     0.94730   0.03730   0.07160   0.01267  Uiso   1.00
H26    H     0.94670   0.03630   0.17410   0.01267  Uiso   1.00
H27    H     0.83570   0.88770   0.06370   0.01267  Uiso   1.00
H28    H     0.73700   0.31130   0.31160   0.01267  Uiso   1.00
H29    H     0.66940   0.39300   0.25200   0.01267  Uiso   1.00
H30    H     0.51310   0.26500   0.35560   0.01267  Uiso   1.00
H31    H     0.30890   0.33470   0.29510   0.01267  Uiso   1.00
H32    H     0.39540   0.40530   0.23880   0.01267  Uiso   1.00
H33    H     0.40710   0.40450   0.42500   0.01267  Uiso   1.00
H34    H     0.55270   0.53730   0.42840   0.01267  Uiso   1.00
H35    H     0.55330   0.53630   0.32590   0.01267  Uiso   1.00
H36    H     0.66430   0.38770   0.43630   0.01267  Uiso   1.00
C1     C     0.16060   0.14280   0.80590   0.01267  Uiso   1.00
C2     C     0.01890   0.19740   0.80170   0.01267  Uiso   1.00
C3     C     0.89560   0.12920   0.79390   0.01267  Uiso   1.00
C4     C     0.90620   0.05560   0.87220   0.01267  Uiso   1.00
C5     C     0.04690   0.00420   0.87720   0.01267  Uiso   1.00
C6     C     0.16960   0.07430   0.88260   0.01267  Uiso   1.00
C7     C     0.30660   0.01950   0.88810   0.01267  Uiso   1.00
C8     C     0.00370   0.26520   0.72480   0.01267  Uiso   1.00
C9     C     0.78050   0.99120   0.87740   0.01267  Uiso   1.00
C10    C     0.33940   0.64280   0.69410   0.01267  Uiso   1.00
C11    C     0.48110   0.69740   0.69830   0.01267  Uiso   1.00
C12    C     0.60440   0.62920   0.70610   0.01267  Uiso   1.00
C13    C     0.59380   0.55560   0.62780   0.01267  Uiso   1.00
C14    C     0.45310   0.50420   0.62280   0.01267  Uiso   1.00
C15    C     0.33040   0.57430   0.61740   0.01267  Uiso   1.00
C16    C     0.19340   0.51950   0.61190   0.01267  Uiso   1.00
C17    C     0.49630   0.76520   0.77520   0.01267  Uiso   1.00
C18    C     0.71950   0.49120   0.62260   0.01267  Uiso   1.00
C19    C     0.83940   0.85720   0.19410   0.01267  Uiso   1.00
C20    C     0.98110   0.80260   0.19830   0.01267  Uiso   1.00
C21    C     0.10440   0.87080   0.20610   0.01267  Uiso   1.00
C22    C     0.09380   0.94440   0.12780   0.01267  Uiso   1.00
C23    C     0.95310   0.99580   0.12280   0.01267  Uiso   1.00
C24    C     0.83040   0.92570   0.11740   0.01267  Uiso   1.00
C25    C     0.69340   0.98050   0.11190   0.01267  Uiso   1.00
C26    C     0.99630   0.73480   0.27520   0.01267  Uiso   1.00
C27    C     0.21950   0.00880   0.12260   0.01267  Uiso   1.00
C28    C     0.66060   0.35720   0.30590   0.01267  Uiso   1.00
C29    C     0.51890   0.30260   0.30170   0.01267  Uiso   1.00
C30    C     0.39560   0.37080   0.29390   0.01267  Uiso   1.00
C31    C     0.40620   0.44440   0.37220   0.01267  Uiso   1.00
C32    C     0.54690   0.49580   0.37720   0.01267  Uiso   1.00
C33    C     0.66960   0.42570   0.38260   0.01267  Uiso   1.00
C34    C     0.80660   0.48050   0.38810   0.01267  Uiso   1.00
C35    C     0.50370   0.23480   0.22480   0.01267  Uiso   1.00
C36    C     0.28050   0.50880   0.37740   0.01267  Uiso   1.00
O1     O     0.33600   0.95570   0.83480   0.01267  Uiso   1.00
O2     O     0.39420   0.03750   0.95170   0.01267  Uiso   1.00
O3     O     0.06760   0.25370   0.65600   0.01267  Uiso   1.00
O4     O     0.92230   0.33670   0.73040   0.01267  Uiso   1.00
O5     O     0.79390   0.90570   0.89880   0.01267  Uiso   1.00
O6     O     0.65880   0.02910   0.86350   0.01267  Uiso   1.00
O7     O     0.16400   0.45570   0.66520   0.01267  Uiso   1.00
O8     O     0.10580   0.53750   0.54830   0.01267  Uiso   1.00
O9     O     0.43240   0.75370   0.84400   0.01267  Uiso   1.00
O10    O     0.57770   0.83670   0.76960   0.01267  Uiso   1.00
O11    O     0.70610   0.40570   0.60120   0.01267  Uiso   1.00
O12    O     0.84120   0.52910   0.63650   0.01267  Uiso   1.00
O13    O     0.66400   0.04430   0.16520   0.01267  Uiso   1.00
O14    O     0.60580   0.96250   0.04830   0.01267  Uiso   1.00
O15    O     0.93240   0.74630   0.34400   0.01267  Uiso   1.00
O16    O     0.07770   0.66330   0.26960   0.01267  Uiso   1.00
O17    O     0.20610   0.09430   0.10120   0.01267  Uiso   1.00
O18    O     0.34120   0.97090   0.13650   0.01267  Uiso   1.00
O19    O     0.83600   0.54430   0.33480   0.01267  Uiso   1.00
O20    O     0.89420   0.46250   0.45170   0.01267  Uiso   1.00
O21    O     0.56760   0.24630   0.15600   0.01267  Uiso   1.00
O22    O     0.42230   0.16330   0.23040   0.01267  Uiso   1.00
O23    O     0.29390   0.59430   0.39880   0.01267  Uiso   1.00
O24    O     0.15880   0.47090   0.36350   0.01267  Uiso   1.00
