data_image0
_cell_length_a       16.7033
_cell_length_b       20.0195
_cell_length_c       17.4602
_cell_angle_alpha    90
_cell_angle_beta     100.423
_cell_angle_gamma    90

_symmetry_space_group_name_H-M    "P 1"
_symmetry_int_tables_number       1

loop_
  _symmetry_equiv_pos_as_xyz
  'x, y, z'

loop_
  _atom_site_label
  _atom_site_occupancy
  _atom_site_fract_x
  _atom_site_fract_y
  _atom_site_fract_z
  _atom_site_thermal_displace_type
  _atom_site_B_iso_or_equiv
  _atom_site_type_symbol
  Co1      1.0000 0.97583  0.33010  0.74861  Biso   1.000  Co
  Co2      1.0000 0.87669  0.37450  0.55576  Biso   1.000  Co
  Co3      1.0000 0.09087  0.34918  0.94262  Biso   1.000  Co
  S1       1.0000 0.03806  0.72495  0.76686  Biso   1.000  S
  S2       1.0000 0.04208  0.93309  0.84508  Biso   1.000  S
  S3       1.0000 0.61128  0.48469  0.95687  Biso   1.000  S
  O1       1.0000 0.01520  0.25460  0.82830  Biso   1.000  O
  O2       1.0000 0.94330  0.41535  0.68100  Biso   1.000  O
  O3       1.0000 0.49400  0.23490  0.15580  Biso   1.000  O
  O4       1.0000 0.40180  0.86210  0.74760  Biso   1.000  O
  O5       1.0000 0.64970  0.80494  0.75870  Biso   1.000  O
  O6       1.0000 0.96490  0.38640  0.85910  Biso   1.000  O
  O7       1.0000 0.45440  0.19950  0.03550  Biso   1.000  O
  O8       1.0000 0.69600  0.81960  0.88370  Biso   1.000  O
  O9       1.0000 0.97570  0.44790  0.57030  Biso   1.000  O
  O10      1.0000 0.08640  0.24868  0.94320  Biso   1.000  O
  O11      1.0000 0.33550  0.88300  0.63140  Biso   1.000  O
  O12      1.0000 0.99560  0.39760  0.98360  Biso   1.000  O
  O13      1.0000 0.08700  0.72350  0.84110  Biso   1.000  O
  O14      1.0000 0.06140  0.76414  0.70590  Biso   1.000  O
  O15      1.0000 0.97320  0.91860  0.78900  Biso   1.000  O
  O16      1.0000 0.05010  0.90420  0.92040  Biso   1.000  O
  O17      1.0000 0.61410  0.53295  0.01640  Biso   1.000  O
  O18      1.0000 0.56700  0.49677  0.88230  Biso   1.000  O
  C1       1.0000 0.97300  0.45710  0.64170  Biso   1.000  C
  C2       1.0000 0.99790  0.52130  0.67480  Biso   1.000  C
  C3       1.0000 0.00410  0.53290  0.75330  Biso   1.000  C
  H1       1.0000 0.99750  0.49770  0.78630  Biso   1.000  H
  C4       1.0000 0.01940  0.59450  0.78260  Biso   1.000  C
  H2       1.0000 0.02500  0.60270  0.83570  Biso   1.000  H
  C5       1.0000 0.02660  0.64440  0.73130  Biso   1.000  C
  C6       1.0000 0.02190  0.63350  0.65310  Biso   1.000  C
  H3       1.0000 0.02770  0.66870  0.61980  Biso   1.000  H
  C7       1.0000 0.00870  0.57160  0.62600  Biso   1.000  C
  H4       1.0000 0.00700  0.56290  0.57340  Biso   1.000  H
  C8       1.0000 0.93970  0.74770  0.78070  Biso   1.000  C
  C9       1.0000 0.92300  0.75890  0.85490  Biso   1.000  C
  H5       1.0000 0.96430  0.75380  0.89800  Biso   1.000  H
  C10      1.0000 0.84690  0.77730  0.86570  Biso   1.000  C
  H6       1.0000 0.83650  0.78520  0.91540  Biso   1.000  H
  C11      1.0000 0.78720  0.78400  0.80260  Biso   1.000  C
  C12      1.0000 0.80560  0.77310  0.72910  Biso   1.000  C
  H7       1.0000 0.76460  0.77830  0.68580  Biso   1.000  H
  C13      1.0000 0.88150  0.75500  0.71800  Biso   1.000  C
  H8       1.0000 0.89230  0.74800  0.66820  Biso   1.000  H
  C14      1.0000 0.70410  0.80460  0.81570  Biso   1.000  C
  C15      1.0000 0.05050  0.22300  0.88230  Biso   1.000  C
  C16      1.0000 0.05020  0.15140  0.87510  Biso   1.000  C
  C17      1.0000 0.01790  0.12340  0.80530  Biso   1.000  C
  H9       1.0000 0.99680  0.15080  0.76350  Biso   1.000  H
  C18      1.0000 0.01600  0.05740  0.79570  Biso   1.000  C
  H10      1.0000 0.99430  0.03850  0.74780  Biso   1.000  H
  C19      1.0000 0.04630  0.01880  0.85730  Biso   1.000  C
  C20      1.0000 0.07760  0.04430  0.92620  Biso   1.000  C
  H11      1.0000 0.09750  0.01660  0.96800  Biso   1.000  H
  C21      1.0000 0.08000  0.11140  0.93450  Biso   1.000  C
  H12      1.0000 0.10280  0.12990  0.98230  Biso   1.000  H
  C22      1.0000 0.12950  0.91500  0.80300  Biso   1.000  C
  C23      1.0000 0.12840  0.92420  0.72510  Biso   1.000  C
  H13      1.0000 0.08100  0.93930  0.69360  Biso   1.000  H
  C24      1.0000 0.19630  0.91160  0.69240  Biso   1.000  C
  H14      1.0000 0.19400  0.91720  0.63920  Biso   1.000  H
  C25      1.0000 0.26600  0.89110  0.73790  Biso   1.000  C
  C26      1.0000 0.26430  0.88140  0.81560  Biso   1.000  C
  H15      1.0000 0.31140  0.86620  0.84760  Biso   1.000  H
  C27      1.0000 0.19640  0.89310  0.84880  Biso   1.000  C
  H16      1.0000 0.19770  0.88580  0.90160  Biso   1.000  H
  C28      1.0000 0.34050  0.87780  0.70350  Biso   1.000  C
  C29      1.0000 0.94660  0.40220  0.92250  Biso   1.000  C
  C30      1.0000 0.86390  0.42690  0.92840  Biso   1.000  C
  C31      1.0000 0.84930  0.45760  0.99620  Biso   1.000  C
  H17      1.0000 0.89250  0.46510  0.03690  Biso   1.000  H
  C32      1.0000 0.77270  0.47700  0.00390  Biso   1.000  C
  H18      1.0000 0.76360  0.49800  0.04900  Biso   1.000  H
  C33      1.0000 0.71120  0.46490  0.94490  Biso   1.000  C
  C34      1.0000 0.72540  0.43510  0.87700  Biso   1.000  C
  H19      1.0000 0.68220  0.42760  0.83620  Biso   1.000  H
  C35      1.0000 0.80260  0.41660  0.86950  Biso   1.000  C
  H20      1.0000 0.81200  0.39700  0.82360  Biso   1.000  H
  C36      1.0000 0.57520  0.41270  0.99340  Biso   1.000  C
  C37      1.0000 0.58380  0.40300  0.07210  Biso   1.000  C
  H21      1.0000 0.60930  0.43550  0.10610  Biso   1.000  H
  C38      1.0000 0.55580  0.34700  0.10090  Biso   1.000  C
  H22      1.0000 0.56190  0.34090  0.15440  Biso   1.000  H
  C39      1.0000 0.51920  0.30030  0.05180  Biso   1.000  C
  C40      1.0000 0.51080  0.31040  0.97240  Biso   1.000  C
  H23      1.0000 0.48560  0.27780  0.93850  Biso   1.000  H
  C41      1.0000 0.53830  0.36680  0.94300  Biso   1.000  C
  H24      1.0000 0.53190  0.37350  0.88950  Biso   1.000  H
  C42      1.0000 0.48720  0.23940  0.08420  Biso   1.000  C
  Co4      1.0000 0.52417  0.83010  0.75139  Biso   1.000  Co
  Co5      1.0000 0.62331  0.87450  0.94424  Biso   1.000  Co
  Co6      1.0000 0.40913  0.84918  0.55738  Biso   1.000  Co
  S4       1.0000 0.46194  0.22495  0.73314  Biso   1.000  S
  S5       1.0000 0.45792  0.43309  0.65492  Biso   1.000  S
  S6       1.0000 0.88872  0.98469  0.54313  Biso   1.000  S
  O19      1.0000 0.48480  0.75460  0.67170  Biso   1.000  O
  O20      1.0000 0.55670  0.91535  0.81900  Biso   1.000  O
  O21      1.0000 0.00600  0.73490  0.34420  Biso   1.000  O
  O22      1.0000 0.09820  0.36210  0.75240  Biso   1.000  O
  O23      1.0000 0.85030  0.30494  0.74130  Biso   1.000  O
  O24      1.0000 0.53510  0.88640  0.64090  Biso   1.000  O
  O25      1.0000 0.04560  0.69950  0.46450  Biso   1.000  O
  O26      1.0000 0.80400  0.31960  0.61630  Biso   1.000  O
  O27      1.0000 0.52430  0.94790  0.92970  Biso   1.000  O
  O28      1.0000 0.41360  0.74868  0.55680  Biso   1.000  O
  O29      1.0000 0.16450  0.38300  0.86860  Biso   1.000  O
  O30      1.0000 0.50440  0.89760  0.51640  Biso   1.000  O
  O31      1.0000 0.41300  0.22350  0.65890  Biso   1.000  O
  O32      1.0000 0.43860  0.26414  0.79410  Biso   1.000  O
  O33      1.0000 0.52680  0.41860  0.71100  Biso   1.000  O
  O34      1.0000 0.44990  0.40420  0.57960  Biso   1.000  O
  O35      1.0000 0.88590  0.03295  0.48360  Biso   1.000  O
  O36      1.0000 0.93300  0.99677  0.61770  Biso   1.000  O
  C43      1.0000 0.52700  0.95710  0.85830  Biso   1.000  C
  C44      1.0000 0.50210  0.02130  0.82520  Biso   1.000  C
  C45      1.0000 0.49590  0.03290  0.74670  Biso   1.000  C
  H25      1.0000 0.50250  0.99770  0.71370  Biso   1.000  H
  C46      1.0000 0.48060  0.09450  0.71740  Biso   1.000  C
  H26      1.0000 0.47500  0.10270  0.66430  Biso   1.000  H
  C47      1.0000 0.47340  0.14440  0.76870  Biso   1.000  C
  C48      1.0000 0.47810  0.13350  0.84690  Biso   1.000  C
  H27      1.0000 0.47230  0.16870  0.88020  Biso   1.000  H
  C49      1.0000 0.49130  0.07160  0.87400  Biso   1.000  C
  H28      1.0000 0.49300  0.06290  0.92660  Biso   1.000  H
  C50      1.0000 0.56030  0.24770  0.71930  Biso   1.000  C
  C51      1.0000 0.57700  0.25890  0.64510  Biso   1.000  C
  H29      1.0000 0.53570  0.25380  0.60200  Biso   1.000  H
  C52      1.0000 0.65310  0.27730  0.63430  Biso   1.000  C
  H30      1.0000 0.66350  0.28520  0.58460  Biso   1.000  H
  C53      1.0000 0.71280  0.28400  0.69740  Biso   1.000  C
  C54      1.0000 0.69440  0.27310  0.77090  Biso   1.000  C
  H31      1.0000 0.73540  0.27830  0.81420  Biso   1.000  H
  C55      1.0000 0.61850  0.25500  0.78200  Biso   1.000  C
  H32      1.0000 0.60770  0.24800  0.83180  Biso   1.000  H
  C56      1.0000 0.79590  0.30460  0.68430  Biso   1.000  C
  C57      1.0000 0.44950  0.72300  0.61770  Biso   1.000  C
  C58      1.0000 0.44980  0.65140  0.62490  Biso   1.000  C
  C59      1.0000 0.48210  0.62340  0.69470  Biso   1.000  C
  H33      1.0000 0.50320  0.65080  0.73650  Biso   1.000  H
  C60      1.0000 0.48400  0.55740  0.70430  Biso   1.000  C
  H34      1.0000 0.50570  0.53850  0.75220  Biso   1.000  H
  C61      1.0000 0.45370  0.51880  0.64270  Biso   1.000  C
  C62      1.0000 0.42240  0.54430  0.57380  Biso   1.000  C
  H35      1.0000 0.40250  0.51660  0.53200  Biso   1.000  H
  C63      1.0000 0.42000  0.61140  0.56550  Biso   1.000  C
  H36      1.0000 0.39720  0.62990  0.51770  Biso   1.000  H
  C64      1.0000 0.37050  0.41500  0.69700  Biso   1.000  C
  C65      1.0000 0.37160  0.42420  0.77490  Biso   1.000  C
  H37      1.0000 0.41900  0.43930  0.80640  Biso   1.000  H
  C66      1.0000 0.30370  0.41160  0.80760  Biso   1.000  C
  H38      1.0000 0.30600  0.41720  0.86080  Biso   1.000  H
  C67      1.0000 0.23400  0.39110  0.76210  Biso   1.000  C
  C68      1.0000 0.23570  0.38140  0.68440  Biso   1.000  C
  H39      1.0000 0.18860  0.36620  0.65240  Biso   1.000  H
  C69      1.0000 0.30360  0.39310  0.65120  Biso   1.000  C
  H40      1.0000 0.30230  0.38580  0.59840  Biso   1.000  H
  C70      1.0000 0.15950  0.37780  0.79650  Biso   1.000  C
  C71      1.0000 0.55340  0.90220  0.57750  Biso   1.000  C
  C72      1.0000 0.63610  0.92690  0.57160  Biso   1.000  C
  C73      1.0000 0.65070  0.95760  0.50380  Biso   1.000  C
  H41      1.0000 0.60750  0.96510  0.46310  Biso   1.000  H
  C74      1.0000 0.72730  0.97700  0.49610  Biso   1.000  C
  H42      1.0000 0.73640  0.99800  0.45100  Biso   1.000  H
  C75      1.0000 0.78880  0.96490  0.55510  Biso   1.000  C
  C76      1.0000 0.77460  0.93510  0.62300  Biso   1.000  C
  H43      1.0000 0.81780  0.92760  0.66380  Biso   1.000  H
  C77      1.0000 0.69740  0.91660  0.63050  Biso   1.000  C
  H44      1.0000 0.68800  0.89700  0.67640  Biso   1.000  H
  C78      1.0000 0.92480  0.91270  0.50660  Biso   1.000  C
  C79      1.0000 0.91620  0.90300  0.42790  Biso   1.000  C
  H45      1.0000 0.89070  0.93550  0.39390  Biso   1.000  H
  C80      1.0000 0.94420  0.84700  0.39910  Biso   1.000  C
  H46      1.0000 0.93810  0.84090  0.34560  Biso   1.000  H
  C81      1.0000 0.98080  0.80030  0.44820  Biso   1.000  C
  C82      1.0000 0.98920  0.81040  0.52760  Biso   1.000  C
  H47      1.0000 0.01440  0.77780  0.56150  Biso   1.000  H
  C83      1.0000 0.96170  0.86680  0.55700  Biso   1.000  C
  H48      1.0000 0.96810  0.87350  0.61050  Biso   1.000  H
  C84      1.0000 0.01280  0.73940  0.41580  Biso   1.000  C
  Co7      1.0000 0.02417  0.66990  0.25139  Biso   1.000  Co
  Co8      1.0000 0.12331  0.62550  0.44424  Biso   1.000  Co
  Co9      1.0000 0.90913  0.65082  0.05738  Biso   1.000  Co
  S7       1.0000 0.96194  0.27505  0.23314  Biso   1.000  S
  S8       1.0000 0.95792  0.06691  0.15492  Biso   1.000  S
  S9       1.0000 0.38872  0.51531  0.04313  Biso   1.000  S
  O37      1.0000 0.98480  0.74540  0.17170  Biso   1.000  O
  O38      1.0000 0.05670  0.58465  0.31900  Biso   1.000  O
  O39      1.0000 0.50600  0.76510  0.84420  Biso   1.000  O
  O40      1.0000 0.59820  0.13790  0.25240  Biso   1.000  O
  O41      1.0000 0.35030  0.19506  0.24130  Biso   1.000  O
  O42      1.0000 0.03510  0.61360  0.14090  Biso   1.000  O
  O43      1.0000 0.54560  0.80050  0.96450  Biso   1.000  O
  O44      1.0000 0.30400  0.18040  0.11630  Biso   1.000  O
  O45      1.0000 0.02430  0.55210  0.42970  Biso   1.000  O
  O46      1.0000 0.91360  0.75132  0.05680  Biso   1.000  O
  O47      1.0000 0.66450  0.11700  0.36860  Biso   1.000  O
  O48      1.0000 0.00440  0.60240  0.01640  Biso   1.000  O
  O49      1.0000 0.91300  0.27650  0.15890  Biso   1.000  O
  O50      1.0000 0.93860  0.23586  0.29410  Biso   1.000  O
  O51      1.0000 0.02680  0.08140  0.21100  Biso   1.000  O
  O52      1.0000 0.94990  0.09580  0.07960  Biso   1.000  O
  O53      1.0000 0.38590  0.46705  0.98360  Biso   1.000  O
  O54      1.0000 0.43300  0.50323  0.11770  Biso   1.000  O
  C85      1.0000 0.02700  0.54290  0.35830  Biso   1.000  C
  C86      1.0000 0.00210  0.47870  0.32520  Biso   1.000  C
  C87      1.0000 0.99590  0.46710  0.24670  Biso   1.000  C
  H49      1.0000 0.00250  0.50230  0.21370  Biso   1.000  H
  C88      1.0000 0.98060  0.40550  0.21740  Biso   1.000  C
  H50      1.0000 0.97500  0.39730  0.16430  Biso   1.000  H
  C89      1.0000 0.97340  0.35560  0.26870  Biso   1.000  C
  C90      1.0000 0.97810  0.36650  0.34690  Biso   1.000  C
  H51      1.0000 0.97230  0.33130  0.38020  Biso   1.000  H
  C91      1.0000 0.99130  0.42840  0.37400  Biso   1.000  C
  H52      1.0000 0.99300  0.43710  0.42660  Biso   1.000  H
  C92      1.0000 0.06030  0.25230  0.21930  Biso   1.000  C
  C93      1.0000 0.07700  0.24110  0.14510  Biso   1.000  C
  H53      1.0000 0.03570  0.24620  0.10200  Biso   1.000  H
  C94      1.0000 0.15310  0.22270  0.13430  Biso   1.000  C
  H54      1.0000 0.16350  0.21480  0.08460  Biso   1.000  H
  C95      1.0000 0.21280  0.21600  0.19740  Biso   1.000  C
  C96      1.0000 0.19440  0.22690  0.27090  Biso   1.000  C
  H55      1.0000 0.23540  0.22170  0.31420  Biso   1.000  H
  C97      1.0000 0.11850  0.24500  0.28200  Biso   1.000  C
  H56      1.0000 0.10770  0.25200  0.33180  Biso   1.000  H
  C98      1.0000 0.29590  0.19540  0.18430  Biso   1.000  C
  C99      1.0000 0.94950  0.77700  0.11770  Biso   1.000  C
  C100     1.0000 0.94980  0.84860  0.12490  Biso   1.000  C
  C101     1.0000 0.98210  0.87660  0.19470  Biso   1.000  C
  H57      1.0000 0.00320  0.84920  0.23650  Biso   1.000  H
  C102     1.0000 0.98400  0.94260  0.20430  Biso   1.000  C
  H58      1.0000 0.00570  0.96150  0.25220  Biso   1.000  H
  C103     1.0000 0.95370  0.98120  0.14270  Biso   1.000  C
  C104     1.0000 0.92240  0.95570  0.07380  Biso   1.000  C
  H59      1.0000 0.90250  0.98340  0.03200  Biso   1.000  H
  C105     1.0000 0.92000  0.88860  0.06550  Biso   1.000  C
  H60      1.0000 0.89720  0.87010  0.01770  Biso   1.000  H
  C106     1.0000 0.87050  0.08500  0.19700  Biso   1.000  C
  C107     1.0000 0.87160  0.07580  0.27490  Biso   1.000  C
  H61      1.0000 0.91900  0.06070  0.30640  Biso   1.000  H
  C108     1.0000 0.80370  0.08840  0.30760  Biso   1.000  C
  H62      1.0000 0.80600  0.08280  0.36080  Biso   1.000  H
  C109     1.0000 0.73400  0.10890  0.26210  Biso   1.000  C
  C110     1.0000 0.73570  0.11860  0.18440  Biso   1.000  C
  H63      1.0000 0.68860  0.13380  0.15240  Biso   1.000  H
  C111     1.0000 0.80360  0.10690  0.15120  Biso   1.000  C
  H64      1.0000 0.80230  0.11420  0.09840  Biso   1.000  H
  C112     1.0000 0.65950  0.12220  0.29650  Biso   1.000  C
  C113     1.0000 0.05340  0.59780  0.07750  Biso   1.000  C
  C114     1.0000 0.13610  0.57310  0.07160  Biso   1.000  C
  C115     1.0000 0.15070  0.54240  0.00380  Biso   1.000  C
  H65      1.0000 0.10750  0.53490  0.96310  Biso   1.000  H
  C116     1.0000 0.22730  0.52300  0.99610  Biso   1.000  C
  H66      1.0000 0.23640  0.50200  0.95100  Biso   1.000  H
  C117     1.0000 0.28880  0.53510  0.05510  Biso   1.000  C
  C118     1.0000 0.27460  0.56490  0.12300  Biso   1.000  C
  H67      1.0000 0.31780  0.57240  0.16380  Biso   1.000  H
  C119     1.0000 0.19740  0.58340  0.13050  Biso   1.000  C
  H68      1.0000 0.18800  0.60300  0.17640  Biso   1.000  H
  C120     1.0000 0.42480  0.58730  0.00660  Biso   1.000  C
  C121     1.0000 0.41620  0.59700  0.92790  Biso   1.000  C
  H69      1.0000 0.39070  0.56450  0.89390  Biso   1.000  H
  C122     1.0000 0.44420  0.65300  0.89910  Biso   1.000  C
  H70      1.0000 0.43810  0.65910  0.84560  Biso   1.000  H
  C123     1.0000 0.48080  0.69970  0.94820  Biso   1.000  C
  C124     1.0000 0.48920  0.68960  0.02760  Biso   1.000  C
  H71      1.0000 0.51440  0.72220  0.06150  Biso   1.000  H
  C125     1.0000 0.46170  0.63320  0.05700  Biso   1.000  C
  H72      1.0000 0.46810  0.62650  0.11050  Biso   1.000  H
  C126     1.0000 0.51280  0.76060  0.91580  Biso   1.000  C
  Co10     1.0000 0.47583  0.16990  0.24861  Biso   1.000  Co
  Co11     1.0000 0.37669  0.12550  0.05576  Biso   1.000  Co
  Co12     1.0000 0.59087  0.15082  0.44262  Biso   1.000  Co
  S10      1.0000 0.53806  0.77505  0.26686  Biso   1.000  S
  S11      1.0000 0.54208  0.56691  0.34508  Biso   1.000  S
  S12      1.0000 0.11128  0.01531  0.45687  Biso   1.000  S
  O55      1.0000 0.51520  0.24540  0.32830  Biso   1.000  O
  O56      1.0000 0.44330  0.08465  0.18100  Biso   1.000  O
  O57      1.0000 0.99400  0.26510  0.65580  Biso   1.000  O
  O58      1.0000 0.90180  0.63790  0.24760  Biso   1.000  O
  O59      1.0000 0.14970  0.69506  0.25870  Biso   1.000  O
  O60      1.0000 0.46490  0.11360  0.35910  Biso   1.000  O
  O61      1.0000 0.95440  0.30050  0.53550  Biso   1.000  O
  O62      1.0000 0.19600  0.68040  0.38370  Biso   1.000  O
  O63      1.0000 0.47570  0.05210  0.07030  Biso   1.000  O
  O64      1.0000 0.58640  0.25132  0.44320  Biso   1.000  O
  O65      1.0000 0.83550  0.61700  0.13140  Biso   1.000  O
  O66      1.0000 0.49560  0.10240  0.48360  Biso   1.000  O
  O67      1.0000 0.58700  0.77650  0.34110  Biso   1.000  O
  O68      1.0000 0.56140  0.73586  0.20590  Biso   1.000  O
  O69      1.0000 0.47320  0.58140  0.28900  Biso   1.000  O
  O70      1.0000 0.55010  0.59580  0.42040  Biso   1.000  O
  O71      1.0000 0.11410  0.96705  0.51640  Biso   1.000  O
  O72      1.0000 0.06700  0.00323  0.38230  Biso   1.000  O
  C127     1.0000 0.47300  0.04290  0.14170  Biso   1.000  C
  C128     1.0000 0.49790  0.97870  0.17480  Biso   1.000  C
  C129     1.0000 0.50410  0.96710  0.25330  Biso   1.000  C
  H73      1.0000 0.49750  0.00230  0.28630  Biso   1.000  H
  C130     1.0000 0.51940  0.90550  0.28260  Biso   1.000  C
  H74      1.0000 0.52500  0.89730  0.33570  Biso   1.000  H
  C131     1.0000 0.52660  0.85560  0.23130  Biso   1.000  C
  C132     1.0000 0.52190  0.86650  0.15310  Biso   1.000  C
  H75      1.0000 0.52770  0.83130  0.11980  Biso   1.000  H
  C133     1.0000 0.50870  0.92840  0.12600  Biso   1.000  C
  H76      1.0000 0.50700  0.93710  0.07340  Biso   1.000  H
  C134     1.0000 0.43970  0.75230  0.28070  Biso   1.000  C
  C135     1.0000 0.42300  0.74110  0.35490  Biso   1.000  C
  H77      1.0000 0.46430  0.74620  0.39800  Biso   1.000  H
  C136     1.0000 0.34690  0.72270  0.36570  Biso   1.000  C
  H78      1.0000 0.33650  0.71480  0.41540  Biso   1.000  H
  C137     1.0000 0.28720  0.71600  0.30260  Biso   1.000  C
  C138     1.0000 0.30560  0.72690  0.22910  Biso   1.000  C
  H79      1.0000 0.26460  0.72170  0.18580  Biso   1.000  H
  C139     1.0000 0.38150  0.74500  0.21800  Biso   1.000  C
  H80      1.0000 0.39230  0.75200  0.16820  Biso   1.000  H
  C140     1.0000 0.20410  0.69540  0.31570  Biso   1.000  C
  C141     1.0000 0.55050  0.27700  0.38230  Biso   1.000  C
  C142     1.0000 0.55020  0.34860  0.37510  Biso   1.000  C
  C143     1.0000 0.51790  0.37660  0.30530  Biso   1.000  C
  H81      1.0000 0.49680  0.34920  0.26350  Biso   1.000  H
  C144     1.0000 0.51600  0.44260  0.29570  Biso   1.000  C
  H82      1.0000 0.49430  0.46150  0.24780  Biso   1.000  H
  C145     1.0000 0.54630  0.48120  0.35730  Biso   1.000  C
  C146     1.0000 0.57760  0.45570  0.42620  Biso   1.000  C
  H83      1.0000 0.59750  0.48340  0.46800  Biso   1.000  H
  C147     1.0000 0.58000  0.38860  0.43450  Biso   1.000  C
  H84      1.0000 0.60280  0.37010  0.48230  Biso   1.000  H
  C148     1.0000 0.62950  0.58500  0.30300  Biso   1.000  C
  C149     1.0000 0.62840  0.57580  0.22510  Biso   1.000  C
  H85      1.0000 0.58100  0.56070  0.19360  Biso   1.000  H
  C150     1.0000 0.69630  0.58840  0.19240  Biso   1.000  C
  H86      1.0000 0.69400  0.58280  0.13920  Biso   1.000  H
  C151     1.0000 0.76600  0.60890  0.23790  Biso   1.000  C
  C152     1.0000 0.76430  0.61860  0.31560  Biso   1.000  C
  H87      1.0000 0.81140  0.63380  0.34760  Biso   1.000  H
  C153     1.0000 0.69640  0.60690  0.34880  Biso   1.000  C
  H88      1.0000 0.69770  0.61420  0.40160  Biso   1.000  H
  C154     1.0000 0.84050  0.62220  0.20350  Biso   1.000  C
  C155     1.0000 0.44660  0.09780  0.42250  Biso   1.000  C
  C156     1.0000 0.36390  0.07310  0.42840  Biso   1.000  C
  C157     1.0000 0.34930  0.04240  0.49620  Biso   1.000  C
  H89      1.0000 0.39250  0.03490  0.53690  Biso   1.000  H
  C158     1.0000 0.27270  0.02300  0.50390  Biso   1.000  C
  H90      1.0000 0.26360  0.00200  0.54900  Biso   1.000  H
  C159     1.0000 0.21120  0.03510  0.44490  Biso   1.000  C
  C160     1.0000 0.22540  0.06490  0.37700  Biso   1.000  C
  H91      1.0000 0.18220  0.07240  0.33620  Biso   1.000  H
  C161     1.0000 0.30260  0.08340  0.36950  Biso   1.000  C
  H92      1.0000 0.31200  0.10300  0.32360  Biso   1.000  H
  C162     1.0000 0.07520  0.08730  0.49340  Biso   1.000  C
  C163     1.0000 0.08380  0.09700  0.57210  Biso   1.000  C
  H93      1.0000 0.10930  0.06450  0.60610  Biso   1.000  H
  C164     1.0000 0.05580  0.15300  0.60090  Biso   1.000  C
  H94      1.0000 0.06190  0.15910  0.65440  Biso   1.000  H
  C165     1.0000 0.01920  0.19970  0.55180  Biso   1.000  C
  C166     1.0000 0.01080  0.18960  0.47240  Biso   1.000  C
  H95      1.0000 0.98560  0.22220  0.43850  Biso   1.000  H
  C167     1.0000 0.03830  0.13320  0.44300  Biso   1.000  C
  H96      1.0000 0.03190  0.12650  0.38950  Biso   1.000  H
  C168     1.0000 0.98720  0.26060  0.58420  Biso   1.000  C
