data_image0
_cell_length_a       16.7033
_cell_length_b       20.0195
_cell_length_c       17.4602
_cell_angle_alpha    90
_cell_angle_beta     100.423
_cell_angle_gamma    90

_symmetry_space_group_name_H-M    "P 1"
_symmetry_int_tables_number       1

loop_
  _symmetry_equiv_pos_as_xyz
  'x, y, z'

loop_
  _atom_site_label
  _atom_site_occupancy
  _atom_site_fract_x
  _atom_site_fract_y
  _atom_site_fract_z
  _atom_site_thermal_displace_type
  _atom_site_B_iso_or_equiv
  _atom_site_type_symbol
  Co1      1.0000 0.95911  0.16580  0.24332  Biso   1.000  Co
  Co2      1.0000 0.85349  0.12517  0.05558  Biso   1.000  Co
  Co3      1.0000 0.08528  0.14594  0.43907  Biso   1.000  Co
  S1       1.0000 0.05238  0.77511  0.26585  Biso   1.000  S
  S2       1.0000 0.60313  0.01649  0.46048  Biso   1.000  S
  S3       1.0000 0.44446  0.06989  0.16560  Biso   1.000  S
  O1       1.0000 0.47840  0.26510  0.66260  Biso   1.000  O
  O2       1.0000 0.93900  0.10070  0.33080  Biso   1.000  O
  O3       1.0000 0.08040  0.13690  0.24900  Biso   1.000  O
  O4       1.0000 0.66350  0.69350  0.26690  Biso   1.000  O
  O5       1.0000 0.50820  0.74030  0.17220  Biso   1.000  O
  O6       1.0000 0.92650  0.08666  0.16440  Biso   1.000  O
  O7       1.0000 0.71840  0.68450  0.39340  Biso   1.000  O
  O8       1.0000 0.43810  0.30590  0.54210  Biso   1.000  O
  O9       1.0000 0.93290  0.04380  0.05150  Biso   1.000  O
  O10      1.0000 0.98450  0.10860  0.45790  Biso   1.000  O
  O11      1.0000 0.14690  0.10690  0.36690  Biso   1.000  O
  O12      1.0000 0.41170  0.74360  0.06570  Biso   1.000  O
  O13      1.0000 0.07190  0.73200  0.20620  Biso   1.000  O
  O14      1.0000 0.10690  0.77990  0.33850  Biso   1.000  O
  O15      1.0000 0.55190  0.00120  0.38770  Biso   1.000  O
  O16      1.0000 0.61440  0.96740  0.52130  Biso   1.000  O
  O17      1.0000 0.51340  0.08690  0.22350  Biso   1.000  O
  O18      1.0000 0.43420  0.10140  0.09090  Biso   1.000  O
  C1       1.0000 0.94980  0.04010  0.12340  Biso   1.000  C
  C2       1.0000 0.98850  0.97910  0.16140  Biso   1.000  C
  C3       1.0000 0.00520  0.92670  0.11580  Biso   1.000  C
  H1       1.0000 0.00110  0.93320  0.06250  Biso   1.000  H
  C4       1.0000 0.02790  0.86490  0.14710  Biso   1.000  C
  H2       1.0000 0.03730  0.82960  0.11540  Biso   1.000  H
  C5       1.0000 0.03620  0.85670  0.22560  Biso   1.000  C
  C6       1.0000 0.02450  0.90900  0.27440  Biso   1.000  C
  H3       1.0000 0.03170  0.90280  0.32800  Biso   1.000  H
  C7       1.0000 0.00170  0.97110  0.24140  Biso   1.000  C
  H4       1.0000 0.99530  0.00720  0.27330  Biso   1.000  H
  C8       1.0000 0.95530  0.75250  0.28290  Biso   1.000  C
  C9       1.0000 0.89260  0.74270  0.22070  Biso   1.000  C
  H5       1.0000 0.90210  0.74700  0.17010  Biso   1.000  H
  C10      1.0000 0.81630  0.72660  0.23330  Biso   1.000  C
  H6       1.0000 0.77370  0.72100  0.19150  Biso   1.000  H
  C11      1.0000 0.80330  0.71890  0.30900  Biso   1.000  C
  C12      1.0000 0.86770  0.72760  0.37120  Biso   1.000  C
  H7       1.0000 0.85940  0.72040  0.42190  Biso   1.000  H
  C13      1.0000 0.94330  0.74680  0.35840  Biso   1.000  C
  H8       1.0000 0.98530  0.75560  0.39990  Biso   1.000  H
  C14      1.0000 0.72040  0.69730  0.32300  Biso   1.000  C
  C15      1.0000 0.93000  0.09640  0.39970  Biso   1.000  C
  C16      1.0000 0.84980  0.07370  0.41460  Biso   1.000  C
  C17      1.0000 0.78230  0.07940  0.35530  Biso   1.000  C
  H9       1.0000 0.78820  0.09480  0.30630  Biso   1.000  H
  C18      1.0000 0.70620  0.06180  0.36990  Biso   1.000  C
  H10      1.0000 0.66000  0.06630  0.33160  Biso   1.000  H
  C19      1.0000 0.70060  0.03770  0.44250  Biso   1.000  C
  C20      1.0000 0.76700  0.03040  0.50100  Biso   1.000  C
  H11      1.0000 0.76100  0.01340  0.54920  Biso   1.000  H
  C21      1.0000 0.84250  0.04880  0.48730  Biso   1.000  C
  H12      1.0000 0.88820  0.04460  0.52630  Biso   1.000  H
  C22      1.0000 0.56870  0.09070  0.49710  Biso   1.000  C
  C23      1.0000 0.52440  0.13690  0.44680  Biso   1.000  C
  H13      1.0000 0.51520  0.13000  0.39330  Biso   1.000  H
  C24      1.0000 0.49440  0.19250  0.47700  Biso   1.000  C
  H14      1.0000 0.46420  0.22330  0.44380  Biso   1.000  H
  C25      1.0000 0.50850  0.20360  0.55650  Biso   1.000  C
  C26      1.0000 0.55440  0.15810  0.60580  Biso   1.000  C
  H15      1.0000 0.56540  0.16600  0.65920  Biso   1.000  H
  C27      1.0000 0.58400  0.10100  0.57600  Biso   1.000  C
  H16      1.0000 0.61380  0.06990  0.60920  Biso   1.000  H
  C28      1.0000 0.47240  0.26310  0.58970  Biso   1.000  C
  C29      1.0000 0.14090  0.11700  0.29560  Biso   1.000  C
  C30      1.0000 0.21640  0.10390  0.26240  Biso   1.000  C
  C31      1.0000 0.28720  0.08190  0.31110  Biso   1.000  C
  H17      1.0000 0.28710  0.07430  0.36360  Biso   1.000  H
  C32      1.0000 0.35750  0.07150  0.28150  Biso   1.000  C
  H18      1.0000 0.40480  0.05660  0.31350  Biso   1.000  H
  C33      1.0000 0.35590  0.08360  0.20320  Biso   1.000  C
  C34      1.0000 0.28760  0.10760  0.15530  Biso   1.000  C
  H19      1.0000 0.28870  0.11750  0.10340  Biso   1.000  H
  C35      1.0000 0.21740  0.11700  0.18490  Biso   1.000  C
  H20      1.0000 0.17050  0.13220  0.15260  Biso   1.000  H
  C36      1.0000 0.44630  0.98220  0.15280  Biso   1.000  C
  C37      1.0000 0.48620  0.94270  0.21230  Biso   1.000  C
  H21      1.0000 0.51050  0.96190  0.25930  Biso   1.000  H
  C38      1.0000 0.48990  0.87460  0.20150  Biso   1.000  C
  H22      1.0000 0.51850  0.84810  0.24090  Biso   1.000  H
  C39      1.0000 0.45100  0.84490  0.13200  Biso   1.000  C
  C40      1.0000 0.40790  0.88650  0.07400  Biso   1.000  C
  H23      1.0000 0.38010  0.86740  0.02820  Biso   1.000  H
  C41      1.0000 0.40590  0.95310  0.08300  Biso   1.000  C
  H24      1.0000 0.37790  0.97990  0.04350  Biso   1.000  H
  C42      1.0000 0.45760  0.77100  0.12340  Biso   1.000  C
  Co4      1.0000 0.54089  0.66580  0.25668  Biso   1.000  Co
  Co5      1.0000 0.64651  0.62517  0.44442  Biso   1.000  Co
  Co6      1.0000 0.41472  0.64594  0.06093  Biso   1.000  Co
  S4       1.0000 0.44762  0.27511  0.23415  Biso   1.000  S
  S5       1.0000 0.89687  0.51649  0.03952  Biso   1.000  S
  S6       1.0000 0.05554  0.56989  0.33440  Biso   1.000  S
  O19      1.0000 0.02160  0.76510  0.83740  Biso   1.000  O
  O20      1.0000 0.56100  0.60070  0.16920  Biso   1.000  O
  O21      1.0000 0.41960  0.63690  0.25100  Biso   1.000  O
  O22      1.0000 0.83650  0.19350  0.23310  Biso   1.000  O
  O23      1.0000 0.99180  0.24030  0.32780  Biso   1.000  O
  O24      1.0000 0.57350  0.58666  0.33560  Biso   1.000  O
  O25      1.0000 0.78160  0.18450  0.10660  Biso   1.000  O
  O26      1.0000 0.06190  0.80590  0.95790  Biso   1.000  O
  O27      1.0000 0.56710  0.54380  0.44850  Biso   1.000  O
  O28      1.0000 0.51550  0.60860  0.04210  Biso   1.000  O
  O29      1.0000 0.35310  0.60690  0.13310  Biso   1.000  O
  O30      1.0000 0.08830  0.24360  0.43430  Biso   1.000  O
  O31      1.0000 0.42810  0.23200  0.29380  Biso   1.000  O
  O32      1.0000 0.39310  0.27990  0.16150  Biso   1.000  O
  O33      1.0000 0.94810  0.50120  0.11230  Biso   1.000  O
  O34      1.0000 0.88560  0.46740  0.97870  Biso   1.000  O
  O35      1.0000 0.98660  0.58690  0.27650  Biso   1.000  O
  O36      1.0000 0.06580  0.60140  0.40910  Biso   1.000  O
  C43      1.0000 0.55020  0.54010  0.37660  Biso   1.000  C
  C44      1.0000 0.51150  0.47910  0.33860  Biso   1.000  C
  C45      1.0000 0.49480  0.42670  0.38420  Biso   1.000  C
  H25      1.0000 0.49890  0.43320  0.43750  Biso   1.000  H
  C46      1.0000 0.47210  0.36490  0.35290  Biso   1.000  C
  H26      1.0000 0.46270  0.32960  0.38460  Biso   1.000  H
  C47      1.0000 0.46380  0.35670  0.27440  Biso   1.000  C
  C48      1.0000 0.47550  0.40900  0.22560  Biso   1.000  C
  H27      1.0000 0.46830  0.40280  0.17200  Biso   1.000  H
  C49      1.0000 0.49830  0.47110  0.25860  Biso   1.000  C
  H28      1.0000 0.50470  0.50720  0.22670  Biso   1.000  H
  C50      1.0000 0.54470  0.25250  0.21710  Biso   1.000  C
  C51      1.0000 0.60740  0.24270  0.27930  Biso   1.000  C
  H29      1.0000 0.59790  0.24700  0.32990  Biso   1.000  H
  C52      1.0000 0.68370  0.22660  0.26670  Biso   1.000  C
  H30      1.0000 0.72630  0.22100  0.30850  Biso   1.000  H
  C53      1.0000 0.69670  0.21890  0.19100  Biso   1.000  C
  C54      1.0000 0.63230  0.22760  0.12880  Biso   1.000  C
  H31      1.0000 0.64060  0.22040  0.07810  Biso   1.000  H
  C55      1.0000 0.55670  0.24680  0.14160  Biso   1.000  C
  H32      1.0000 0.51470  0.25560  0.10010  Biso   1.000  H
  C56      1.0000 0.77960  0.19730  0.17700  Biso   1.000  C
  C57      1.0000 0.57000  0.59640  0.10030  Biso   1.000  C
  C58      1.0000 0.65020  0.57370  0.08540  Biso   1.000  C
  C59      1.0000 0.71770  0.57940  0.14470  Biso   1.000  C
  H33      1.0000 0.71180  0.59480  0.19370  Biso   1.000  H
  C60      1.0000 0.79380  0.56180  0.13010  Biso   1.000  C
  H34      1.0000 0.84000  0.56630  0.16840  Biso   1.000  H
  C61      1.0000 0.79940  0.53770  0.05750  Biso   1.000  C
  C62      1.0000 0.73300  0.53040  0.99900  Biso   1.000  C
  H35      1.0000 0.73900  0.51340  0.95080  Biso   1.000  H
  C63      1.0000 0.65750  0.54880  0.01270  Biso   1.000  C
  H36      1.0000 0.61180  0.54460  0.97370  Biso   1.000  H
  C64      1.0000 0.93130  0.59070  0.00290  Biso   1.000  C
  C65      1.0000 0.97560  0.63690  0.05320  Biso   1.000  C
  H37      1.0000 0.98480  0.63000  0.10670  Biso   1.000  H
  C66      1.0000 0.00560  0.69250  0.02300  Biso   1.000  C
  H38      1.0000 0.03580  0.72330  0.05620  Biso   1.000  H
  C67      1.0000 0.99150  0.70360  0.94350  Biso   1.000  C
  C68      1.0000 0.94560  0.65810  0.89420  Biso   1.000  C
  H39      1.0000 0.93460  0.66600  0.84080  Biso   1.000  H
  C69      1.0000 0.91600  0.60100  0.92400  Biso   1.000  C
  H40      1.0000 0.88620  0.56990  0.89080  Biso   1.000  H
  C70      1.0000 0.02760  0.76310  0.91030  Biso   1.000  C
  C71      1.0000 0.35910  0.61700  0.20440  Biso   1.000  C
  C72      1.0000 0.28360  0.60390  0.23760  Biso   1.000  C
  C73      1.0000 0.21280  0.58190  0.18890  Biso   1.000  C
  H41      1.0000 0.21290  0.57430  0.13640  Biso   1.000  H
  C74      1.0000 0.14250  0.57150  0.21850  Biso   1.000  C
  H42      1.0000 0.09520  0.55660  0.18650  Biso   1.000  H
  C75      1.0000 0.14410  0.58360  0.29680  Biso   1.000  C
  C76      1.0000 0.21240  0.60760  0.34470  Biso   1.000  C
  H43      1.0000 0.21130  0.61750  0.39660  Biso   1.000  H
  C77      1.0000 0.28260  0.61700  0.31510  Biso   1.000  C
  H44      1.0000 0.32950  0.63220  0.34740  Biso   1.000  H
  C78      1.0000 0.05370  0.48220  0.34720  Biso   1.000  C
  C79      1.0000 0.01380  0.44270  0.28770  Biso   1.000  C
  H45      1.0000 0.98950  0.46190  0.24070  Biso   1.000  H
  C80      1.0000 0.01010  0.37460  0.29850  Biso   1.000  C
  H46      1.0000 0.98150  0.34810  0.25910  Biso   1.000  H
  C81      1.0000 0.04900  0.34490  0.36800  Biso   1.000  C
  C82      1.0000 0.09210  0.38650  0.42600  Biso   1.000  C
  H47      1.0000 0.11990  0.36740  0.47180  Biso   1.000  H
  C83      1.0000 0.09410  0.45310  0.41700  Biso   1.000  C
  H48      1.0000 0.12210  0.47990  0.45650  Biso   1.000  H
  C84      1.0000 0.04240  0.27100  0.37660  Biso   1.000  C
  Co7      1.0000 0.04089  0.83420  0.75668  Biso   1.000  Co
  Co8      1.0000 0.14651  0.87483  0.94442  Biso   1.000  Co
  Co9      1.0000 0.91472  0.85406  0.56093  Biso   1.000  Co
  S7       1.0000 0.94762  0.22489  0.73415  Biso   1.000  S
  S8       1.0000 0.39687  0.98351  0.53952  Biso   1.000  S
  S9       1.0000 0.55554  0.93011  0.83440  Biso   1.000  S
  O37      1.0000 0.52160  0.73490  0.33740  Biso   1.000  O
  O38      1.0000 0.06100  0.89930  0.66920  Biso   1.000  O
  O39      1.0000 0.91960  0.86310  0.75100  Biso   1.000  O
  O40      1.0000 0.33650  0.30650  0.73310  Biso   1.000  O
  O41      1.0000 0.49180  0.25970  0.82780  Biso   1.000  O
  O42      1.0000 0.07350  0.91334  0.83560  Biso   1.000  O
  O43      1.0000 0.28160  0.31550  0.60660  Biso   1.000  O
  O44      1.0000 0.56190  0.69410  0.45790  Biso   1.000  O
  O45      1.0000 0.06710  0.95620  0.94850  Biso   1.000  O
  O46      1.0000 0.01550  0.89140  0.54210  Biso   1.000  O
  O47      1.0000 0.85310  0.89310  0.63310  Biso   1.000  O
  O48      1.0000 0.58830  0.25640  0.93430  Biso   1.000  O
  O49      1.0000 0.92810  0.26800  0.79380  Biso   1.000  O
  O50      1.0000 0.89310  0.22010  0.66150  Biso   1.000  O
  O51      1.0000 0.44810  0.99880  0.61230  Biso   1.000  O
  O52      1.0000 0.38560  0.03260  0.47870  Biso   1.000  O
  O53      1.0000 0.48660  0.91310  0.77650  Biso   1.000  O
  O54      1.0000 0.56580  0.89860  0.90910  Biso   1.000  O
  C85      1.0000 0.05020  0.95990  0.87660  Biso   1.000  C
  C86      1.0000 0.01150  0.02090  0.83860  Biso   1.000  C
  C87      1.0000 0.99480  0.07330  0.88420  Biso   1.000  C
  H49      1.0000 0.99890  0.06680  0.93750  Biso   1.000  H
  C88      1.0000 0.97210  0.13510  0.85290  Biso   1.000  C
  H50      1.0000 0.96270  0.17040  0.88460  Biso   1.000  H
  C89      1.0000 0.96380  0.14330  0.77440  Biso   1.000  C
  C90      1.0000 0.97550  0.09100  0.72560  Biso   1.000  C
  H51      1.0000 0.96830  0.09720  0.67200  Biso   1.000  H
  C91      1.0000 0.99830  0.02890  0.75860  Biso   1.000  C
  H52      1.0000 0.00470  0.99280  0.72670  Biso   1.000  H
  C92      1.0000 0.04470  0.24750  0.71710  Biso   1.000  C
  C93      1.0000 0.10740  0.25730  0.77930  Biso   1.000  C
  H53      1.0000 0.09790  0.25300  0.82990  Biso   1.000  H
  C94      1.0000 0.18370  0.27340  0.76670  Biso   1.000  C
  H54      1.0000 0.22630  0.27900  0.80850  Biso   1.000  H
  C95      1.0000 0.19670  0.28110  0.69100  Biso   1.000  C
  C96      1.0000 0.13230  0.27240  0.62880  Biso   1.000  C
  H55      1.0000 0.14060  0.27960  0.57810  Biso   1.000  H
  C97      1.0000 0.05670  0.25320  0.64160  Biso   1.000  C
  H56      1.0000 0.01470  0.24440  0.60010  Biso   1.000  H
  C98      1.0000 0.27960  0.30270  0.67700  Biso   1.000  C
  C99      1.0000 0.07000  0.90360  0.60030  Biso   1.000  C
  C100     1.0000 0.15020  0.92630  0.58540  Biso   1.000  C
  C101     1.0000 0.21770  0.92060  0.64470  Biso   1.000  C
  H57      1.0000 0.21180  0.90520  0.69370  Biso   1.000  H
  C102     1.0000 0.29380  0.93820  0.63010  Biso   1.000  C
  H58      1.0000 0.34000  0.93370  0.66840  Biso   1.000  H
  C103     1.0000 0.29940  0.96230  0.55750  Biso   1.000  C
  C104     1.0000 0.23300  0.96960  0.49900  Biso   1.000  C
  H59      1.0000 0.23900  0.98660  0.45080  Biso   1.000  H
  C105     1.0000 0.15750  0.95120  0.51270  Biso   1.000  C
  H60      1.0000 0.11180  0.95540  0.47370  Biso   1.000  H
  C106     1.0000 0.43130  0.90930  0.50290  Biso   1.000  C
  C107     1.0000 0.47560  0.86310  0.55320  Biso   1.000  C
  H61      1.0000 0.48480  0.87000  0.60670  Biso   1.000  H
  C108     1.0000 0.50560  0.80750  0.52300  Biso   1.000  C
  H62      1.0000 0.53580  0.77670  0.55620  Biso   1.000  H
  C109     1.0000 0.49150  0.79640  0.44350  Biso   1.000  C
  C110     1.0000 0.44560  0.84190  0.39420  Biso   1.000  C
  H63      1.0000 0.43460  0.83400  0.34080  Biso   1.000  H
  C111     1.0000 0.41600  0.89900  0.42400  Biso   1.000  C
  H64      1.0000 0.38620  0.93010  0.39080  Biso   1.000  H
  C112     1.0000 0.52760  0.73690  0.41030  Biso   1.000  C
  C113     1.0000 0.85910  0.88300  0.70440  Biso   1.000  C
  C114     1.0000 0.78360  0.89610  0.73760  Biso   1.000  C
  C115     1.0000 0.71280  0.91810  0.68890  Biso   1.000  C
  H65      1.0000 0.71290  0.92570  0.63640  Biso   1.000  H
  C116     1.0000 0.64250  0.92850  0.71850  Biso   1.000  C
  H66      1.0000 0.59520  0.94340  0.68650  Biso   1.000  H
  C117     1.0000 0.64410  0.91640  0.79680  Biso   1.000  C
  C118     1.0000 0.71240  0.89240  0.84470  Biso   1.000  C
  H67      1.0000 0.71130  0.88250  0.89660  Biso   1.000  H
  C119     1.0000 0.78260  0.88300  0.81510  Biso   1.000  C
  H68      1.0000 0.82950  0.86780  0.84740  Biso   1.000  H
  C120     1.0000 0.55370  0.01780  0.84720  Biso   1.000  C
  C121     1.0000 0.51380  0.05730  0.78770  Biso   1.000  C
  H69      1.0000 0.48950  0.03810  0.74070  Biso   1.000  H
  C122     1.0000 0.51010  0.12540  0.79850  Biso   1.000  C
  H70      1.0000 0.48150  0.15190  0.75910  Biso   1.000  H
  C123     1.0000 0.54900  0.15510  0.86800  Biso   1.000  C
  C124     1.0000 0.59210  0.11350  0.92600  Biso   1.000  C
  H71      1.0000 0.61990  0.13260  0.97180  Biso   1.000  H
  C125     1.0000 0.59410  0.04690  0.91700  Biso   1.000  C
  H72      1.0000 0.62210  0.02010  0.95650  Biso   1.000  H
  C126     1.0000 0.54240  0.22900  0.87660  Biso   1.000  C
  Co10     1.0000 0.45911  0.33420  0.74332  Biso   1.000  Co
  Co11     1.0000 0.35349  0.37483  0.55558  Biso   1.000  Co
  Co12     1.0000 0.58528  0.35406  0.93907  Biso   1.000  Co
  S10      1.0000 0.55238  0.72489  0.76585  Biso   1.000  S
  S11      1.0000 0.10313  0.48351  0.96048  Biso   1.000  S
  S12      1.0000 0.94446  0.43011  0.66560  Biso   1.000  S
  O55      1.0000 0.97840  0.23490  0.16260  Biso   1.000  O
  O56      1.0000 0.43900  0.39930  0.83080  Biso   1.000  O
  O57      1.0000 0.58040  0.36310  0.74900  Biso   1.000  O
  O58      1.0000 0.16350  0.80650  0.76690  Biso   1.000  O
  O59      1.0000 0.00820  0.75970  0.67220  Biso   1.000  O
  O60      1.0000 0.42650  0.41334  0.66440  Biso   1.000  O
  O61      1.0000 0.21840  0.81550  0.89340  Biso   1.000  O
  O62      1.0000 0.93810  0.19410  0.04210  Biso   1.000  O
  O63      1.0000 0.43290  0.45620  0.55150  Biso   1.000  O
  O64      1.0000 0.48450  0.39140  0.95790  Biso   1.000  O
  O65      1.0000 0.64690  0.39310  0.86690  Biso   1.000  O
  O66      1.0000 0.91170  0.75640  0.56570  Biso   1.000  O
  O67      1.0000 0.57190  0.76800  0.70620  Biso   1.000  O
  O68      1.0000 0.60690  0.72010  0.83850  Biso   1.000  O
  O69      1.0000 0.05190  0.49880  0.88770  Biso   1.000  O
  O70      1.0000 0.11440  0.53260  0.02130  Biso   1.000  O
  O71      1.0000 0.01340  0.41310  0.72350  Biso   1.000  O
  O72      1.0000 0.93420  0.39860  0.59090  Biso   1.000  O
  C127     1.0000 0.44980  0.45990  0.62340  Biso   1.000  C
  C128     1.0000 0.48850  0.52090  0.66140  Biso   1.000  C
  C129     1.0000 0.50520  0.57330  0.61580  Biso   1.000  C
  H73      1.0000 0.50110  0.56680  0.56250  Biso   1.000  H
  C130     1.0000 0.52790  0.63510  0.64710  Biso   1.000  C
  H74      1.0000 0.53730  0.67040  0.61540  Biso   1.000  H
  C131     1.0000 0.53620  0.64330  0.72560  Biso   1.000  C
  C132     1.0000 0.52450  0.59100  0.77440  Biso   1.000  C
  H75      1.0000 0.53170  0.59720  0.82800  Biso   1.000  H
  C133     1.0000 0.50170  0.52890  0.74140  Biso   1.000  C
  H76      1.0000 0.49530  0.49280  0.77330  Biso   1.000  H
  C134     1.0000 0.45530  0.74750  0.78290  Biso   1.000  C
  C135     1.0000 0.39260  0.75730  0.72070  Biso   1.000  C
  H77      1.0000 0.40210  0.75300  0.67010  Biso   1.000  H
  C136     1.0000 0.31630  0.77340  0.73330  Biso   1.000  C
  H78      1.0000 0.27370  0.77900  0.69150  Biso   1.000  H
  C137     1.0000 0.30330  0.78110  0.80900  Biso   1.000  C
  C138     1.0000 0.36770  0.77240  0.87120  Biso   1.000  C
  H79      1.0000 0.35940  0.77960  0.92190  Biso   1.000  H
  C139     1.0000 0.44330  0.75320  0.85840  Biso   1.000  C
  H80      1.0000 0.48530  0.74440  0.89990  Biso   1.000  H
  C140     1.0000 0.22040  0.80270  0.82300  Biso   1.000  C
  C141     1.0000 0.43000  0.40360  0.89970  Biso   1.000  C
  C142     1.0000 0.34980  0.42630  0.91460  Biso   1.000  C
  C143     1.0000 0.28230  0.42060  0.85530  Biso   1.000  C
  H81      1.0000 0.28820  0.40520  0.80630  Biso   1.000  H
  C144     1.0000 0.20620  0.43820  0.86990  Biso   1.000  C
  H82      1.0000 0.16000  0.43370  0.83160  Biso   1.000  H
  C145     1.0000 0.20060  0.46230  0.94250  Biso   1.000  C
  C146     1.0000 0.26700  0.46960  0.00100  Biso   1.000  C
  H83      1.0000 0.26100  0.48660  0.04920  Biso   1.000  H
  C147     1.0000 0.34250  0.45120  0.98730  Biso   1.000  C
  H84      1.0000 0.38820  0.45540  0.02630  Biso   1.000  H
  C148     1.0000 0.06870  0.40930  0.99710  Biso   1.000  C
  C149     1.0000 0.02440  0.36310  0.94680  Biso   1.000  C
  H85      1.0000 0.01520  0.37000  0.89330  Biso   1.000  H
  C150     1.0000 0.99440  0.30750  0.97700  Biso   1.000  C
  H86      1.0000 0.96420  0.27670  0.94380  Biso   1.000  H
  C151     1.0000 0.00850  0.29640  0.05650  Biso   1.000  C
  C152     1.0000 0.05440  0.34190  0.10580  Biso   1.000  C
  H87      1.0000 0.06540  0.33400  0.15920  Biso   1.000  H
  C153     1.0000 0.08400  0.39900  0.07600  Biso   1.000  C
  H88      1.0000 0.11380  0.43010  0.10920  Biso   1.000  H
  C154     1.0000 0.97240  0.23690  0.08970  Biso   1.000  C
  C155     1.0000 0.64090  0.38300  0.79560  Biso   1.000  C
  C156     1.0000 0.71640  0.39610  0.76240  Biso   1.000  C
  C157     1.0000 0.78720  0.41810  0.81110  Biso   1.000  C
  H89      1.0000 0.78710  0.42570  0.86360  Biso   1.000  H
  C158     1.0000 0.85750  0.42850  0.78150  Biso   1.000  C
  H90      1.0000 0.90480  0.44340  0.81350  Biso   1.000  H
  C159     1.0000 0.85590  0.41640  0.70320  Biso   1.000  C
  C160     1.0000 0.78760  0.39240  0.65530  Biso   1.000  C
  H91      1.0000 0.78870  0.38250  0.60340  Biso   1.000  H
  C161     1.0000 0.71740  0.38300  0.68490  Biso   1.000  C
  H92      1.0000 0.67050  0.36780  0.65260  Biso   1.000  H
  C162     1.0000 0.94630  0.51780  0.65280  Biso   1.000  C
  C163     1.0000 0.98620  0.55730  0.71230  Biso   1.000  C
  H93      1.0000 0.01050  0.53810  0.75930  Biso   1.000  H
  C164     1.0000 0.98990  0.62540  0.70150  Biso   1.000  C
  H94      1.0000 0.01850  0.65190  0.74090  Biso   1.000  H
  C165     1.0000 0.95100  0.65510  0.63200  Biso   1.000  C
  C166     1.0000 0.90790  0.61350  0.57400  Biso   1.000  C
  H95      1.0000 0.88010  0.63260  0.52820  Biso   1.000  H
  C167     1.0000 0.90590  0.54690  0.58300  Biso   1.000  C
  H96      1.0000 0.87790  0.52010  0.54350  Biso   1.000  H
  C168     1.0000 0.95760  0.72900  0.62340  Biso   1.000  C
