data_image0
_cell_length_a       16.7033
_cell_length_b       20.0195
_cell_length_c       17.4602
_cell_angle_alpha    90
_cell_angle_beta     100.423
_cell_angle_gamma    90

_symmetry_space_group_name_H-M    "P 1"
_symmetry_int_tables_number       1

loop_
  _symmetry_equiv_pos_as_xyz
  'x, y, z'

loop_
  _atom_site_label
  _atom_site_occupancy
  _atom_site_fract_x
  _atom_site_fract_y
  _atom_site_fract_z
  _atom_site_thermal_displace_type
  _atom_site_B_iso_or_equiv
  _atom_site_type_symbol
  Co1      1.0000 0.96851  0.33096  0.74136  Biso   1.000  Co
  Co2      1.0000 0.86543  0.36639  0.54754  Biso   1.000  Co
  Co3      1.0000 0.09065  0.35220  0.93744  Biso   1.000  Co
  S1       1.0000 0.45430  0.22236  0.73844  Biso   1.000  S
  S2       1.0000 0.60746  0.48977  0.95545  Biso   1.000  S
  S3       1.0000 0.45469  0.43097  0.65249  Biso   1.000  S
  O1       1.0000 0.48590  0.23910  0.15890  Biso   1.000  O
  O2       1.0000 0.09090  0.35580  0.74670  Biso   1.000  O
  O3       1.0000 0.94890  0.39740  0.82830  Biso   1.000  O
  O4       1.0000 0.50260  0.75750  0.67280  Biso   1.000  O
  O5       1.0000 0.56040  0.90800  0.83970  Biso   1.000  O
  O6       1.0000 0.84410  0.30660  0.73060  Biso   1.000  O
  O7       1.0000 0.59090  0.95750  0.95050  Biso   1.000  O
  O8       1.0000 0.44850  0.20070  0.03580  Biso   1.000  O
  O9       1.0000 0.78570  0.32720  0.60540  Biso   1.000  O
  O10      1.0000 0.40980  0.75520  0.56460  Biso   1.000  O
  O11      1.0000 0.99040  0.39310  0.95770  Biso   1.000  O
  O12      1.0000 0.15550  0.38910  0.86420  Biso   1.000  O
  O13      1.0000 0.40110  0.21520  0.66390  Biso   1.000  O
  O14      1.0000 0.43060  0.26480  0.79750  Biso   1.000  O
  O15      1.0000 0.55740  0.50440  0.88090  Biso   1.000  O
  O16      1.0000 0.61620  0.53830  0.01740  Biso   1.000  O
  O17      1.0000 0.52460  0.41490  0.71080  Biso   1.000  O
  O18      1.0000 0.44430  0.40150  0.57610  Biso   1.000  O
  C1       1.0000 0.78470  0.30870  0.67600  Biso   1.000  C
  C2       1.0000 0.70300  0.28690  0.69220  Biso   1.000  C
  C3       1.0000 0.64000  0.27540  0.62960  Biso   1.000  C
  H1       1.0000 0.64860  0.28140  0.57890  Biso   1.000  H
  C4       1.0000 0.56400  0.25480  0.64310  Biso   1.000  C
  H2       1.0000 0.52230  0.24580  0.60140  Biso   1.000  H
  C5       1.0000 0.55080  0.24790  0.71960  Biso   1.000  C
  C6       1.0000 0.61310  0.26000  0.78310  Biso   1.000  C
  H3       1.0000 0.60390  0.25600  0.83390  Biso   1.000  H
  C7       1.0000 0.68840  0.27790  0.76840  Biso   1.000  C
  H4       1.0000 0.73100  0.28420  0.81020  Biso   1.000  H
  C8       1.0000 0.47420  0.14270  0.78020  Biso   1.000  C
  C9       1.0000 0.47650  0.08860  0.73090  Biso   1.000  C
  H5       1.0000 0.46250  0.09340  0.67710  Biso   1.000  H
  C10      1.0000 0.50010  0.02790  0.76390  Biso   1.000  C
  H6       1.0000 0.50060  0.99050  0.73240  Biso   1.000  H
  C11      1.0000 0.52310  0.02220  0.84410  Biso   1.000  C
  C12      1.0000 0.52100  0.07570  0.89300  Biso   1.000  C
  H7       1.0000 0.53660  0.07090  0.94660  Biso   1.000  H
  C13      1.0000 0.49560  0.13670  0.86100  Biso   1.000  C
  H8       1.0000 0.49270  0.17350  0.89290  Biso   1.000  H
  C14      1.0000 0.55730  0.95850  0.87880  Biso   1.000  C
  C15      1.0000 0.93750  0.40440  0.89750  Biso   1.000  C
  C16      1.0000 0.85640  0.42930  0.91190  Biso   1.000  C
  C17      1.0000 0.78990  0.42510  0.85100  Biso   1.000  C
  H9       1.0000 0.79650  0.40990  0.80210  Biso   1.000  H
  C18      1.0000 0.71380  0.44380  0.86460  Biso   1.000  C
  H10      1.0000 0.66840  0.43980  0.82540  Biso   1.000  H
  C19      1.0000 0.70580  0.46870  0.93740  Biso   1.000  C
  C20      1.0000 0.77130  0.47540  0.99770  Biso   1.000  C
  H11      1.0000 0.76500  0.49330  0.04540  Biso   1.000  H
  C21      1.0000 0.84720  0.45460  0.98450  Biso   1.000  C
  H12      1.0000 0.89220  0.45750  0.02440  Biso   1.000  H
  C22      1.0000 0.57270  0.41610  0.99230  Biso   1.000  C
  C23      1.0000 0.53210  0.36980  0.94150  Biso   1.000  C
  H13      1.0000 0.52430  0.37670  0.88800  Biso   1.000  H
  C24      1.0000 0.50310  0.31300  0.97150  Biso   1.000  C
  H14      1.0000 0.47540  0.28120  0.93800  Biso   1.000  H
  C25      1.0000 0.51510  0.30270  0.05240  Biso   1.000  C
  C26      1.0000 0.55610  0.34950  0.10210  Biso   1.000  C
  H15      1.0000 0.56420  0.34260  0.15560  Biso   1.000  H
  C27      1.0000 0.58520  0.40670  0.07280  Biso   1.000  C
  H16      1.0000 0.61280  0.43860  0.10630  Biso   1.000  H
  C28      1.0000 0.48150  0.24190  0.08580  Biso   1.000  C
  C29      1.0000 0.15050  0.37770  0.79140  Biso   1.000  C
  C30      1.0000 0.22670  0.39240  0.75660  Biso   1.000  C
  C31      1.0000 0.29620  0.41550  0.80370  Biso   1.000  C
  H17      1.0000 0.29660  0.42300  0.85640  Biso   1.000  H
  C32      1.0000 0.36600  0.42790  0.77260  Biso   1.000  C
  H18      1.0000 0.41240  0.44490  0.80410  Biso   1.000  H
  C33      1.0000 0.36620  0.41460  0.69380  Biso   1.000  C
  C34      1.0000 0.29790  0.38910  0.64680  Biso   1.000  C
  H19      1.0000 0.29820  0.37970  0.59470  Biso   1.000  H
  C35      1.0000 0.22850  0.37780  0.67850  Biso   1.000  C
  H20      1.0000 0.18240  0.36010  0.64720  Biso   1.000  H
  C36      1.0000 0.45220  0.51850  0.64110  Biso   1.000  C
  C37      1.0000 0.48870  0.55650  0.70410  Biso   1.000  C
  H21      1.0000 0.51260  0.53630  0.75050  Biso   1.000  H
  C38      1.0000 0.48870  0.62400  0.69650  Biso   1.000  C
  H22      1.0000 0.51320  0.65040  0.73800  Biso   1.000  H
  C39      1.0000 0.45230  0.65360  0.62680  Biso   1.000  C
  C40      1.0000 0.41330  0.61480  0.56550  Biso   1.000  C
  H23      1.0000 0.38640  0.63490  0.52000  Biso   1.000  H
  C41      1.0000 0.41470  0.54690  0.57250  Biso   1.000  C
  H24      1.0000 0.39040  0.52020  0.53120  Biso   1.000  H
  C42      1.0000 0.45490  0.72750  0.62180  Biso   1.000  C
  Co4      1.0000 0.53149  0.83096  0.75864  Biso   1.000  Co
  Co5      1.0000 0.63457  0.86639  0.95246  Biso   1.000  Co
  Co6      1.0000 0.40935  0.85220  0.56256  Biso   1.000  Co
  S4       1.0000 0.04570  0.72236  0.76156  Biso   1.000  S
  S5       1.0000 0.89254  0.98977  0.54455  Biso   1.000  S
  S6       1.0000 0.04531  0.93097  0.84751  Biso   1.000  S
  O19      1.0000 0.01410  0.73910  0.34110  Biso   1.000  O
  O20      1.0000 0.40910  0.85580  0.75330  Biso   1.000  O
  O21      1.0000 0.55110  0.89740  0.67170  Biso   1.000  O
  O22      1.0000 0.99740  0.25750  0.82720  Biso   1.000  O
  O23      1.0000 0.93960  0.40800  0.66030  Biso   1.000  O
  O24      1.0000 0.65590  0.80660  0.76940  Biso   1.000  O
  O25      1.0000 0.90910  0.45750  0.54950  Biso   1.000  O
  O26      1.0000 0.05150  0.70070  0.46420  Biso   1.000  O
  O27      1.0000 0.71430  0.82720  0.89460  Biso   1.000  O
  O28      1.0000 0.09020  0.25520  0.93540  Biso   1.000  O
  O29      1.0000 0.50960  0.89310  0.54230  Biso   1.000  O
  O30      1.0000 0.34450  0.88910  0.63580  Biso   1.000  O
  O31      1.0000 0.09890  0.71520  0.83610  Biso   1.000  O
  O32      1.0000 0.06940  0.76480  0.70250  Biso   1.000  O
  O33      1.0000 0.94260  0.00440  0.61910  Biso   1.000  O
  O34      1.0000 0.88380  0.03830  0.48260  Biso   1.000  O
  O35      1.0000 0.97540  0.91490  0.78920  Biso   1.000  O
  O36      1.0000 0.05570  0.90150  0.92390  Biso   1.000  O
  C43      1.0000 0.71530  0.80870  0.82400  Biso   1.000  C
  C44      1.0000 0.79700  0.78690  0.80780  Biso   1.000  C
  C45      1.0000 0.86000  0.77540  0.87040  Biso   1.000  C
  H25      1.0000 0.85140  0.78140  0.92110  Biso   1.000  H
  C46      1.0000 0.93600  0.75480  0.85690  Biso   1.000  C
  H26      1.0000 0.97770  0.74580  0.89860  Biso   1.000  H
  C47      1.0000 0.94920  0.74790  0.78040  Biso   1.000  C
  C48      1.0000 0.88690  0.76000  0.71690  Biso   1.000  C
  H27      1.0000 0.89610  0.75600  0.66610  Biso   1.000  H
  C49      1.0000 0.81160  0.77790  0.73160  Biso   1.000  C
  H28      1.0000 0.76900  0.78420  0.68980  Biso   1.000  H
  C50      1.0000 0.02580  0.64270  0.71980  Biso   1.000  C
  C51      1.0000 0.02350  0.58860  0.76910  Biso   1.000  C
  H29      1.0000 0.03750  0.59340  0.82290  Biso   1.000  H
  C52      1.0000 0.99990  0.52790  0.73610  Biso   1.000  C
  H30      1.0000 0.99940  0.49050  0.76760  Biso   1.000  H
  C53      1.0000 0.97690  0.52220  0.65590  Biso   1.000  C
  C54      1.0000 0.97900  0.57570  0.60700  Biso   1.000  C
  H31      1.0000 0.96340  0.57090  0.55340  Biso   1.000  H
  C55      1.0000 0.00440  0.63670  0.63900  Biso   1.000  C
  H32      1.0000 0.00730  0.67350  0.60710  Biso   1.000  H
  C56      1.0000 0.94270  0.45850  0.62120  Biso   1.000  C
  C57      1.0000 0.56250  0.90440  0.60250  Biso   1.000  C
  C58      1.0000 0.64360  0.92930  0.58810  Biso   1.000  C
  C59      1.0000 0.71010  0.92510  0.64900  Biso   1.000  C
  H33      1.0000 0.70350  0.90990  0.69790  Biso   1.000  H
  C60      1.0000 0.78620  0.94380  0.63540  Biso   1.000  C
  H34      1.0000 0.83160  0.93980  0.67460  Biso   1.000  H
  C61      1.0000 0.79420  0.96870  0.56260  Biso   1.000  C
  C62      1.0000 0.72870  0.97540  0.50230  Biso   1.000  C
  H35      1.0000 0.73500  0.99330  0.45460  Biso   1.000  H
  C63      1.0000 0.65280  0.95460  0.51550  Biso   1.000  C
  H36      1.0000 0.60780  0.95750  0.47560  Biso   1.000  H
  C64      1.0000 0.92730  0.91610  0.50770  Biso   1.000  C
  C65      1.0000 0.96790  0.86980  0.55850  Biso   1.000  C
  H37      1.0000 0.97570  0.87670  0.61200  Biso   1.000  H
  C66      1.0000 0.99690  0.81300  0.52850  Biso   1.000  C
  H38      1.0000 0.02460  0.78120  0.56200  Biso   1.000  H
  C67      1.0000 0.98490  0.80270  0.44760  Biso   1.000  C
  C68      1.0000 0.94390  0.84950  0.39790  Biso   1.000  C
  H39      1.0000 0.93580  0.84260  0.34440  Biso   1.000  H
  C69      1.0000 0.91480  0.90670  0.42720  Biso   1.000  C
  H40      1.0000 0.88720  0.93860  0.39370  Biso   1.000  H
  C70      1.0000 0.01850  0.74190  0.41420  Biso   1.000  C
  C71      1.0000 0.34950  0.87770  0.70860  Biso   1.000  C
  C72      1.0000 0.27330  0.89240  0.74340  Biso   1.000  C
  C73      1.0000 0.20380  0.91550  0.69630  Biso   1.000  C
  H41      1.0000 0.20340  0.92300  0.64360  Biso   1.000  H
  C74      1.0000 0.13400  0.92790  0.72740  Biso   1.000  C
  H42      1.0000 0.08760  0.94490  0.69590  Biso   1.000  H
  C75      1.0000 0.13380  0.91460  0.80620  Biso   1.000  C
  C76      1.0000 0.20210  0.88910  0.85320  Biso   1.000  C
  H43      1.0000 0.20180  0.87970  0.90530  Biso   1.000  H
  C77      1.0000 0.27150  0.87780  0.82150  Biso   1.000  C
  H44      1.0000 0.31760  0.86010  0.85280  Biso   1.000  H
  C78      1.0000 0.04780  0.01850  0.85890  Biso   1.000  C
  C79      1.0000 0.01130  0.05650  0.79590  Biso   1.000  C
  H45      1.0000 0.98740  0.03630  0.74950  Biso   1.000  H
  C80      1.0000 0.01130  0.12400  0.80350  Biso   1.000  C
  H46      1.0000 0.98680  0.15040  0.76200  Biso   1.000  H
  C81      1.0000 0.04770  0.15360  0.87320  Biso   1.000  C
  C82      1.0000 0.08670  0.11480  0.93450  Biso   1.000  C
  H47      1.0000 0.11360  0.13490  0.98000  Biso   1.000  H
  C83      1.0000 0.08530  0.04690  0.92750  Biso   1.000  C
  H48      1.0000 0.10960  0.02020  0.96880  Biso   1.000  H
  C84      1.0000 0.04510  0.22750  0.87820  Biso   1.000  C
  Co7      1.0000 0.03149  0.66904  0.25864  Biso   1.000  Co
  Co8      1.0000 0.13457  0.63361  0.45246  Biso   1.000  Co
  Co9      1.0000 0.90935  0.64780  0.06256  Biso   1.000  Co
  S7       1.0000 0.54570  0.77764  0.26156  Biso   1.000  S
  S8       1.0000 0.39254  0.51023  0.04455  Biso   1.000  S
  S9       1.0000 0.54531  0.56903  0.34751  Biso   1.000  S
  O37      1.0000 0.51410  0.76090  0.84110  Biso   1.000  O
  O38      1.0000 0.90910  0.64420  0.25330  Biso   1.000  O
  O39      1.0000 0.05110  0.60260  0.17170  Biso   1.000  O
  O40      1.0000 0.49740  0.24250  0.32720  Biso   1.000  O
  O41      1.0000 0.43960  0.09200  0.16030  Biso   1.000  O
  O42      1.0000 0.15590  0.69340  0.26940  Biso   1.000  O
  O43      1.0000 0.40910  0.04250  0.04950  Biso   1.000  O
  O44      1.0000 0.55150  0.79930  0.96420  Biso   1.000  O
  O45      1.0000 0.21430  0.67280  0.39460  Biso   1.000  O
  O46      1.0000 0.59020  0.24480  0.43540  Biso   1.000  O
  O47      1.0000 0.00960  0.60690  0.04230  Biso   1.000  O
  O48      1.0000 0.84450  0.61090  0.13580  Biso   1.000  O
  O49      1.0000 0.59890  0.78480  0.33610  Biso   1.000  O
  O50      1.0000 0.56940  0.73520  0.20250  Biso   1.000  O
  O51      1.0000 0.44260  0.49560  0.11910  Biso   1.000  O
  O52      1.0000 0.38380  0.46170  0.98260  Biso   1.000  O
  O53      1.0000 0.47540  0.58510  0.28920  Biso   1.000  O
  O54      1.0000 0.55570  0.59850  0.42390  Biso   1.000  O
  C85      1.0000 0.21530  0.69130  0.32400  Biso   1.000  C
  C86      1.0000 0.29700  0.71310  0.30780  Biso   1.000  C
  C87      1.0000 0.36000  0.72460  0.37040  Biso   1.000  C
  H49      1.0000 0.35140  0.71860  0.42110  Biso   1.000  H
  C88      1.0000 0.43600  0.74520  0.35690  Biso   1.000  C
  H50      1.0000 0.47770  0.75420  0.39860  Biso   1.000  H
  C89      1.0000 0.44920  0.75210  0.28040  Biso   1.000  C
  C90      1.0000 0.38690  0.74000  0.21690  Biso   1.000  C
  H51      1.0000 0.39610  0.74400  0.16610  Biso   1.000  H
  C91      1.0000 0.31160  0.72210  0.23160  Biso   1.000  C
  H52      1.0000 0.26900  0.71580  0.18980  Biso   1.000  H
  C92      1.0000 0.52580  0.85730  0.21980  Biso   1.000  C
  C93      1.0000 0.52350  0.91140  0.26910  Biso   1.000  C
  H53      1.0000 0.53750  0.90660  0.32290  Biso   1.000  H
  C94      1.0000 0.49990  0.97210  0.23610  Biso   1.000  C
  H54      1.0000 0.49940  0.00950  0.26760  Biso   1.000  H
  C95      1.0000 0.47690  0.97780  0.15590  Biso   1.000  C
  C96      1.0000 0.47900  0.92430  0.10700  Biso   1.000  C
  H55      1.0000 0.46340  0.92910  0.05340  Biso   1.000  H
  C97      1.0000 0.50440  0.86330  0.13900  Biso   1.000  C
  H56      1.0000 0.50730  0.82650  0.10710  Biso   1.000  H
  C98      1.0000 0.44270  0.04150  0.12120  Biso   1.000  C
  C99      1.0000 0.06250  0.59560  0.10250  Biso   1.000  C
  C100     1.0000 0.14360  0.57070  0.08810  Biso   1.000  C
  C101     1.0000 0.21010  0.57490  0.14900  Biso   1.000  C
  H57      1.0000 0.20350  0.59010  0.19790  Biso   1.000  H
  C102     1.0000 0.28620  0.55620  0.13540  Biso   1.000  C
  H58      1.0000 0.33160  0.56020  0.17460  Biso   1.000  H
  C103     1.0000 0.29420  0.53130  0.06260  Biso   1.000  C
  C104     1.0000 0.22870  0.52460  0.00230  Biso   1.000  C
  H59      1.0000 0.23500  0.50670  0.95460  Biso   1.000  H
  C105     1.0000 0.15280  0.54540  0.01550  Biso   1.000  C
  H60      1.0000 0.10780  0.54250  0.97560  Biso   1.000  H
  C106     1.0000 0.42730  0.58390  0.00770  Biso   1.000  C
  C107     1.0000 0.46790  0.63020  0.05850  Biso   1.000  C
  H61      1.0000 0.47570  0.62330  0.11200  Biso   1.000  H
  C108     1.0000 0.49690  0.68700  0.02850  Biso   1.000  C
  H62      1.0000 0.52460  0.71880  0.06200  Biso   1.000  H
  C109     1.0000 0.48490  0.69730  0.94760  Biso   1.000  C
  C110     1.0000 0.44390  0.65050  0.89790  Biso   1.000  C
  H63      1.0000 0.43580  0.65740  0.84440  Biso   1.000  H
  C111     1.0000 0.41480  0.59330  0.92720  Biso   1.000  C
  H64      1.0000 0.38720  0.56140  0.89370  Biso   1.000  H
  C112     1.0000 0.51850  0.75810  0.91420  Biso   1.000  C
  C113     1.0000 0.84950  0.62230  0.20860  Biso   1.000  C
  C114     1.0000 0.77330  0.60760  0.24340  Biso   1.000  C
  C115     1.0000 0.70380  0.58450  0.19630  Biso   1.000  C
  H65      1.0000 0.70340  0.57700  0.14360  Biso   1.000  H
  C116     1.0000 0.63400  0.57210  0.22740  Biso   1.000  C
  H66      1.0000 0.58760  0.55510  0.19590  Biso   1.000  H
  C117     1.0000 0.63380  0.58540  0.30620  Biso   1.000  C
  C118     1.0000 0.70210  0.61090  0.35320  Biso   1.000  C
  H67      1.0000 0.70180  0.62030  0.40530  Biso   1.000  H
  C119     1.0000 0.77150  0.62220  0.32150  Biso   1.000  C
  H68      1.0000 0.81760  0.63990  0.35280  Biso   1.000  H
  C120     1.0000 0.54780  0.48150  0.35890  Biso   1.000  C
  C121     1.0000 0.51130  0.44350  0.29590  Biso   1.000  C
  H69      1.0000 0.48740  0.46370  0.24950  Biso   1.000  H
  C122     1.0000 0.51130  0.37600  0.30350  Biso   1.000  C
  H70      1.0000 0.48680  0.34960  0.26200  Biso   1.000  H
  C123     1.0000 0.54770  0.34640  0.37320  Biso   1.000  C
  C124     1.0000 0.58670  0.38520  0.43450  Biso   1.000  C
  H71      1.0000 0.61360  0.36510  0.48000  Biso   1.000  H
  C125     1.0000 0.58530  0.45310  0.42750  Biso   1.000  C
  H72      1.0000 0.60960  0.47980  0.46880  Biso   1.000  H
  C126     1.0000 0.54510  0.27250  0.37820  Biso   1.000  C
  Co10     1.0000 0.46851  0.16904  0.24136  Biso   1.000  Co
  Co11     1.0000 0.36543  0.13361  0.04754  Biso   1.000  Co
  Co12     1.0000 0.59065  0.14780  0.43744  Biso   1.000  Co
  S10      1.0000 0.95430  0.27764  0.23844  Biso   1.000  S
  S11      1.0000 0.10746  0.01023  0.45545  Biso   1.000  S
  S12      1.0000 0.95469  0.06903  0.15249  Biso   1.000  S
  O55      1.0000 0.98590  0.26090  0.65890  Biso   1.000  O
  O56      1.0000 0.59090  0.14420  0.24670  Biso   1.000  O
  O57      1.0000 0.44890  0.10260  0.32830  Biso   1.000  O
  O58      1.0000 0.00260  0.74250  0.17280  Biso   1.000  O
  O59      1.0000 0.06040  0.59200  0.33970  Biso   1.000  O
  O60      1.0000 0.34410  0.19340  0.23060  Biso   1.000  O
  O61      1.0000 0.09090  0.54250  0.45050  Biso   1.000  O
  O62      1.0000 0.94850  0.29930  0.53580  Biso   1.000  O
  O63      1.0000 0.28570  0.17280  0.10540  Biso   1.000  O
  O64      1.0000 0.90980  0.74480  0.06460  Biso   1.000  O
  O65      1.0000 0.49040  0.10690  0.45770  Biso   1.000  O
  O66      1.0000 0.65550  0.11090  0.36420  Biso   1.000  O
  O67      1.0000 0.90110  0.28480  0.16390  Biso   1.000  O
  O68      1.0000 0.93060  0.23520  0.29750  Biso   1.000  O
  O69      1.0000 0.05740  0.99560  0.38090  Biso   1.000  O
  O70      1.0000 0.11620  0.96170  0.51740  Biso   1.000  O
  O71      1.0000 0.02460  0.08510  0.21080  Biso   1.000  O
  O72      1.0000 0.94430  0.09850  0.07610  Biso   1.000  O
  C127     1.0000 0.28470  0.19130  0.17600  Biso   1.000  C
  C128     1.0000 0.20300  0.21310  0.19220  Biso   1.000  C
  C129     1.0000 0.14000  0.22460  0.12960  Biso   1.000  C
  H73      1.0000 0.14860  0.21860  0.07890  Biso   1.000  H
  C130     1.0000 0.06400  0.24520  0.14310  Biso   1.000  C
  H74      1.0000 0.02230  0.25420  0.10140  Biso   1.000  H
  C131     1.0000 0.05080  0.25210  0.21960  Biso   1.000  C
  C132     1.0000 0.11310  0.24000  0.28310  Biso   1.000  C
  H75      1.0000 0.10390  0.24400  0.33390  Biso   1.000  H
  C133     1.0000 0.18840  0.22210  0.26840  Biso   1.000  C
  H76      1.0000 0.23100  0.21580  0.31020  Biso   1.000  H
  C134     1.0000 0.97420  0.35730  0.28020  Biso   1.000  C
  C135     1.0000 0.97650  0.41140  0.23090  Biso   1.000  C
  H77      1.0000 0.96250  0.40660  0.17710  Biso   1.000  H
  C136     1.0000 0.00010  0.47210  0.26390  Biso   1.000  C
  H78      1.0000 0.00060  0.50950  0.23240  Biso   1.000  H
  C137     1.0000 0.02310  0.47780  0.34410  Biso   1.000  C
  C138     1.0000 0.02100  0.42430  0.39300  Biso   1.000  C
  H79      1.0000 0.03660  0.42910  0.44660  Biso   1.000  H
  C139     1.0000 0.99560  0.36330  0.36100  Biso   1.000  C
  H80      1.0000 0.99270  0.32650  0.39290  Biso   1.000  H
  C140     1.0000 0.05730  0.54150  0.37880  Biso   1.000  C
  C141     1.0000 0.43750  0.09560  0.39750  Biso   1.000  C
  C142     1.0000 0.35640  0.07070  0.41190  Biso   1.000  C
  C143     1.0000 0.28990  0.07490  0.35100  Biso   1.000  C
  H81      1.0000 0.29650  0.09010  0.30210  Biso   1.000  H
  C144     1.0000 0.21380  0.05620  0.36460  Biso   1.000  C
  H82      1.0000 0.16840  0.06020  0.32540  Biso   1.000  H
  C145     1.0000 0.20580  0.03130  0.43740  Biso   1.000  C
  C146     1.0000 0.27130  0.02460  0.49770  Biso   1.000  C
  H83      1.0000 0.26500  0.00670  0.54540  Biso   1.000  H
  C147     1.0000 0.34720  0.04540  0.48450  Biso   1.000  C
  H84      1.0000 0.39220  0.04250  0.52440  Biso   1.000  H
  C148     1.0000 0.07270  0.08390  0.49230  Biso   1.000  C
  C149     1.0000 0.03210  0.13020  0.44150  Biso   1.000  C
  H85      1.0000 0.02430  0.12330  0.38800  Biso   1.000  H
  C150     1.0000 0.00310  0.18700  0.47150  Biso   1.000  C
  H86      1.0000 0.97540  0.21880  0.43800  Biso   1.000  H
  C151     1.0000 0.01510  0.19730  0.55240  Biso   1.000  C
  C152     1.0000 0.05610  0.15050  0.60210  Biso   1.000  C
  H87      1.0000 0.06420  0.15740  0.65560  Biso   1.000  H
  C153     1.0000 0.08520  0.09330  0.57280  Biso   1.000  C
  H88      1.0000 0.11280  0.06140  0.60630  Biso   1.000  H
  C154     1.0000 0.98150  0.25810  0.58580  Biso   1.000  C
  C155     1.0000 0.65050  0.12230  0.29140  Biso   1.000  C
  C156     1.0000 0.72670  0.10760  0.25660  Biso   1.000  C
  C157     1.0000 0.79620  0.08450  0.30370  Biso   1.000  C
  H89      1.0000 0.79660  0.07700  0.35640  Biso   1.000  H
  C158     1.0000 0.86600  0.07210  0.27260  Biso   1.000  C
  H90      1.0000 0.91240  0.05510  0.30410  Biso   1.000  H
  C159     1.0000 0.86620  0.08540  0.19380  Biso   1.000  C
  C160     1.0000 0.79790  0.11090  0.14680  Biso   1.000  C
  H91      1.0000 0.79820  0.12030  0.09470  Biso   1.000  H
  C161     1.0000 0.72850  0.12220  0.17850  Biso   1.000  C
  H92      1.0000 0.68240  0.13990  0.14720  Biso   1.000  H
  C162     1.0000 0.95220  0.98150  0.14110  Biso   1.000  C
  C163     1.0000 0.98870  0.94350  0.20410  Biso   1.000  C
  H93      1.0000 0.01260  0.96370  0.25050  Biso   1.000  H
  C164     1.0000 0.98870  0.87600  0.19650  Biso   1.000  C
  H94      1.0000 0.01320  0.84960  0.23800  Biso   1.000  H
  C165     1.0000 0.95230  0.84640  0.12680  Biso   1.000  C
  C166     1.0000 0.91330  0.88520  0.06550  Biso   1.000  C
  H95      1.0000 0.88640  0.86510  0.02000  Biso   1.000  H
  C167     1.0000 0.91470  0.95310  0.07250  Biso   1.000  C
  H96      1.0000 0.89040  0.97980  0.03120  Biso   1.000  H
  C168     1.0000 0.95490  0.77250  0.12180  Biso   1.000  C
