data_image0
_cell_length_a       26.2092
_cell_length_b       11.6278
_cell_length_c       16.1167
_cell_angle_alpha    90
_cell_angle_beta     122.49
_cell_angle_gamma    90

_symmetry_space_group_name_H-M    "P 1"
_symmetry_int_tables_number       1

loop_
  _symmetry_equiv_pos_as_xyz
  'x, y, z'

loop_
  _atom_site_label
  _atom_site_occupancy
  _atom_site_fract_x
  _atom_site_fract_y
  _atom_site_fract_z
  _atom_site_thermal_displace_type
  _atom_site_B_iso_or_equiv
  _atom_site_type_symbol
  Cu1      1.0000 0.24229  0.11737  0.44998  Biso   1.000  Cu
  Cu2      1.0000 0.31227  0.23223  0.32770  Biso   1.000  Cu
  Cu3      1.0000 0.56794  0.35388  0.50811  Biso   1.000  Cu
  N1       1.0000 0.42410  0.17740  0.63390  Biso   1.000  N
  N2       1.0000 0.32690  0.14630  0.52430  Biso   1.000  N
  N3       1.0000 0.35157  0.19960  0.47700  Biso   1.000  N
  N4       1.0000 0.38930  0.25810  0.34180  Biso   1.000  N
  N5       1.0000 0.48567  0.30760  0.41340  Biso   1.000  N
  N6       1.0000 0.46131  0.30190  0.31320  Biso   1.000  N
  N7       1.0000 0.57487  0.48230  0.35370  Biso   1.000  N
  N8       1.0000 0.60266  0.46250  0.45300  Biso   1.000  N
  N9       1.0000 0.66742  0.55750  0.42870  Biso   1.000  N
  N10      1.0000 0.62977  0.68950  0.14470  Biso   1.000  N
  N11      1.0000 0.72665  0.71980  0.25970  Biso   1.000  N
  N12      1.0000 0.70167  0.65570  0.30140  Biso   1.000  N
  C1       1.0000 0.36600  0.07740  0.69550  Biso   1.000  C
  H1       1.0000 0.32340  0.06060  0.66990  Biso   1.000  H
  H2       1.0000 0.38190  0.12890  0.75220  Biso   1.000  H
  H3       1.0000 0.38920  0.00550  0.71570  Biso   1.000  H
  C2       1.0000 0.37120  0.13330  0.61780  Biso   1.000  C
  C3       1.0000 0.40910  0.21750  0.54460  Biso   1.000  C
  C4       1.0000 0.45340  0.27890  0.52930  Biso   1.000  C
  H4       1.0000 0.49360  0.24370  0.57360  Biso   1.000  H
  H5       1.0000 0.45590  0.35950  0.55080  Biso   1.000  H
  C5       1.0000 0.44180  0.28080  0.42770  Biso   1.000  C
  C6       1.0000 0.40400  0.27250  0.27330  Biso   1.000  C
  C7       1.0000 0.36070  0.25410  0.16550  Biso   1.000  C
  H6       1.0000 0.38330  0.24200  0.13370  Biso   1.000  H
  H7       1.0000 0.33470  0.32190  0.13700  Biso   1.000  H
  H8       1.0000 0.33570  0.18640  0.15530  Biso   1.000  H
  C8       1.0000 0.70320  0.51320  0.60320  Biso   1.000  C
  H9       1.0000 0.68260  0.50860  0.63880  Biso   1.000  H
  H10      1.0000 0.72590  0.58550  0.61960  Biso   1.000  H
  H11      1.0000 0.73120  0.44830  0.62200  Biso   1.000  H
  C9       1.0000 0.65770  0.50900  0.49540  Biso   1.000  C
  C10      1.0000 0.61440  0.53860  0.34160  Biso   1.000  C
  C11      1.0000 0.59890  0.57340  0.24110  Biso   1.000  C
  H12      1.0000 0.56150  0.62020  0.21090  Biso   1.000  H
  H13      1.0000 0.58900  0.50260  0.20120  Biso   1.000  H
  C12      1.0000 0.64470  0.63940  0.23170  Biso   1.000  C
  C13      1.0000 0.68290  0.73950  0.16680  Biso   1.000  C
  C14      1.0000 0.69040  0.80860  0.09680  Biso   1.000  C
  H14      1.0000 0.72720  0.85510  0.13330  Biso   1.000  H
  H15      1.0000 0.65530  0.85920  0.05920  Biso   1.000  H
  H16      1.0000 0.69350  0.75710  0.05170  Biso   1.000  H
  Cu4      1.0000 0.74229  0.61737  0.44998  Biso   1.000  Cu
  Cu5      1.0000 0.81227  0.73223  0.32770  Biso   1.000  Cu
  Cu6      1.0000 0.06794  0.85388  0.50811  Biso   1.000  Cu
  N13      1.0000 0.92410  0.67740  0.63390  Biso   1.000  N
  N14      1.0000 0.82690  0.64630  0.52430  Biso   1.000  N
  N15      1.0000 0.85157  0.69960  0.47700  Biso   1.000  N
  N16      1.0000 0.88930  0.75810  0.34180  Biso   1.000  N
  N17      1.0000 0.98567  0.80760  0.41340  Biso   1.000  N
  N18      1.0000 0.96131  0.80190  0.31320  Biso   1.000  N
  N19      1.0000 0.07487  0.98230  0.35370  Biso   1.000  N
  N20      1.0000 0.10266  0.96250  0.45300  Biso   1.000  N
  N21      1.0000 0.16742  0.05750  0.42870  Biso   1.000  N
  N22      1.0000 0.12977  0.18950  0.14470  Biso   1.000  N
  N23      1.0000 0.22665  0.21980  0.25970  Biso   1.000  N
  N24      1.0000 0.20167  0.15570  0.30140  Biso   1.000  N
  C15      1.0000 0.86600  0.57740  0.69550  Biso   1.000  C
  H17      1.0000 0.82340  0.56060  0.66990  Biso   1.000  H
  H18      1.0000 0.88190  0.62890  0.75220  Biso   1.000  H
  H19      1.0000 0.88920  0.50550  0.71570  Biso   1.000  H
  C16      1.0000 0.87120  0.63330  0.61780  Biso   1.000  C
  C17      1.0000 0.90910  0.71750  0.54460  Biso   1.000  C
  C18      1.0000 0.95340  0.77890  0.52930  Biso   1.000  C
  H20      1.0000 0.99360  0.74370  0.57360  Biso   1.000  H
  H21      1.0000 0.95590  0.85950  0.55080  Biso   1.000  H
  C19      1.0000 0.94180  0.78080  0.42770  Biso   1.000  C
  C20      1.0000 0.90400  0.77250  0.27330  Biso   1.000  C
  C21      1.0000 0.86070  0.75410  0.16550  Biso   1.000  C
  H22      1.0000 0.88330  0.74200  0.13370  Biso   1.000  H
  H23      1.0000 0.83470  0.82190  0.13700  Biso   1.000  H
  H24      1.0000 0.83570  0.68640  0.15530  Biso   1.000  H
  C22      1.0000 0.20320  0.01320  0.60320  Biso   1.000  C
  H25      1.0000 0.18260  0.00860  0.63880  Biso   1.000  H
  H26      1.0000 0.22590  0.08550  0.61960  Biso   1.000  H
  H27      1.0000 0.23120  0.94830  0.62200  Biso   1.000  H
  C23      1.0000 0.15770  0.00900  0.49540  Biso   1.000  C
  C24      1.0000 0.11440  0.03860  0.34160  Biso   1.000  C
  C25      1.0000 0.09890  0.07340  0.24110  Biso   1.000  C
  H28      1.0000 0.06150  0.12020  0.21090  Biso   1.000  H
  H29      1.0000 0.08900  0.00260  0.20120  Biso   1.000  H
  C26      1.0000 0.14470  0.13940  0.23170  Biso   1.000  C
  C27      1.0000 0.18290  0.23950  0.16680  Biso   1.000  C
  C28      1.0000 0.19040  0.30860  0.09680  Biso   1.000  C
  H30      1.0000 0.22720  0.35510  0.13330  Biso   1.000  H
  H31      1.0000 0.15530  0.35920  0.05920  Biso   1.000  H
  H32      1.0000 0.19350  0.25710  0.05170  Biso   1.000  H
  Cu7      1.0000 0.75771  0.11737  0.05002  Biso   1.000  Cu
  Cu8      1.0000 0.68773  0.23223  0.17230  Biso   1.000  Cu
  Cu9      1.0000 0.43206  0.35388  0.99189  Biso   1.000  Cu
  N25      1.0000 0.57590  0.17740  0.86610  Biso   1.000  N
  N26      1.0000 0.67310  0.14630  0.97570  Biso   1.000  N
  N27      1.0000 0.64843  0.19960  0.02300  Biso   1.000  N
  N28      1.0000 0.61070  0.25810  0.15820  Biso   1.000  N
  N29      1.0000 0.51433  0.30760  0.08660  Biso   1.000  N
  N30      1.0000 0.53869  0.30190  0.18680  Biso   1.000  N
  N31      1.0000 0.42513  0.48230  0.14630  Biso   1.000  N
  N32      1.0000 0.39734  0.46250  0.04700  Biso   1.000  N
  N33      1.0000 0.33258  0.55750  0.07130  Biso   1.000  N
  N34      1.0000 0.37023  0.68950  0.35530  Biso   1.000  N
  N35      1.0000 0.27335  0.71980  0.24030  Biso   1.000  N
  N36      1.0000 0.29833  0.65570  0.19860  Biso   1.000  N
  C29      1.0000 0.63400  0.07740  0.80450  Biso   1.000  C
  H33      1.0000 0.67660  0.06060  0.83010  Biso   1.000  H
  H34      1.0000 0.61810  0.12890  0.74780  Biso   1.000  H
  H35      1.0000 0.61080  0.00550  0.78430  Biso   1.000  H
  C30      1.0000 0.62880  0.13330  0.88220  Biso   1.000  C
  C31      1.0000 0.59090  0.21750  0.95540  Biso   1.000  C
  C32      1.0000 0.54660  0.27890  0.97070  Biso   1.000  C
  H36      1.0000 0.50640  0.24370  0.92640  Biso   1.000  H
  H37      1.0000 0.54410  0.35950  0.94920  Biso   1.000  H
  C33      1.0000 0.55820  0.28080  0.07230  Biso   1.000  C
  C34      1.0000 0.59600  0.27250  0.22670  Biso   1.000  C
  C35      1.0000 0.63930  0.25410  0.33450  Biso   1.000  C
  H38      1.0000 0.61670  0.24200  0.36630  Biso   1.000  H
  H39      1.0000 0.66530  0.32190  0.36300  Biso   1.000  H
  H40      1.0000 0.66430  0.18640  0.34470  Biso   1.000  H
  C36      1.0000 0.29680  0.51320  0.89680  Biso   1.000  C
  H41      1.0000 0.31740  0.50860  0.86120  Biso   1.000  H
  H42      1.0000 0.27410  0.58550  0.88040  Biso   1.000  H
  H43      1.0000 0.26880  0.44830  0.87800  Biso   1.000  H
  C37      1.0000 0.34230  0.50900  0.00460  Biso   1.000  C
  C38      1.0000 0.38560  0.53860  0.15840  Biso   1.000  C
  C39      1.0000 0.40110  0.57340  0.25890  Biso   1.000  C
  H44      1.0000 0.43850  0.62020  0.28910  Biso   1.000  H
  H45      1.0000 0.41100  0.50260  0.29880  Biso   1.000  H
  C40      1.0000 0.35530  0.63940  0.26830  Biso   1.000  C
  C41      1.0000 0.31710  0.73950  0.33320  Biso   1.000  C
  C42      1.0000 0.30960  0.80860  0.40320  Biso   1.000  C
  H46      1.0000 0.27280  0.85510  0.36670  Biso   1.000  H
  H47      1.0000 0.34470  0.85920  0.44080  Biso   1.000  H
  H48      1.0000 0.30650  0.75710  0.44830  Biso   1.000  H
  Cu10     1.0000 0.25771  0.61737  0.05002  Biso   1.000  Cu
  Cu11     1.0000 0.18773  0.73223  0.17230  Biso   1.000  Cu
  Cu12     1.0000 0.93206  0.85388  0.99189  Biso   1.000  Cu
  N37      1.0000 0.07590  0.67740  0.86610  Biso   1.000  N
  N38      1.0000 0.17310  0.64630  0.97570  Biso   1.000  N
  N39      1.0000 0.14843  0.69960  0.02300  Biso   1.000  N
  N40      1.0000 0.11070  0.75810  0.15820  Biso   1.000  N
  N41      1.0000 0.01433  0.80760  0.08660  Biso   1.000  N
  N42      1.0000 0.03869  0.80190  0.18680  Biso   1.000  N
  N43      1.0000 0.92513  0.98230  0.14630  Biso   1.000  N
  N44      1.0000 0.89734  0.96250  0.04700  Biso   1.000  N
  N45      1.0000 0.83258  0.05750  0.07130  Biso   1.000  N
  N46      1.0000 0.87023  0.18950  0.35530  Biso   1.000  N
  N47      1.0000 0.77335  0.21980  0.24030  Biso   1.000  N
  N48      1.0000 0.79833  0.15570  0.19860  Biso   1.000  N
  C43      1.0000 0.13400  0.57740  0.80450  Biso   1.000  C
  H49      1.0000 0.17660  0.56060  0.83010  Biso   1.000  H
  H50      1.0000 0.11810  0.62890  0.74780  Biso   1.000  H
  H51      1.0000 0.11080  0.50550  0.78430  Biso   1.000  H
  C44      1.0000 0.12880  0.63330  0.88220  Biso   1.000  C
  C45      1.0000 0.09090  0.71750  0.95540  Biso   1.000  C
  C46      1.0000 0.04660  0.77890  0.97070  Biso   1.000  C
  H52      1.0000 0.00640  0.74370  0.92640  Biso   1.000  H
  H53      1.0000 0.04410  0.85950  0.94920  Biso   1.000  H
  C47      1.0000 0.05820  0.78080  0.07230  Biso   1.000  C
  C48      1.0000 0.09600  0.77250  0.22670  Biso   1.000  C
  C49      1.0000 0.13930  0.75410  0.33450  Biso   1.000  C
  H54      1.0000 0.11670  0.74200  0.36630  Biso   1.000  H
  H55      1.0000 0.16530  0.82190  0.36300  Biso   1.000  H
  H56      1.0000 0.16430  0.68640  0.34470  Biso   1.000  H
  C50      1.0000 0.79680  0.01320  0.89680  Biso   1.000  C
  H57      1.0000 0.81740  0.00860  0.86120  Biso   1.000  H
  H58      1.0000 0.77410  0.08550  0.88040  Biso   1.000  H
  H59      1.0000 0.76880  0.94830  0.87800  Biso   1.000  H
  C51      1.0000 0.84230  0.00900  0.00460  Biso   1.000  C
  C52      1.0000 0.88560  0.03860  0.15840  Biso   1.000  C
  C53      1.0000 0.90110  0.07340  0.25890  Biso   1.000  C
  H60      1.0000 0.93850  0.12020  0.28910  Biso   1.000  H
  H61      1.0000 0.91100  0.00260  0.29880  Biso   1.000  H
  C54      1.0000 0.85530  0.13940  0.26830  Biso   1.000  C
  C55      1.0000 0.81710  0.23950  0.33320  Biso   1.000  C
  C56      1.0000 0.80960  0.30860  0.40320  Biso   1.000  C
  H62      1.0000 0.77280  0.35510  0.36670  Biso   1.000  H
  H63      1.0000 0.84470  0.35920  0.44080  Biso   1.000  H
  H64      1.0000 0.80650  0.25710  0.44830  Biso   1.000  H
  Cu13     1.0000 0.75771  0.88263  0.55002  Biso   1.000  Cu
  Cu14     1.0000 0.68773  0.76777  0.67230  Biso   1.000  Cu
  Cu15     1.0000 0.43206  0.64612  0.49189  Biso   1.000  Cu
  N49      1.0000 0.57590  0.82260  0.36610  Biso   1.000  N
  N50      1.0000 0.67310  0.85370  0.47570  Biso   1.000  N
  N51      1.0000 0.64843  0.80040  0.52300  Biso   1.000  N
  N52      1.0000 0.61070  0.74190  0.65820  Biso   1.000  N
  N53      1.0000 0.51433  0.69240  0.58660  Biso   1.000  N
  N54      1.0000 0.53869  0.69810  0.68680  Biso   1.000  N
  N55      1.0000 0.42513  0.51770  0.64630  Biso   1.000  N
  N56      1.0000 0.39734  0.53750  0.54700  Biso   1.000  N
  N57      1.0000 0.33258  0.44250  0.57130  Biso   1.000  N
  N58      1.0000 0.37023  0.31050  0.85530  Biso   1.000  N
  N59      1.0000 0.27335  0.28020  0.74030  Biso   1.000  N
  N60      1.0000 0.29833  0.34430  0.69860  Biso   1.000  N
  C57      1.0000 0.63400  0.92260  0.30450  Biso   1.000  C
  H65      1.0000 0.67660  0.93940  0.33010  Biso   1.000  H
  H66      1.0000 0.61810  0.87110  0.24780  Biso   1.000  H
  H67      1.0000 0.61080  0.99450  0.28430  Biso   1.000  H
  C58      1.0000 0.62880  0.86670  0.38220  Biso   1.000  C
  C59      1.0000 0.59090  0.78250  0.45540  Biso   1.000  C
  C60      1.0000 0.54660  0.72110  0.47070  Biso   1.000  C
  H68      1.0000 0.50640  0.75630  0.42640  Biso   1.000  H
  H69      1.0000 0.54410  0.64050  0.44920  Biso   1.000  H
  C61      1.0000 0.55820  0.71920  0.57230  Biso   1.000  C
  C62      1.0000 0.59600  0.72750  0.72670  Biso   1.000  C
  C63      1.0000 0.63930  0.74590  0.83450  Biso   1.000  C
  H70      1.0000 0.61670  0.75800  0.86630  Biso   1.000  H
  H71      1.0000 0.66530  0.67810  0.86300  Biso   1.000  H
  H72      1.0000 0.66430  0.81360  0.84470  Biso   1.000  H
  C64      1.0000 0.29680  0.48680  0.39680  Biso   1.000  C
  H73      1.0000 0.31740  0.49140  0.36120  Biso   1.000  H
  H74      1.0000 0.27410  0.41450  0.38040  Biso   1.000  H
  H75      1.0000 0.26880  0.55170  0.37800  Biso   1.000  H
  C65      1.0000 0.34230  0.49100  0.50460  Biso   1.000  C
  C66      1.0000 0.38560  0.46140  0.65840  Biso   1.000  C
  C67      1.0000 0.40110  0.42660  0.75890  Biso   1.000  C
  H76      1.0000 0.43850  0.37980  0.78910  Biso   1.000  H
  H77      1.0000 0.41100  0.49740  0.79880  Biso   1.000  H
  C68      1.0000 0.35530  0.36060  0.76830  Biso   1.000  C
  C69      1.0000 0.31710  0.26050  0.83320  Biso   1.000  C
  C70      1.0000 0.30960  0.19140  0.90320  Biso   1.000  C
  H78      1.0000 0.27280  0.14490  0.86670  Biso   1.000  H
  H79      1.0000 0.34470  0.14080  0.94080  Biso   1.000  H
  H80      1.0000 0.30650  0.24290  0.94830  Biso   1.000  H
  Cu16     1.0000 0.25771  0.38263  0.55002  Biso   1.000  Cu
  Cu17     1.0000 0.18773  0.26777  0.67230  Biso   1.000  Cu
  Cu18     1.0000 0.93206  0.14612  0.49189  Biso   1.000  Cu
  N61      1.0000 0.07590  0.32260  0.36610  Biso   1.000  N
  N62      1.0000 0.17310  0.35370  0.47570  Biso   1.000  N
  N63      1.0000 0.14843  0.30040  0.52300  Biso   1.000  N
  N64      1.0000 0.11070  0.24190  0.65820  Biso   1.000  N
  N65      1.0000 0.01433  0.19240  0.58660  Biso   1.000  N
  N66      1.0000 0.03869  0.19810  0.68680  Biso   1.000  N
  N67      1.0000 0.92513  0.01770  0.64630  Biso   1.000  N
  N68      1.0000 0.89734  0.03750  0.54700  Biso   1.000  N
  N69      1.0000 0.83258  0.94250  0.57130  Biso   1.000  N
  N70      1.0000 0.87023  0.81050  0.85530  Biso   1.000  N
  N71      1.0000 0.77335  0.78020  0.74030  Biso   1.000  N
  N72      1.0000 0.79833  0.84430  0.69860  Biso   1.000  N
  C71      1.0000 0.13400  0.42260  0.30450  Biso   1.000  C
  H81      1.0000 0.17660  0.43940  0.33010  Biso   1.000  H
  H82      1.0000 0.11810  0.37110  0.24780  Biso   1.000  H
  H83      1.0000 0.11080  0.49450  0.28430  Biso   1.000  H
  C72      1.0000 0.12880  0.36670  0.38220  Biso   1.000  C
  C73      1.0000 0.09090  0.28250  0.45540  Biso   1.000  C
  C74      1.0000 0.04660  0.22110  0.47070  Biso   1.000  C
  H84      1.0000 0.00640  0.25630  0.42640  Biso   1.000  H
  H85      1.0000 0.04410  0.14050  0.44920  Biso   1.000  H
  C75      1.0000 0.05820  0.21920  0.57230  Biso   1.000  C
  C76      1.0000 0.09600  0.22750  0.72670  Biso   1.000  C
  C77      1.0000 0.13930  0.24590  0.83450  Biso   1.000  C
  H86      1.0000 0.11670  0.25800  0.86630  Biso   1.000  H
  H87      1.0000 0.16530  0.17810  0.86300  Biso   1.000  H
  H88      1.0000 0.16430  0.31360  0.84470  Biso   1.000  H
  C78      1.0000 0.79680  0.98680  0.39680  Biso   1.000  C
  H89      1.0000 0.81740  0.99140  0.36120  Biso   1.000  H
  H90      1.0000 0.77410  0.91450  0.38040  Biso   1.000  H
  H91      1.0000 0.76880  0.05170  0.37800  Biso   1.000  H
  C79      1.0000 0.84230  0.99100  0.50460  Biso   1.000  C
  C80      1.0000 0.88560  0.96140  0.65840  Biso   1.000  C
  C81      1.0000 0.90110  0.92660  0.75890  Biso   1.000  C
  H92      1.0000 0.93850  0.87980  0.78910  Biso   1.000  H
  H93      1.0000 0.91100  0.99740  0.79880  Biso   1.000  H
  C82      1.0000 0.85530  0.86060  0.76830  Biso   1.000  C
  C83      1.0000 0.81710  0.76050  0.83320  Biso   1.000  C
  C84      1.0000 0.80960  0.69140  0.90320  Biso   1.000  C
  H94      1.0000 0.77280  0.64490  0.86670  Biso   1.000  H
  H95      1.0000 0.84470  0.64080  0.94080  Biso   1.000  H
  H96      1.0000 0.80650  0.74290  0.94830  Biso   1.000  H
  Cu19     1.0000 0.24229  0.88263  0.94998  Biso   1.000  Cu
  Cu20     1.0000 0.31227  0.76777  0.82770  Biso   1.000  Cu
  Cu21     1.0000 0.56794  0.64612  0.00811  Biso   1.000  Cu
  N73      1.0000 0.42410  0.82260  0.13390  Biso   1.000  N
  N74      1.0000 0.32690  0.85370  0.02430  Biso   1.000  N
  N75      1.0000 0.35157  0.80040  0.97700  Biso   1.000  N
  N76      1.0000 0.38930  0.74190  0.84180  Biso   1.000  N
  N77      1.0000 0.48567  0.69240  0.91340  Biso   1.000  N
  N78      1.0000 0.46131  0.69810  0.81320  Biso   1.000  N
  N79      1.0000 0.57487  0.51770  0.85370  Biso   1.000  N
  N80      1.0000 0.60266  0.53750  0.95300  Biso   1.000  N
  N81      1.0000 0.66742  0.44250  0.92870  Biso   1.000  N
  N82      1.0000 0.62977  0.31050  0.64470  Biso   1.000  N
  N83      1.0000 0.72665  0.28020  0.75970  Biso   1.000  N
  N84      1.0000 0.70167  0.34430  0.80140  Biso   1.000  N
  C85      1.0000 0.36600  0.92260  0.19550  Biso   1.000  C
  H97      1.0000 0.32340  0.93940  0.16990  Biso   1.000  H
  H98      1.0000 0.38190  0.87110  0.25220  Biso   1.000  H
  H99      1.0000 0.38920  0.99450  0.21570  Biso   1.000  H
  C86      1.0000 0.37120  0.86670  0.11780  Biso   1.000  C
  C87      1.0000 0.40910  0.78250  0.04460  Biso   1.000  C
  C88      1.0000 0.45340  0.72110  0.02930  Biso   1.000  C
  H100     1.0000 0.49360  0.75630  0.07360  Biso   1.000  H
  H101     1.0000 0.45590  0.64050  0.05080  Biso   1.000  H
  C89      1.0000 0.44180  0.71920  0.92770  Biso   1.000  C
  C90      1.0000 0.40400  0.72750  0.77330  Biso   1.000  C
  C91      1.0000 0.36070  0.74590  0.66550  Biso   1.000  C
  H102     1.0000 0.38330  0.75800  0.63370  Biso   1.000  H
  H103     1.0000 0.33470  0.67810  0.63700  Biso   1.000  H
  H104     1.0000 0.33570  0.81360  0.65530  Biso   1.000  H
  C92      1.0000 0.70320  0.48680  0.10320  Biso   1.000  C
  H105     1.0000 0.68260  0.49140  0.13880  Biso   1.000  H
  H106     1.0000 0.72590  0.41450  0.11960  Biso   1.000  H
  H107     1.0000 0.73120  0.55170  0.12200  Biso   1.000  H
  C93      1.0000 0.65770  0.49100  0.99540  Biso   1.000  C
  C94      1.0000 0.61440  0.46140  0.84160  Biso   1.000  C
  C95      1.0000 0.59890  0.42660  0.74110  Biso   1.000  C
  H108     1.0000 0.56150  0.37980  0.71090  Biso   1.000  H
  H109     1.0000 0.58900  0.49740  0.70120  Biso   1.000  H
  C96      1.0000 0.64470  0.36060  0.73170  Biso   1.000  C
  C97      1.0000 0.68290  0.26050  0.66680  Biso   1.000  C
  C98      1.0000 0.69040  0.19140  0.59680  Biso   1.000  C
  H110     1.0000 0.72720  0.14490  0.63330  Biso   1.000  H
  H111     1.0000 0.65530  0.14080  0.55920  Biso   1.000  H
  H112     1.0000 0.69350  0.24290  0.55170  Biso   1.000  H
  Cu22     1.0000 0.74229  0.38263  0.94998  Biso   1.000  Cu
  Cu23     1.0000 0.81227  0.26777  0.82770  Biso   1.000  Cu
  Cu24     1.0000 0.06794  0.14612  0.00811  Biso   1.000  Cu
  N85      1.0000 0.92410  0.32260  0.13390  Biso   1.000  N
  N86      1.0000 0.82690  0.35370  0.02430  Biso   1.000  N
  N87      1.0000 0.85157  0.30040  0.97700  Biso   1.000  N
  N88      1.0000 0.88930  0.24190  0.84180  Biso   1.000  N
  N89      1.0000 0.98567  0.19240  0.91340  Biso   1.000  N
  N90      1.0000 0.96131  0.19810  0.81320  Biso   1.000  N
  N91      1.0000 0.07487  0.01770  0.85370  Biso   1.000  N
  N92      1.0000 0.10266  0.03750  0.95300  Biso   1.000  N
  N93      1.0000 0.16742  0.94250  0.92870  Biso   1.000  N
  N94      1.0000 0.12977  0.81050  0.64470  Biso   1.000  N
  N95      1.0000 0.22665  0.78020  0.75970  Biso   1.000  N
  N96      1.0000 0.20167  0.84430  0.80140  Biso   1.000  N
  C99      1.0000 0.86600  0.42260  0.19550  Biso   1.000  C
  H113     1.0000 0.82340  0.43940  0.16990  Biso   1.000  H
  H114     1.0000 0.88190  0.37110  0.25220  Biso   1.000  H
  H115     1.0000 0.88920  0.49450  0.21570  Biso   1.000  H
  C100     1.0000 0.87120  0.36670  0.11780  Biso   1.000  C
  C101     1.0000 0.90910  0.28250  0.04460  Biso   1.000  C
  C102     1.0000 0.95340  0.22110  0.02930  Biso   1.000  C
  H116     1.0000 0.99360  0.25630  0.07360  Biso   1.000  H
  H117     1.0000 0.95590  0.14050  0.05080  Biso   1.000  H
  C103     1.0000 0.94180  0.21920  0.92770  Biso   1.000  C
  C104     1.0000 0.90400  0.22750  0.77330  Biso   1.000  C
  C105     1.0000 0.86070  0.24590  0.66550  Biso   1.000  C
  H118     1.0000 0.88330  0.25800  0.63370  Biso   1.000  H
  H119     1.0000 0.83470  0.17810  0.63700  Biso   1.000  H
  H120     1.0000 0.83570  0.31360  0.65530  Biso   1.000  H
  C106     1.0000 0.20320  0.98680  0.10320  Biso   1.000  C
  H121     1.0000 0.18260  0.99140  0.13880  Biso   1.000  H
  H122     1.0000 0.22590  0.91450  0.11960  Biso   1.000  H
  H123     1.0000 0.23120  0.05170  0.12200  Biso   1.000  H
  C107     1.0000 0.15770  0.99100  0.99540  Biso   1.000  C
  C108     1.0000 0.11440  0.96140  0.84160  Biso   1.000  C
  C109     1.0000 0.09890  0.92660  0.74110  Biso   1.000  C
  H124     1.0000 0.06150  0.87980  0.71090  Biso   1.000  H
  H125     1.0000 0.08900  0.99740  0.70120  Biso   1.000  H
  C110     1.0000 0.14470  0.86060  0.73170  Biso   1.000  C
  C111     1.0000 0.18290  0.76050  0.66680  Biso   1.000  C
  C112     1.0000 0.19040  0.69140  0.59680  Biso   1.000  C
  H126     1.0000 0.22720  0.64490  0.63330  Biso   1.000  H
  H127     1.0000 0.15530  0.64080  0.55920  Biso   1.000  H
  H128     1.0000 0.19350  0.74290  0.55170  Biso   1.000  H
  Cu25     1.0000 0.50000  0.17748  0.75000  Biso   1.000  Cu
  Cu26     1.0000 0.00000  0.67748  0.75000  Biso   1.000  Cu
  Cu27     1.0000 0.50000  0.82252  0.25000  Biso   1.000  Cu
  Cu28     1.0000 0.00000  0.32252  0.25000  Biso   1.000  Cu
  Cu29     1.0000 0.50000  0.39124  0.25000  Biso   1.000  Cu
  Cu30     1.0000 0.00000  0.89124  0.25000  Biso   1.000  Cu
  Cu31     1.0000 0.50000  0.60876  0.75000  Biso   1.000  Cu
  Cu32     1.0000 0.00000  0.10876  0.75000  Biso   1.000  Cu
