data_COXXIX_clean
_audit_creation_date              2014-07-02
_audit_creation_method            'Materials Studio'
_symmetry_space_group_name_H-M    'P1'
_symmetry_Int_Tables_number       1
_symmetry_cell_setting            triclinic
loop_
_symmetry_equiv_pos_as_xyz
  x,y,z
_cell_length_a                    7.3329
_cell_length_b                    14.3720
_cell_length_c                    18.0700
_cell_angle_alpha                 90.0000
_cell_angle_beta                  90.8690
_cell_angle_gamma                 90.0000
loop_
_atom_site_label
_atom_site_type_symbol
_atom_site_fract_x
_atom_site_fract_y
_atom_site_fract_z
_atom_site_U_iso_or_equiv
_atom_site_adp_type
_atom_site_occupancy
Mn1    Mn    0.27072   0.56515   0.79612   0.01267  Uiso   1.00
Mn2    Mn    0.75014   0.19498   0.94535   0.01267  Uiso   1.00
Mn3    Mn    0.22928   0.06515   0.70388   0.01267  Uiso   1.00
Mn4    Mn    0.74986   0.69498   0.55465   0.01267  Uiso   1.00
Mn5    Mn    0.72928   0.43485   0.20388   0.01267  Uiso   1.00
Mn6    Mn    0.24986   0.80502   0.05465   0.01267  Uiso   1.00
Mn7    Mn    0.77072   0.93485   0.29612   0.01267  Uiso   1.00
Mn8    Mn    0.25014   0.30502   0.44535   0.01267  Uiso   1.00
Mo1    Mo    0.75624   0.33843   0.66654   0.01267  Uiso   1.00
Mo2    Mo    0.74376   0.83843   0.83346   0.01267  Uiso   1.00
Mo3    Mo    0.24376   0.66157   0.33347   0.01267  Uiso   1.00
Mo4    Mo    0.25624   0.16157   0.16654   0.01267  Uiso   1.00
C1     C     0.96360   0.42419   0.71723   0.01267  Uiso   1.00
C2     C     0.80940   0.28766   0.77848   0.01267  Uiso   1.00
C3     C     0.56510   0.41302   0.73463   0.01267  Uiso   1.00
C4     C     0.54710   0.23423   0.68726   0.01267  Uiso   1.00
C5     C     0.91090   0.21209   0.65495   0.01267  Uiso   1.00
C6     C     0.59260   0.31606   0.56687   0.01267  Uiso   1.00
C7     C     0.96100   0.34983   0.58201   0.01267  Uiso   1.00
C8     C     0.71820   0.47655   0.61851   0.01267  Uiso   1.00
C9     C     0.53640   0.92419   0.78277   0.01267  Uiso   1.00
C10    C     0.69060   0.78766   0.72152   0.01267  Uiso   1.00
C11    C     0.93490   0.91302   0.76537   0.01267  Uiso   1.00
C12    C     0.95290   0.73423   0.81274   0.01267  Uiso   1.00
C13    C     0.58910   0.71209   0.84505   0.01267  Uiso   1.00
C14    C     0.90740   0.81606   0.93313   0.01267  Uiso   1.00
C15    C     0.53900   0.84983   0.91799   0.01267  Uiso   1.00
C16    C     0.78180   0.97655   0.88149   0.01267  Uiso   1.00
C17    C     0.03640   0.57581   0.28277   0.01267  Uiso   1.00
C18    C     0.19060   0.71234   0.22152   0.01267  Uiso   1.00
C19    C     0.43490   0.58698   0.26537   0.01267  Uiso   1.00
C20    C     0.45290   0.76577   0.31274   0.01267  Uiso   1.00
C21    C     0.08910   0.78791   0.34505   0.01267  Uiso   1.00
C22    C     0.40740   0.68394   0.43313   0.01267  Uiso   1.00
C23    C     0.03900   0.65017   0.41799   0.01267  Uiso   1.00
C24    C     0.28180   0.52345   0.38149   0.01267  Uiso   1.00
C25    C     0.46360   0.07581   0.21723   0.01267  Uiso   1.00
C26    C     0.30940   0.21234   0.27848   0.01267  Uiso   1.00
C27    C     0.06510   0.08698   0.23463   0.01267  Uiso   1.00
C28    C     0.04710   0.26577   0.18726   0.01267  Uiso   1.00
C29    C     0.41090   0.28791   0.15495   0.01267  Uiso   1.00
C30    C     0.09260   0.18394   0.06687   0.01267  Uiso   1.00
C31    C     0.46100   0.15017   0.08201   0.01267  Uiso   1.00
C32    C     0.21820   0.02345   0.11851   0.01267  Uiso   1.00
N1     N     0.06850   0.47507   0.74214   0.01267  Uiso   1.00
N2     N     0.83300   0.25900   0.83758   0.01267  Uiso   1.00
N3     N     0.47400   0.45356   0.77424   0.01267  Uiso   1.00
N4     N     0.43630   0.17940   0.69654   0.01267  Uiso   1.00
N5     N     0.00440   0.14764   0.65193   0.01267  Uiso   1.00
N6     N     0.50400   0.30594   0.51438   0.01267  Uiso   1.00
N7     N     0.07400   0.35122   0.53784   0.01267  Uiso   1.00
N8     N     0.70530   0.55026   0.59385   0.01267  Uiso   1.00
N9     N     0.43150   0.97507   0.75786   0.01267  Uiso   1.00
N10    N     0.66700   0.75900   0.66242   0.01267  Uiso   1.00
N11    N     0.02600   0.95356   0.72576   0.01267  Uiso   1.00
N12    N     0.06370   0.67940   0.80346   0.01267  Uiso   1.00
N13    N     0.49560   0.64764   0.84807   0.01267  Uiso   1.00
N14    N     0.99600   0.80594   0.98562   0.01267  Uiso   1.00
N15    N     0.42600   0.85122   0.96216   0.01267  Uiso   1.00
N16    N     0.79470   0.05026   0.90615   0.01267  Uiso   1.00
N17    N     0.93150   0.52493   0.25786   0.01267  Uiso   1.00
N18    N     0.16700   0.74100   0.16242   0.01267  Uiso   1.00
N19    N     0.52600   0.54644   0.22576   0.01267  Uiso   1.00
N20    N     0.56370   0.82060   0.30346   0.01267  Uiso   1.00
N21    N     0.99560   0.85236   0.34807   0.01267  Uiso   1.00
N22    N     0.49600   0.69406   0.48562   0.01267  Uiso   1.00
N23    N     0.92600   0.64878   0.46216   0.01267  Uiso   1.00
N24    N     0.29470   0.44974   0.40615   0.01267  Uiso   1.00
N25    N     0.56850   0.02493   0.24214   0.01267  Uiso   1.00
N26    N     0.33300   0.24100   0.33758   0.01267  Uiso   1.00
N27    N     0.97400   0.04644   0.27424   0.01267  Uiso   1.00
N28    N     0.93630   0.32060   0.19654   0.01267  Uiso   1.00
N29    N     0.50440   0.35236   0.15193   0.01267  Uiso   1.00
N30    N     0.00400   0.19406   0.01438   0.01267  Uiso   1.00
N31    N     0.57400   0.14878   0.03784   0.01267  Uiso   1.00
N32    N     0.20530   0.94974   0.09385   0.01267  Uiso   1.00
