data_COYCID_clean
_audit_creation_date              2014-07-02
_audit_creation_method            'Materials Studio'
_symmetry_space_group_name_H-M    'P1'
_symmetry_Int_Tables_number       1
_symmetry_cell_setting            triclinic
loop_
_symmetry_equiv_pos_as_xyz
  x,y,z
_cell_length_a                    17.1042
_cell_length_b                    18.3052
_cell_length_c                    20.2360
_cell_angle_alpha                 75.3050
_cell_angle_beta                  86.8820
_cell_angle_gamma                 67.4090
loop_
_atom_site_label
_atom_site_type_symbol
_atom_site_fract_x
_atom_site_fract_y
_atom_site_fract_z
_atom_site_U_iso_or_equiv
_atom_site_adp_type
_atom_site_occupancy
Cu1    Cu    0.07860   0.15204   0.67788   0.01267  Uiso   1.00
Cu2    Cu    0.01278   0.30128   0.77457   0.01267  Uiso   1.00
Cu3    Cu    0.19708   0.29156   0.66860   0.01267  Uiso   1.00
Cu4    Cu    0.37374   0.69543   0.21973   0.01267  Uiso   1.00
Cu5    Cu    0.52600   0.65595   0.08125   0.01267  Uiso   1.00
Cu6    Cu    0.49860   0.18258   0.83481   0.01267  Uiso   1.00
Cu7    Cu    0.92140   0.84796   0.32212   0.01267  Uiso   1.00
Cu8    Cu    0.98722   0.69872   0.22543   0.01267  Uiso   1.00
Cu9    Cu    0.80292   0.70844   0.33140   0.01267  Uiso   1.00
Cu10   Cu    0.62626   0.30457   0.78027   0.01267  Uiso   1.00
Cu11   Cu    0.47400   0.34405   0.91875   0.01267  Uiso   1.00
Cu12   Cu    0.50140   0.81742   0.16519   0.01267  Uiso   1.00
Mo1    Mo    0.03572   0.31375   0.64154   0.01267  Uiso   1.00
Mo2    Mo    0.54229   0.65556   0.21161   0.01267  Uiso   1.00
Mo3    Mo    0.96428   0.68625   0.35846   0.01267  Uiso   1.00
Mo4    Mo    0.45771   0.34444   0.78839   0.01267  Uiso   1.00
H1     H     0.08950   0.97660   0.68990   0.01267  Uiso   1.00
H2     H     0.05830   0.91990   0.60490   0.01267  Uiso   1.00
H3     H     0.94920   0.13680   0.47010   0.01267  Uiso   1.00
H4     H     0.97070   0.19090   0.55700   0.01267  Uiso   1.00
H5     H     0.22370   0.68570   0.30220   0.01267  Uiso   1.00
H6     H     0.18360   0.60600   0.38840   0.01267  Uiso   1.00
H7     H     0.43170   0.46100   0.43220   0.01267  Uiso   1.00
H8     H     0.45940   0.55700   0.34320   0.01267  Uiso   1.00
H9     H     0.16300   0.49740   0.44690   0.01267  Uiso   1.00
H10    H     0.13520   0.40810   0.53430   0.01267  Uiso   1.00
H11    H     0.34480   0.34780   0.62940   0.01267  Uiso   1.00
H12    H     0.39000   0.42680   0.54850   0.01267  Uiso   1.00
H13    H     0.33970   0.75760   0.06230   0.01267  Uiso   1.00
H14    H     0.24410   0.85300   0.98290   0.01267  Uiso   1.00
H15    H     0.43290   0.84840   0.85090   0.01267  Uiso   1.00
H16    H     0.52350   0.75120   0.93500   0.01267  Uiso   1.00
H17    H     0.16240   0.90570   0.87710   0.01267  Uiso   1.00
H18    H     0.07320   0.00910   0.78740   0.01267  Uiso   1.00
H19    H     0.25080   0.09560   0.73770   0.01267  Uiso   1.00
H20    H     0.34830   0.98970   0.81540   0.01267  Uiso   1.00
H21    H     0.70770   0.54670   0.08970   0.01267  Uiso   1.00
H22    H     0.80830   0.47720   0.02600   0.01267  Uiso   1.00
H23    H     0.61860   0.51000   0.89400   0.01267  Uiso   1.00
H24    H     0.52710   0.57690   0.96090   0.01267  Uiso   1.00
H25    H     0.87400   0.49570   0.91690   0.01267  Uiso   1.00
H26    H     0.97540   0.43020   0.84900   0.01267  Uiso   1.00
H27    H     0.84260   0.30630   0.82140   0.01267  Uiso   1.00
H28    H     0.73410   0.37550   0.88180   0.01267  Uiso   1.00
H29    H     0.31070   0.91750   0.15340   0.01267  Uiso   1.00
H30    H     0.21130   0.01310   0.07450   0.01267  Uiso   1.00
H31    H     0.39000   0.02420   0.94210   0.01267  Uiso   1.00
H32    H     0.48940   0.91220   0.01930   0.01267  Uiso   1.00
H33    H     0.13000   0.04730   0.96970   0.01267  Uiso   1.00
H34    H     0.03200   0.15050   0.89010   0.01267  Uiso   1.00
H35    H     0.18980   0.26020   0.82770   0.01267  Uiso   1.00
H36    H     0.29270   0.16290   0.90870   0.01267  Uiso   1.00
H37    H     0.91050   0.02340   0.31010   0.01267  Uiso   1.00
H38    H     0.94170   0.08010   0.39510   0.01267  Uiso   1.00
H39    H     0.05080   0.86320   0.52990   0.01267  Uiso   1.00
H40    H     0.02930   0.80910   0.44300   0.01267  Uiso   1.00
H41    H     0.77630   0.31430   0.69780   0.01267  Uiso   1.00
H42    H     0.81640   0.39400   0.61160   0.01267  Uiso   1.00
H43    H     0.56830   0.53900   0.56780   0.01267  Uiso   1.00
H44    H     0.54060   0.44300   0.65680   0.01267  Uiso   1.00
H45    H     0.83700   0.50260   0.55310   0.01267  Uiso   1.00
H46    H     0.86480   0.59190   0.46570   0.01267  Uiso   1.00
H47    H     0.65520   0.65220   0.37060   0.01267  Uiso   1.00
H48    H     0.61000   0.57320   0.45150   0.01267  Uiso   1.00
H49    H     0.66030   0.24240   0.93770   0.01267  Uiso   1.00
H50    H     0.75590   0.14700   0.01710   0.01267  Uiso   1.00
H51    H     0.56710   0.15160   0.14910   0.01267  Uiso   1.00
H52    H     0.47650   0.24880   0.06500   0.01267  Uiso   1.00
H53    H     0.83760   0.09430   0.12290   0.01267  Uiso   1.00
H54    H     0.92680   0.99090   0.21260   0.01267  Uiso   1.00
H55    H     0.74920   0.90440   0.26230   0.01267  Uiso   1.00
H56    H     0.65170   0.01030   0.18460   0.01267  Uiso   1.00
H57    H     0.29230   0.45330   0.91030   0.01267  Uiso   1.00
H58    H     0.19170   0.52280   0.97400   0.01267  Uiso   1.00
H59    H     0.38140   0.49000   0.10600   0.01267  Uiso   1.00
H60    H     0.47290   0.42310   0.03910   0.01267  Uiso   1.00
H61    H     0.12600   0.50430   0.08310   0.01267  Uiso   1.00
H62    H     0.02460   0.56980   0.15100   0.01267  Uiso   1.00
H63    H     0.15740   0.69370   0.17860   0.01267  Uiso   1.00
H64    H     0.26590   0.62450   0.11820   0.01267  Uiso   1.00
H65    H     0.68930   0.08250   0.84660   0.01267  Uiso   1.00
H66    H     0.78870   0.98690   0.92550   0.01267  Uiso   1.00
H67    H     0.61000   0.97580   0.05790   0.01267  Uiso   1.00
H68    H     0.51060   0.08780   0.98070   0.01267  Uiso   1.00
H69    H     0.87000   0.95270   0.03030   0.01267  Uiso   1.00
H70    H     0.96800   0.84950   0.10990   0.01267  Uiso   1.00
H71    H     0.81020   0.73980   0.17230   0.01267  Uiso   1.00
H72    H     0.70730   0.83710   0.09130   0.01267  Uiso   1.00
C1     C     0.06500   0.00730   0.64600   0.01267  Uiso   1.00
C2     C     0.04350   0.97730   0.59420   0.01267  Uiso   1.00
C3     C     0.00400   0.01980   0.53140   0.01267  Uiso   1.00
C4     C     0.97700   0.10340   0.51300   0.01267  Uiso   1.00
C5     C     0.99600   0.13320   0.56400   0.01267  Uiso   1.00
C6     C     0.26690   0.63740   0.32770   0.01267  Uiso   1.00
C7     C     0.24210   0.59320   0.38050   0.01267  Uiso   1.00
C8     C     0.30300   0.52860   0.42310   0.01267  Uiso   1.00
C9     C     0.38730   0.50800   0.40700   0.01267  Uiso   1.00
C10    C     0.40200   0.56320   0.35000   0.01267  Uiso   1.00
C11    C     0.28190   0.47070   0.48230   0.01267  Uiso   1.00
C12    C     0.20420   0.46500   0.48330   0.01267  Uiso   1.00
C13    C     0.18800   0.41400   0.53660   0.01267  Uiso   1.00
C14    C     0.30750   0.37930   0.59040   0.01267  Uiso   1.00
C15    C     0.33620   0.42440   0.54320   0.01267  Uiso   1.00
C16    C     0.35750   0.77590   0.01810   0.01267  Uiso   1.00
C17    C     0.30190   0.83330   0.97170   0.01267  Uiso   1.00
C18    C     0.32360   0.86770   0.90530   0.01267  Uiso   1.00
C19    C     0.41180   0.83110   0.89390   0.01267  Uiso   1.00
C20    C     0.46490   0.77220   0.94370   0.01267  Uiso   1.00
C21    C     0.26650   0.92980   0.85320   0.01267  Uiso   1.00
C22    C     0.18370   0.94170   0.84660   0.01267  Uiso   1.00
C23    C     0.12870   0.00600   0.79570   0.01267  Uiso   1.00
C24    C     0.23450   0.05450   0.76640   0.01267  Uiso   1.00
C25    C     0.29220   0.99230   0.81130   0.01267  Uiso   1.00
C26    C     0.69040   0.54140   0.04790   0.01267  Uiso   1.00
C27    C     0.75030   0.49850   0.01110   0.01267  Uiso   1.00
C28    C     0.72730   0.48500   0.95000   0.01267  Uiso   1.00
C29    C     0.63900   0.51770   0.93340   0.01267  Uiso   1.00
C30    C     0.58580   0.55870   0.97260   0.01267  Uiso   1.00
C31    C     0.79280   0.44170   0.90870   0.01267  Uiso   1.00
C32    C     0.86550   0.45730   0.89710   0.01267  Uiso   1.00
C33    C     0.92620   0.41770   0.85680   0.01267  Uiso   1.00
C34    C     0.84860   0.34670   0.83990   0.01267  Uiso   1.00
C35    C     0.78440   0.38630   0.87740   0.01267  Uiso   1.00
C36    C     0.32790   0.93710   0.10930   0.01267  Uiso   1.00
C37    C     0.26910   0.99570   0.06330   0.01267  Uiso   1.00
C38    C     0.29010   0.03080   0.00080   0.01267  Uiso   1.00
C39    C     0.37270   0.00100   0.98490   0.01267  Uiso   1.00
C40    C     0.43270   0.93520   0.03250   0.01267  Uiso   1.00
C41    C     0.22450   0.09500   0.94840   0.01267  Uiso   1.00
C42    C     0.14350   0.09060   0.94180   0.01267  Uiso   1.00
C43    C     0.08650   0.15200   0.89330   0.01267  Uiso   1.00
C44    C     0.17740   0.21680   0.85690   0.01267  Uiso   1.00
C45    C     0.23960   0.15850   0.90550   0.01267  Uiso   1.00
C46    C     0.36010   0.16830   0.75860   0.01267  Uiso   1.00
C47    C     0.20600   0.81700   0.14380   0.01267  Uiso   1.00
C48    C     0.93500   0.99270   0.35400   0.01267  Uiso   1.00
C49    C     0.95650   0.02270   0.40580   0.01267  Uiso   1.00
C50    C     0.99600   0.98020   0.46860   0.01267  Uiso   1.00
C51    C     0.02300   0.89660   0.48700   0.01267  Uiso   1.00
C52    C     0.00400   0.86680   0.43600   0.01267  Uiso   1.00
C53    C     0.73310   0.36260   0.67230   0.01267  Uiso   1.00
C54    C     0.75790   0.40680   0.61950   0.01267  Uiso   1.00
C55    C     0.69700   0.47140   0.57690   0.01267  Uiso   1.00
C56    C     0.61270   0.49200   0.59300   0.01267  Uiso   1.00
C57    C     0.59800   0.43680   0.65000   0.01267  Uiso   1.00
C58    C     0.71810   0.52930   0.51770   0.01267  Uiso   1.00
C59    C     0.79580   0.53500   0.51670   0.01267  Uiso   1.00
C60    C     0.81200   0.58600   0.46340   0.01267  Uiso   1.00
C61    C     0.69250   0.62070   0.40960   0.01267  Uiso   1.00
C62    C     0.66380   0.57560   0.45680   0.01267  Uiso   1.00
C63    C     0.64250   0.22410   0.98190   0.01267  Uiso   1.00
C64    C     0.69810   0.16670   0.02830   0.01267  Uiso   1.00
C65    C     0.67640   0.13230   0.09470   0.01267  Uiso   1.00
C66    C     0.58820   0.16890   0.10610   0.01267  Uiso   1.00
C67    C     0.53510   0.22780   0.05630   0.01267  Uiso   1.00
C68    C     0.73350   0.07020   0.14680   0.01267  Uiso   1.00
C69    C     0.81630   0.05830   0.15340   0.01267  Uiso   1.00
C70    C     0.87130   0.99400   0.20430   0.01267  Uiso   1.00
C71    C     0.76550   0.94550   0.23360   0.01267  Uiso   1.00
C72    C     0.70780   0.00770   0.18870   0.01267  Uiso   1.00
C73    C     0.30960   0.45860   0.95210   0.01267  Uiso   1.00
C74    C     0.24970   0.50150   0.98890   0.01267  Uiso   1.00
C75    C     0.27270   0.51500   0.05000   0.01267  Uiso   1.00
C76    C     0.36100   0.48230   0.06660   0.01267  Uiso   1.00
C77    C     0.41420   0.44130   0.02740   0.01267  Uiso   1.00
C78    C     0.20720   0.55830   0.09130   0.01267  Uiso   1.00
C79    C     0.13450   0.54270   0.10290   0.01267  Uiso   1.00
C80    C     0.07380   0.58230   0.14320   0.01267  Uiso   1.00
C81    C     0.15140   0.65330   0.16010   0.01267  Uiso   1.00
C82    C     0.21560   0.61370   0.12260   0.01267  Uiso   1.00
C83    C     0.67210   0.06290   0.89070   0.01267  Uiso   1.00
C84    C     0.73090   0.00430   0.93670   0.01267  Uiso   1.00
C85    C     0.70990   0.96920   0.99920   0.01267  Uiso   1.00
C86    C     0.62730   0.99900   0.01510   0.01267  Uiso   1.00
C87    C     0.56730   0.06480   0.96750   0.01267  Uiso   1.00
C88    C     0.77550   0.90500   0.05160   0.01267  Uiso   1.00
C89    C     0.85650   0.90940   0.05820   0.01267  Uiso   1.00
C90    C     0.91350   0.84800   0.10670   0.01267  Uiso   1.00
C91    C     0.82260   0.78320   0.14310   0.01267  Uiso   1.00
C92    C     0.76040   0.84150   0.09450   0.01267  Uiso   1.00
C93    C     0.63990   0.83170   0.24140   0.01267  Uiso   1.00
C94    C     0.79400   0.18300   0.85620   0.01267  Uiso   1.00
S1     S     0.96280   0.24440   0.70800   0.01267  Uiso   1.00
S2     S     0.15300   0.21950   0.61120   0.01267  Uiso   1.00
S3     S     0.07780   0.37740   0.70720   0.01267  Uiso   1.00
S4     S     0.46480   0.59950   0.16900   0.01267  Uiso   1.00
S5     S     0.45240   0.75220   0.25910   0.01267  Uiso   1.00
S6     S     0.59880   0.71770   0.12220   0.01267  Uiso   1.00
S7     S     0.44120   0.09790   0.80280   0.01267  Uiso   1.00
S8     S     0.11810   0.88760   0.09910   0.01267  Uiso   1.00
S9     S     0.03720   0.75560   0.29200   0.01267  Uiso   1.00
S10    S     0.84700   0.78050   0.38880   0.01267  Uiso   1.00
S11    S     0.92220   0.62260   0.29280   0.01267  Uiso   1.00
S12    S     0.53520   0.40050   0.83100   0.01267  Uiso   1.00
S13    S     0.54760   0.24780   0.74090   0.01267  Uiso   1.00
S14    S     0.40120   0.28230   0.87780   0.01267  Uiso   1.00
S15    S     0.55880   0.90210   0.19720   0.01267  Uiso   1.00
S16    S     0.88190   0.11240   0.90090   0.01267  Uiso   1.00
N1     N     0.04230   0.09510   0.61670   0.01267  Uiso   1.00
N2     N     0.34430   0.62250   0.30650   0.01267  Uiso   1.00
N3     N     0.23700   0.37120   0.59200   0.01267  Uiso   1.00
N4     N     0.44120   0.74180   0.00370   0.01267  Uiso   1.00
N5     N     0.15460   0.06000   0.76090   0.01267  Uiso   1.00
N6     N     0.60640   0.57760   0.02850   0.01267  Uiso   1.00
N7     N     0.91870   0.36200   0.82810   0.01267  Uiso   1.00
N8     N     0.41260   0.90410   0.09530   0.01267  Uiso   1.00
N9     N     0.10070   0.21460   0.84940   0.01267  Uiso   1.00
N10    N     0.30080   0.22340   0.72640   0.01267  Uiso   1.00
N11    N     0.26330   0.77060   0.17420   0.01267  Uiso   1.00
N12    N     0.95770   0.90490   0.38330   0.01267  Uiso   1.00
N13    N     0.65570   0.37750   0.69350   0.01267  Uiso   1.00
N14    N     0.76300   0.62880   0.40800   0.01267  Uiso   1.00
N15    N     0.55880   0.25820   0.99630   0.01267  Uiso   1.00
N16    N     0.84540   0.94000   0.23910   0.01267  Uiso   1.00
N17    N     0.39360   0.42240   0.97150   0.01267  Uiso   1.00
N18    N     0.08130   0.63800   0.17190   0.01267  Uiso   1.00
N19    N     0.58740   0.09590   0.90470   0.01267  Uiso   1.00
N20    N     0.89930   0.78540   0.15060   0.01267  Uiso   1.00
N21    N     0.69920   0.77660   0.27360   0.01267  Uiso   1.00
N22    N     0.73670   0.22940   0.82580   0.01267  Uiso   1.00
