data_COYCEZ_clean
_audit_creation_date              2014-07-02
_audit_creation_method            'Materials Studio'
_symmetry_space_group_name_H-M    'P1'
_symmetry_Int_Tables_number       1
_symmetry_cell_setting            triclinic
loop_
_symmetry_equiv_pos_as_xyz
  x,y,z
_cell_length_a                    9.9998
_cell_length_b                    17.6640
_cell_length_c                    27.2940
_cell_angle_alpha                 90.0000
_cell_angle_beta                  90.0000
_cell_angle_gamma                 100.5100
loop_
_atom_site_label
_atom_site_type_symbol
_atom_site_fract_x
_atom_site_fract_y
_atom_site_fract_z
_atom_site_U_iso_or_equiv
_atom_site_adp_type
_atom_site_occupancy
Cu1    Cu    0.75405   0.17626   0.59216   0.01267  Uiso   1.00
Cu2    Cu    0.11531   0.18053   0.54955   0.01267  Uiso   1.00
Cu3    Cu    0.05419   0.29837   0.65788   0.01267  Uiso   1.00
Cu4    Cu    0.24595   0.32374   0.09216   0.01267  Uiso   1.00
Cu5    Cu    0.88469   0.31947   0.04955   0.01267  Uiso   1.00
Cu6    Cu    0.94581   0.20163   0.15788   0.01267  Uiso   1.00
Cu7    Cu    0.24595   0.82374   0.40784   0.01267  Uiso   1.00
Cu8    Cu    0.88469   0.81947   0.45045   0.01267  Uiso   1.00
Cu9    Cu    0.94581   0.70163   0.34212   0.01267  Uiso   1.00
Cu10   Cu    0.75405   0.67626   0.90784   0.01267  Uiso   1.00
Cu11   Cu    0.11531   0.68053   0.95045   0.01267  Uiso   1.00
Cu12   Cu    0.05419   0.79837   0.84212   0.01267  Uiso   1.00
Mo1    Mo    0.98427   0.14879   0.63556   0.01267  Uiso   1.00
Mo2    Mo    0.01573   0.35121   0.13556   0.01267  Uiso   1.00
Mo3    Mo    0.01573   0.85121   0.36444   0.01267  Uiso   1.00
Mo4    Mo    0.98427   0.64879   0.86444   0.01267  Uiso   1.00
H1     H     0.14910   0.01790   0.55390   0.01267  Uiso   1.00
H2     H     0.31070   0.94060   0.53930   0.01267  Uiso   1.00
H3     H     0.54170   0.12330   0.47390   0.01267  Uiso   1.00
H4     H     0.37340   0.19330   0.48990   0.01267  Uiso   1.00
H5     H     0.32780   0.81290   0.79490   0.01267  Uiso   1.00
H6     H     0.46110   0.88700   0.73750   0.01267  Uiso   1.00
H7     H     0.13360   0.97590   0.69630   0.01267  Uiso   1.00
H8     H     0.00890   0.89850   0.75450   0.01267  Uiso   1.00
H9     H     0.30440   0.08280   0.67650   0.01267  Uiso   1.00
H10    H     0.45940   0.16340   0.62800   0.01267  Uiso   1.00
H11    H     0.67770   0.00250   0.61140   0.01267  Uiso   1.00
H12    H     0.53040   0.91770   0.65890   0.01267  Uiso   1.00
H13    H     0.28150   0.33370   0.51670   0.01267  Uiso   1.00
H14    H     0.25140   0.44310   0.47320   0.01267  Uiso   1.00
H15    H     0.86880   0.33460   0.44250   0.01267  Uiso   1.00
H16    H     0.91220   0.22890   0.48430   0.01267  Uiso   1.00
H17    H     0.17050   0.55110   0.46190   0.01267  Uiso   1.00
H18    H     0.11760   0.65730   0.42170   0.01267  Uiso   1.00
H19    H     0.82940   0.52680   0.34660   0.01267  Uiso   1.00
H20    H     0.86370   0.41920   0.38840   0.01267  Uiso   1.00
H21    H     0.85090   0.48210   0.05390   0.01267  Uiso   1.00
H22    H     0.68930   0.55940   0.03930   0.01267  Uiso   1.00
H23    H     0.45830   0.37670   0.97390   0.01267  Uiso   1.00
H24    H     0.62660   0.30670   0.98990   0.01267  Uiso   1.00
H25    H     0.67220   0.68710   0.29490   0.01267  Uiso   1.00
H26    H     0.53890   0.61300   0.23750   0.01267  Uiso   1.00
H27    H     0.86640   0.52410   0.19630   0.01267  Uiso   1.00
H28    H     0.99110   0.60150   0.25450   0.01267  Uiso   1.00
H29    H     0.69560   0.41720   0.17650   0.01267  Uiso   1.00
H30    H     0.54060   0.33660   0.12800   0.01267  Uiso   1.00
H31    H     0.32230   0.49750   0.11140   0.01267  Uiso   1.00
H32    H     0.46960   0.58230   0.15890   0.01267  Uiso   1.00
H33    H     0.71850   0.16630   0.01670   0.01267  Uiso   1.00
H34    H     0.74860   0.05690   0.97320   0.01267  Uiso   1.00
H35    H     0.13120   0.16540   0.94250   0.01267  Uiso   1.00
H36    H     0.08780   0.27110   0.98430   0.01267  Uiso   1.00
H37    H     0.82950   0.94890   0.96190   0.01267  Uiso   1.00
H38    H     0.88240   0.84270   0.92170   0.01267  Uiso   1.00
H39    H     0.17060   0.97320   0.84660   0.01267  Uiso   1.00
H40    H     0.13630   0.08080   0.88840   0.01267  Uiso   1.00
H41    H     0.85090   0.98210   0.44610   0.01267  Uiso   1.00
H42    H     0.68930   0.05940   0.46070   0.01267  Uiso   1.00
H43    H     0.45830   0.87670   0.52610   0.01267  Uiso   1.00
H44    H     0.62660   0.80670   0.51010   0.01267  Uiso   1.00
H45    H     0.67220   0.18710   0.20510   0.01267  Uiso   1.00
H46    H     0.53890   0.11300   0.26250   0.01267  Uiso   1.00
H47    H     0.86640   0.02410   0.30370   0.01267  Uiso   1.00
H48    H     0.99110   0.10150   0.24550   0.01267  Uiso   1.00
H49    H     0.69560   0.91720   0.32350   0.01267  Uiso   1.00
H50    H     0.54060   0.83660   0.37200   0.01267  Uiso   1.00
H51    H     0.32230   0.99750   0.38860   0.01267  Uiso   1.00
H52    H     0.46960   0.08230   0.34110   0.01267  Uiso   1.00
H53    H     0.71850   0.66630   0.48330   0.01267  Uiso   1.00
H54    H     0.74860   0.55690   0.52680   0.01267  Uiso   1.00
H55    H     0.13120   0.66540   0.55750   0.01267  Uiso   1.00
H56    H     0.08780   0.77110   0.51570   0.01267  Uiso   1.00
H57    H     0.82950   0.44890   0.53810   0.01267  Uiso   1.00
H58    H     0.88240   0.34270   0.57830   0.01267  Uiso   1.00
H59    H     0.17060   0.47320   0.65340   0.01267  Uiso   1.00
H60    H     0.13630   0.58080   0.61160   0.01267  Uiso   1.00
H61    H     0.14910   0.51790   0.94610   0.01267  Uiso   1.00
H62    H     0.31070   0.44060   0.96070   0.01267  Uiso   1.00
H63    H     0.54170   0.62330   0.02610   0.01267  Uiso   1.00
H64    H     0.37340   0.69330   0.01010   0.01267  Uiso   1.00
H65    H     0.32780   0.31290   0.70510   0.01267  Uiso   1.00
H66    H     0.46110   0.38700   0.76250   0.01267  Uiso   1.00
H67    H     0.13360   0.47590   0.80370   0.01267  Uiso   1.00
H68    H     0.00890   0.39850   0.74550   0.01267  Uiso   1.00
H69    H     0.30440   0.58280   0.82350   0.01267  Uiso   1.00
H70    H     0.45940   0.66340   0.87200   0.01267  Uiso   1.00
H71    H     0.67770   0.50250   0.88860   0.01267  Uiso   1.00
H72    H     0.53040   0.41770   0.84110   0.01267  Uiso   1.00
H73    H     0.28150   0.83370   0.98330   0.01267  Uiso   1.00
H74    H     0.25140   0.94310   0.02680   0.01267  Uiso   1.00
H75    H     0.86880   0.83460   0.05750   0.01267  Uiso   1.00
H76    H     0.91220   0.72890   0.01570   0.01267  Uiso   1.00
H77    H     0.17050   0.05110   0.03810   0.01267  Uiso   1.00
H78    H     0.11760   0.15730   0.07830   0.01267  Uiso   1.00
H79    H     0.82940   0.02680   0.15340   0.01267  Uiso   1.00
H80    H     0.86370   0.91920   0.11160   0.01267  Uiso   1.00
C1     C     0.63690   0.28320   0.52030   0.01267  Uiso   1.00
C2     C     0.23090   0.03980   0.53750   0.01267  Uiso   1.00
C3     C     0.32710   0.99280   0.52890   0.01267  Uiso   1.00
C4     C     0.44690   0.02380   0.50480   0.01267  Uiso   1.00
C5     C     0.46170   0.09950   0.49060   0.01267  Uiso   1.00
C6     C     0.36050   0.14130   0.50060   0.01267  Uiso   1.00
C7     C     0.28810   0.84710   0.77500   0.01267  Uiso   1.00
C8     C     0.36800   0.89110   0.74070   0.01267  Uiso   1.00
C9     C     0.31430   0.94090   0.71090   0.01267  Uiso   1.00
C10    C     0.17610   0.94320   0.71640   0.01267  Uiso   1.00
C11    C     0.10310   0.89710   0.75140   0.01267  Uiso   1.00
C12    C     0.40290   0.99240   0.67600   0.01267  Uiso   1.00
C13    C     0.38240   0.06530   0.66450   0.01267  Uiso   1.00
C14    C     0.47550   0.11320   0.63530   0.01267  Uiso   1.00
C15    C     0.60200   0.01980   0.62570   0.01267  Uiso   1.00
C16    C     0.51480   0.96870   0.65420   0.01267  Uiso   1.00
C17    C     0.19650   0.33400   0.50130   0.01267  Uiso   1.00
C18    C     0.17870   0.40040   0.47580   0.01267  Uiso   1.00
C19    C     0.05340   0.40320   0.45420   0.01267  Uiso   1.00
C20    C     0.95490   0.33650   0.45760   0.01267  Uiso   1.00
C21    C     0.98170   0.27340   0.48270   0.01267  Uiso   1.00
C22    C     0.02530   0.47240   0.42900   0.01267  Uiso   1.00
C23    C     0.09850   0.54460   0.43870   0.01267  Uiso   1.00
C24    C     0.06620   0.60800   0.41420   0.01267  Uiso   1.00
C25    C     0.89760   0.53230   0.37120   0.01267  Uiso   1.00
C26    C     0.92000   0.46750   0.39500   0.01267  Uiso   1.00
C27    C     0.36310   0.21680   0.02030   0.01267  Uiso   1.00
C28    C     0.76910   0.46020   0.03750   0.01267  Uiso   1.00
C29    C     0.67290   0.50720   0.02890   0.01267  Uiso   1.00
C30    C     0.55310   0.47620   0.00480   0.01267  Uiso   1.00
C31    C     0.53830   0.40050   0.99060   0.01267  Uiso   1.00
C32    C     0.63950   0.35870   0.00060   0.01267  Uiso   1.00
C33    C     0.71190   0.65290   0.27500   0.01267  Uiso   1.00
C34    C     0.63200   0.60890   0.24070   0.01267  Uiso   1.00
C35    C     0.68570   0.55910   0.21090   0.01267  Uiso   1.00
C36    C     0.82390   0.55680   0.21640   0.01267  Uiso   1.00
C37    C     0.89690   0.60290   0.25140   0.01267  Uiso   1.00
C38    C     0.59710   0.50760   0.17600   0.01267  Uiso   1.00
C39    C     0.61760   0.43470   0.16450   0.01267  Uiso   1.00
C40    C     0.52450   0.38680   0.13530   0.01267  Uiso   1.00
C41    C     0.39800   0.48020   0.12570   0.01267  Uiso   1.00
C42    C     0.48520   0.53130   0.15420   0.01267  Uiso   1.00
C43    C     0.80350   0.16600   0.00130   0.01267  Uiso   1.00
C44    C     0.82130   0.09960   0.97580   0.01267  Uiso   1.00
C45    C     0.94660   0.09680   0.95420   0.01267  Uiso   1.00
C46    C     0.04510   0.16350   0.95760   0.01267  Uiso   1.00
C47    C     0.01830   0.22660   0.98270   0.01267  Uiso   1.00
C48    C     0.97470   0.02760   0.92900   0.01267  Uiso   1.00
C49    C     0.90150   0.95540   0.93870   0.01267  Uiso   1.00
C50    C     0.93380   0.89200   0.91420   0.01267  Uiso   1.00
C51    C     0.10240   0.96770   0.87120   0.01267  Uiso   1.00
C52    C     0.08000   0.03250   0.89500   0.01267  Uiso   1.00
C53    C     0.36310   0.71680   0.47970   0.01267  Uiso   1.00
C54    C     0.76910   0.96020   0.46250   0.01267  Uiso   1.00
C55    C     0.67290   0.00720   0.47110   0.01267  Uiso   1.00
C56    C     0.55310   0.97620   0.49520   0.01267  Uiso   1.00
C57    C     0.53830   0.90050   0.50940   0.01267  Uiso   1.00
C58    C     0.63950   0.85870   0.49940   0.01267  Uiso   1.00
C59    C     0.71190   0.15290   0.22500   0.01267  Uiso   1.00
C60    C     0.63200   0.10890   0.25930   0.01267  Uiso   1.00
C61    C     0.68570   0.05910   0.28910   0.01267  Uiso   1.00
C62    C     0.82390   0.05680   0.28360   0.01267  Uiso   1.00
C63    C     0.89690   0.10290   0.24860   0.01267  Uiso   1.00
C64    C     0.59710   0.00760   0.32400   0.01267  Uiso   1.00
C65    C     0.61760   0.93470   0.33550   0.01267  Uiso   1.00
C66    C     0.52450   0.88680   0.36470   0.01267  Uiso   1.00
C67    C     0.39800   0.98020   0.37430   0.01267  Uiso   1.00
C68    C     0.48520   0.03130   0.34580   0.01267  Uiso   1.00
C69    C     0.80350   0.66600   0.49870   0.01267  Uiso   1.00
C70    C     0.82130   0.59960   0.52420   0.01267  Uiso   1.00
C71    C     0.94660   0.59680   0.54580   0.01267  Uiso   1.00
C72    C     0.04510   0.66350   0.54240   0.01267  Uiso   1.00
C73    C     0.01830   0.72660   0.51730   0.01267  Uiso   1.00
C74    C     0.97470   0.52760   0.57100   0.01267  Uiso   1.00
C75    C     0.90150   0.45540   0.56130   0.01267  Uiso   1.00
C76    C     0.93380   0.39200   0.58580   0.01267  Uiso   1.00
C77    C     0.10240   0.46770   0.62880   0.01267  Uiso   1.00
C78    C     0.08000   0.53250   0.60500   0.01267  Uiso   1.00
C79    C     0.63690   0.78320   0.97970   0.01267  Uiso   1.00
C80    C     0.23090   0.53980   0.96250   0.01267  Uiso   1.00
C81    C     0.32710   0.49280   0.97110   0.01267  Uiso   1.00
C82    C     0.44690   0.52380   0.99520   0.01267  Uiso   1.00
C83    C     0.46170   0.59950   0.00940   0.01267  Uiso   1.00
C84    C     0.36050   0.64130   0.99940   0.01267  Uiso   1.00
C85    C     0.28810   0.34710   0.72500   0.01267  Uiso   1.00
C86    C     0.36800   0.39110   0.75930   0.01267  Uiso   1.00
C87    C     0.31430   0.44090   0.78910   0.01267  Uiso   1.00
C88    C     0.17610   0.44320   0.78360   0.01267  Uiso   1.00
C89    C     0.10310   0.39710   0.74860   0.01267  Uiso   1.00
C90    C     0.40290   0.49240   0.82400   0.01267  Uiso   1.00
C91    C     0.38240   0.56530   0.83550   0.01267  Uiso   1.00
C92    C     0.47550   0.61320   0.86470   0.01267  Uiso   1.00
C93    C     0.60200   0.51980   0.87430   0.01267  Uiso   1.00
C94    C     0.51480   0.46870   0.84580   0.01267  Uiso   1.00
C95    C     0.19650   0.83400   0.99870   0.01267  Uiso   1.00
C96    C     0.17870   0.90040   0.02420   0.01267  Uiso   1.00
C97    C     0.05340   0.90320   0.04580   0.01267  Uiso   1.00
C98    C     0.95490   0.83650   0.04240   0.01267  Uiso   1.00
C99    C     0.98170   0.77340   0.01730   0.01267  Uiso   1.00
C100   C     0.02530   0.97240   0.07100   0.01267  Uiso   1.00
C101   C     0.09850   0.04460   0.06130   0.01267  Uiso   1.00
C102   C     0.06620   0.10800   0.08580   0.01267  Uiso   1.00
C103   C     0.89760   0.03230   0.12880   0.01267  Uiso   1.00
C104   C     0.92000   0.96750   0.10500   0.01267  Uiso   1.00
S1     S     0.84400   0.22417   0.66642   0.01267  Uiso   1.00
S2     S     0.19222   0.22288   0.62498   0.01267  Uiso   1.00
S3     S     0.90556   0.10606   0.56050   0.01267  Uiso   1.00
S4     S     0.58130   0.33830   0.47899   0.01267  Uiso   1.00
S5     S     0.15600   0.27583   0.16642   0.01267  Uiso   1.00
S6     S     0.80778   0.27712   0.12498   0.01267  Uiso   1.00
S7     S     0.09444   0.39394   0.06050   0.01267  Uiso   1.00
S8     S     0.41870   0.16170   0.97899   0.01267  Uiso   1.00
S9     S     0.15600   0.77583   0.33358   0.01267  Uiso   1.00
S10    S     0.80778   0.77712   0.37502   0.01267  Uiso   1.00
S11    S     0.09444   0.89394   0.43950   0.01267  Uiso   1.00
S12    S     0.41870   0.66170   0.52101   0.01267  Uiso   1.00
S13    S     0.84400   0.72417   0.83358   0.01267  Uiso   1.00
S14    S     0.19222   0.72288   0.87502   0.01267  Uiso   1.00
S15    S     0.90556   0.60606   0.93950   0.01267  Uiso   1.00
S16    S     0.58130   0.83830   0.02101   0.01267  Uiso   1.00
N1     N     0.24740   0.11320   0.52410   0.01267  Uiso   1.00
N2     N     0.15600   0.85050   0.78150   0.01267  Uiso   1.00
N3     N     0.58760   0.09150   0.61680   0.01267  Uiso   1.00
N4     N     0.10010   0.27110   0.50490   0.01267  Uiso   1.00
N5     N     0.96790   0.60380   0.38110   0.01267  Uiso   1.00
N6     N     0.67550   0.24420   0.54860   0.01267  Uiso   1.00
N7     N     0.75260   0.38680   0.02410   0.01267  Uiso   1.00
N8     N     0.84400   0.64950   0.28150   0.01267  Uiso   1.00
N9     N     0.41240   0.40850   0.11680   0.01267  Uiso   1.00
N10    N     0.89990   0.22890   0.00490   0.01267  Uiso   1.00
N11    N     0.03210   0.89620   0.88110   0.01267  Uiso   1.00
N12    N     0.32450   0.25580   0.04860   0.01267  Uiso   1.00
N13    N     0.75260   0.88680   0.47590   0.01267  Uiso   1.00
N14    N     0.84400   0.14950   0.21850   0.01267  Uiso   1.00
N15    N     0.41240   0.90850   0.38320   0.01267  Uiso   1.00
N16    N     0.89990   0.72890   0.49510   0.01267  Uiso   1.00
N17    N     0.03210   0.39620   0.61890   0.01267  Uiso   1.00
N18    N     0.32450   0.75580   0.45140   0.01267  Uiso   1.00
N19    N     0.24740   0.61320   0.97590   0.01267  Uiso   1.00
N20    N     0.15600   0.35050   0.71850   0.01267  Uiso   1.00
N21    N     0.58760   0.59150   0.88320   0.01267  Uiso   1.00
N22    N     0.10010   0.77110   0.99510   0.01267  Uiso   1.00
N23    N     0.96790   0.10380   0.11890   0.01267  Uiso   1.00
N24    N     0.67550   0.74420   0.95140   0.01267  Uiso   1.00
