data_COYTOA_clean
_audit_creation_date              2014-07-02
_audit_creation_method            'Materials Studio'
_symmetry_space_group_name_H-M    'P1'
_symmetry_Int_Tables_number       1
_symmetry_cell_setting            triclinic
loop_
_symmetry_equiv_pos_as_xyz
  x,y,z
_cell_length_a                    12.0648
_cell_length_b                    12.3787
_cell_length_c                    12.5148
_cell_angle_alpha                 90.0000
_cell_angle_beta                  90.0000
_cell_angle_gamma                 115.0690
loop_
_atom_site_label
_atom_site_type_symbol
_atom_site_fract_x
_atom_site_fract_y
_atom_site_fract_z
_atom_site_U_iso_or_equiv
_atom_site_adp_type
_atom_site_occupancy
Sm1    Sm    0.04033   0.35483   0.55075   0.01267  Uiso   1.00
Sm2    Sm    0.95967   0.14517   0.05075   0.01267  Uiso   1.00
Sm3    Sm    0.95967   0.64517   0.44925   0.01267  Uiso   1.00
Sm4    Sm    0.04033   0.85483   0.94925   0.01267  Uiso   1.00
H1     H     0.12960   0.17220   0.71760   0.01267  Uiso   1.00
H2     H     0.56630   0.24880   0.64560   0.01267  Uiso   1.00
H3     H     0.69950   0.07490   0.83850   0.01267  Uiso   1.00
H4     H     0.40450   0.17230   0.71770   0.01267  Uiso   1.00
H5     H     0.51210   0.94780   0.87010   0.01267  Uiso   1.00
H6     H     0.87040   0.32780   0.21760   0.01267  Uiso   1.00
H7     H     0.43370   0.25120   0.14560   0.01267  Uiso   1.00
H8     H     0.30050   0.42510   0.33850   0.01267  Uiso   1.00
H9     H     0.59550   0.32770   0.21770   0.01267  Uiso   1.00
H10    H     0.48790   0.55220   0.37010   0.01267  Uiso   1.00
H11    H     0.87040   0.82780   0.28240   0.01267  Uiso   1.00
H12    H     0.43370   0.75120   0.35440   0.01267  Uiso   1.00
H13    H     0.30050   0.92510   0.16150   0.01267  Uiso   1.00
H14    H     0.59550   0.82770   0.28230   0.01267  Uiso   1.00
H15    H     0.48790   0.05220   0.12990   0.01267  Uiso   1.00
H16    H     0.12960   0.67220   0.78240   0.01267  Uiso   1.00
H17    H     0.56630   0.74880   0.85440   0.01267  Uiso   1.00
H18    H     0.69950   0.57490   0.66150   0.01267  Uiso   1.00
H19    H     0.40450   0.67230   0.78230   0.01267  Uiso   1.00
H20    H     0.51210   0.44780   0.62990   0.01267  Uiso   1.00
C1     C     0.77580   0.39370   0.55230   0.01267  Uiso   1.00
C2     C     0.93510   0.17990   0.77280   0.01267  Uiso   1.00
C3     C     0.16450   0.05920   0.76890   0.01267  Uiso   1.00
C4     C     0.29160   0.80070   0.95540   0.01267  Uiso   1.00
C5     C     0.74690   0.29480   0.62940   0.01267  Uiso   1.00
C6     C     0.63010   0.23220   0.67020   0.01267  Uiso   1.00
C7     C     0.60780   0.14540   0.74690   0.01267  Uiso   1.00
C8     C     0.70870   0.12920   0.78410   0.01267  Uiso   1.00
C9     C     0.82150   0.19390   0.73970   0.01267  Uiso   1.00
C10    C     0.27190   0.03350   0.79220   0.01267  Uiso   1.00
C11    C     0.38860   0.10450   0.75850   0.01267  Uiso   1.00
C12    C     0.48220   0.07330   0.78610   0.01267  Uiso   1.00
C13    C     0.45190   0.97170   0.84930   0.01267  Uiso   1.00
C14    C     0.33230   0.90710   0.88070   0.01267  Uiso   1.00
C15    C     0.22420   0.10630   0.05230   0.01267  Uiso   1.00
C16    C     0.06490   0.32010   0.27280   0.01267  Uiso   1.00
C17    C     0.83550   0.44080   0.26890   0.01267  Uiso   1.00
C18    C     0.70840   0.69930   0.45540   0.01267  Uiso   1.00
C19    C     0.25310   0.20520   0.12940   0.01267  Uiso   1.00
C20    C     0.36990   0.26780   0.17020   0.01267  Uiso   1.00
C21    C     0.39220   0.35460   0.24690   0.01267  Uiso   1.00
C22    C     0.29130   0.37080   0.28410   0.01267  Uiso   1.00
C23    C     0.17850   0.30610   0.23970   0.01267  Uiso   1.00
C24    C     0.72810   0.46650   0.29220   0.01267  Uiso   1.00
C25    C     0.61140   0.39550   0.25850   0.01267  Uiso   1.00
C26    C     0.51780   0.42670   0.28610   0.01267  Uiso   1.00
C27    C     0.54810   0.52830   0.34930   0.01267  Uiso   1.00
C28    C     0.66770   0.59290   0.38070   0.01267  Uiso   1.00
C29    C     0.22420   0.60630   0.44770   0.01267  Uiso   1.00
C30    C     0.06490   0.82010   0.22720   0.01267  Uiso   1.00
C31    C     0.83550   0.94080   0.23110   0.01267  Uiso   1.00
C32    C     0.70840   0.19930   0.04460   0.01267  Uiso   1.00
C33    C     0.25310   0.70520   0.37060   0.01267  Uiso   1.00
C34    C     0.36990   0.76780   0.32980   0.01267  Uiso   1.00
C35    C     0.39220   0.85460   0.25310   0.01267  Uiso   1.00
C36    C     0.29130   0.87080   0.21590   0.01267  Uiso   1.00
C37    C     0.17850   0.80610   0.26030   0.01267  Uiso   1.00
C38    C     0.72810   0.96650   0.20780   0.01267  Uiso   1.00
C39    C     0.61140   0.89550   0.24150   0.01267  Uiso   1.00
C40    C     0.51780   0.92670   0.21390   0.01267  Uiso   1.00
C41    C     0.54810   0.02830   0.15070   0.01267  Uiso   1.00
C42    C     0.66770   0.09290   0.11930   0.01267  Uiso   1.00
C43    C     0.77580   0.89370   0.94770   0.01267  Uiso   1.00
C44    C     0.93510   0.67990   0.72720   0.01267  Uiso   1.00
C45    C     0.16450   0.55920   0.73110   0.01267  Uiso   1.00
C46    C     0.29160   0.30070   0.54460   0.01267  Uiso   1.00
C47    C     0.74690   0.79480   0.87060   0.01267  Uiso   1.00
C48    C     0.63010   0.73220   0.82980   0.01267  Uiso   1.00
C49    C     0.60780   0.64540   0.75310   0.01267  Uiso   1.00
C50    C     0.70870   0.62920   0.71590   0.01267  Uiso   1.00
C51    C     0.82150   0.69390   0.76030   0.01267  Uiso   1.00
C52    C     0.27190   0.53350   0.70780   0.01267  Uiso   1.00
C53    C     0.38860   0.60450   0.74150   0.01267  Uiso   1.00
C54    C     0.48220   0.57330   0.71390   0.01267  Uiso   1.00
C55    C     0.45190   0.47170   0.65070   0.01267  Uiso   1.00
C56    C     0.33230   0.40710   0.61930   0.01267  Uiso   1.00
N1     N     0.84120   0.27280   0.66020   0.01267  Uiso   1.00
N2     N     0.24280   0.93690   0.85180   0.01267  Uiso   1.00
N3     N     0.15880   0.22720   0.16020   0.01267  Uiso   1.00
N4     N     0.75720   0.56310   0.35180   0.01267  Uiso   1.00
N5     N     0.15880   0.72720   0.33980   0.01267  Uiso   1.00
N6     N     0.75720   0.06310   0.14820   0.01267  Uiso   1.00
N7     N     0.84120   0.77280   0.83980   0.01267  Uiso   1.00
N8     N     0.24280   0.43690   0.64820   0.01267  Uiso   1.00
O1     O     0.88130   0.42920   0.50470   0.01267  Uiso   1.00
O2     O     0.70530   0.43890   0.54050   0.01267  Uiso   1.00
O3     O     0.02110   0.21950   0.70400   0.01267  Uiso   1.00
O4     O     0.93870   0.13570   0.85980   0.01267  Uiso   1.00
O5     O     0.06090   0.98450   0.78520   0.01267  Uiso   1.00
O6     O     0.19250   0.16490   0.73180   0.01267  Uiso   1.00
O7     O     0.18140   0.76310   0.98770   0.01267  Uiso   1.00
O8     O     0.36630   0.76140   0.97780   0.01267  Uiso   1.00
O9     O     0.11870   0.07080   0.00470   0.01267  Uiso   1.00
O10    O     0.29470   0.06110   0.04050   0.01267  Uiso   1.00
O11    O     0.97890   0.28050   0.20400   0.01267  Uiso   1.00
O12    O     0.06130   0.36430   0.35980   0.01267  Uiso   1.00
O13    O     0.93910   0.51550   0.28520   0.01267  Uiso   1.00
O14    O     0.80750   0.33510   0.23180   0.01267  Uiso   1.00
O15    O     0.81860   0.73690   0.48770   0.01267  Uiso   1.00
O16    O     0.63370   0.73860   0.47780   0.01267  Uiso   1.00
O17    O     0.11870   0.57080   0.49530   0.01267  Uiso   1.00
O18    O     0.29470   0.56110   0.45950   0.01267  Uiso   1.00
O19    O     0.97890   0.78050   0.29600   0.01267  Uiso   1.00
O20    O     0.06130   0.86430   0.14020   0.01267  Uiso   1.00
O21    O     0.93910   0.01550   0.21480   0.01267  Uiso   1.00
O22    O     0.80750   0.83510   0.26820   0.01267  Uiso   1.00
O23    O     0.81860   0.23690   0.01230   0.01267  Uiso   1.00
O24    O     0.63370   0.23860   0.02220   0.01267  Uiso   1.00
O25    O     0.88130   0.92920   0.99530   0.01267  Uiso   1.00
O26    O     0.70530   0.93890   0.95950   0.01267  Uiso   1.00
O27    O     0.02110   0.71950   0.79600   0.01267  Uiso   1.00
O28    O     0.93870   0.63570   0.64020   0.01267  Uiso   1.00
O29    O     0.06090   0.48450   0.71480   0.01267  Uiso   1.00
O30    O     0.19250   0.66490   0.76820   0.01267  Uiso   1.00
O31    O     0.18140   0.26310   0.51230   0.01267  Uiso   1.00
O32    O     0.36630   0.26140   0.52220   0.01267  Uiso   1.00
