data_COYTEQ_clean
_audit_creation_date              2014-07-02
_audit_creation_method            'Materials Studio'
_symmetry_space_group_name_H-M    'P1'
_symmetry_Int_Tables_number       1
_symmetry_cell_setting            triclinic
loop_
_symmetry_equiv_pos_as_xyz
  x,y,z
_cell_length_a                    12.1200
_cell_length_b                    12.3605
_cell_length_c                    12.8067
_cell_angle_alpha                 90.0000
_cell_angle_beta                  90.0000
_cell_angle_gamma                 114.9740
loop_
_atom_site_label
_atom_site_type_symbol
_atom_site_fract_x
_atom_site_fract_y
_atom_site_fract_z
_atom_site_U_iso_or_equiv
_atom_site_adp_type
_atom_site_occupancy
La1    La    0.54822   0.85370   0.45520   0.01267  Uiso   1.00
La2    La    0.45178   0.64630   0.95520   0.01267  Uiso   1.00
La3    La    0.45178   0.14630   0.54480   0.01267  Uiso   1.00
La4    La    0.54822   0.35370   0.04480   0.01267  Uiso   1.00
H1     H     0.63370   0.66780   0.28420   0.01267  Uiso   1.00
H2     H     0.20270   0.57620   0.16610   0.01267  Uiso   1.00
H3     H     0.07150   0.75230   0.35310   0.01267  Uiso   1.00
H4     H     0.02210   0.45330   0.13160   0.01267  Uiso   1.00
H5     H     0.90540   0.66980   0.28360   0.01267  Uiso   1.00
H6     H     0.36630   0.83220   0.78420   0.01267  Uiso   1.00
H7     H     0.79730   0.92380   0.66610   0.01267  Uiso   1.00
H8     H     0.92850   0.74770   0.85310   0.01267  Uiso   1.00
H9     H     0.97790   0.04670   0.63160   0.01267  Uiso   1.00
H10    H     0.09460   0.83020   0.78360   0.01267  Uiso   1.00
H11    H     0.36630   0.33220   0.71580   0.01267  Uiso   1.00
H12    H     0.79730   0.42380   0.83390   0.01267  Uiso   1.00
H13    H     0.92850   0.24770   0.64690   0.01267  Uiso   1.00
H14    H     0.97790   0.54670   0.86840   0.01267  Uiso   1.00
H15    H     0.09460   0.33020   0.71640   0.01267  Uiso   1.00
H16    H     0.63370   0.16780   0.21580   0.01267  Uiso   1.00
H17    H     0.20270   0.07620   0.33390   0.01267  Uiso   1.00
H18    H     0.07150   0.25230   0.14690   0.01267  Uiso   1.00
H19    H     0.02210   0.95330   0.36840   0.01267  Uiso   1.00
H20    H     0.90540   0.16980   0.21640   0.01267  Uiso   1.00
C1     C     0.43630   0.67810   0.23540   0.01267  Uiso   1.00
C2     C     0.27950   0.89320   0.44800   0.01267  Uiso   1.00
C3     C     0.80800   0.30490   0.04600   0.01267  Uiso   1.00
C4     C     0.66860   0.55450   0.23340   0.01267  Uiso   1.00
C5     C     0.32500   0.69210   0.26740   0.01267  Uiso   1.00
C6     C     0.21190   0.62950   0.22020   0.01267  Uiso   1.00
C7     C     0.11380   0.64850   0.25550   0.01267  Uiso   1.00
C8     C     0.13490   0.73470   0.33030   0.01267  Uiso   1.00
C9     C     0.25000   0.79530   0.37180   0.01267  Uiso   1.00
C10    C     0.84340   0.41020   0.12050   0.01267  Uiso   1.00
C11    C     0.96090   0.47540   0.15230   0.01267  Uiso   1.00
C12    C     0.98850   0.57490   0.21590   0.01267  Uiso   1.00
C13    C     0.89180   0.60310   0.24280   0.01267  Uiso   1.00
C14    C     0.77740   0.53180   0.20860   0.01267  Uiso   1.00
C15    C     0.56370   0.82190   0.73540   0.01267  Uiso   1.00
C16    C     0.72050   0.60680   0.94800   0.01267  Uiso   1.00
C17    C     0.19200   0.19510   0.54600   0.01267  Uiso   1.00
C18    C     0.33140   0.94550   0.73340   0.01267  Uiso   1.00
C19    C     0.67500   0.80790   0.76740   0.01267  Uiso   1.00
C20    C     0.78810   0.87050   0.72020   0.01267  Uiso   1.00
C21    C     0.88620   0.85150   0.75550   0.01267  Uiso   1.00
C22    C     0.86510   0.76530   0.83030   0.01267  Uiso   1.00
C23    C     0.75000   0.70470   0.87180   0.01267  Uiso   1.00
C24    C     0.15660   0.08980   0.62050   0.01267  Uiso   1.00
C25    C     0.03910   0.02460   0.65230   0.01267  Uiso   1.00
C26    C     0.01150   0.92510   0.71590   0.01267  Uiso   1.00
C27    C     0.10820   0.89690   0.74280   0.01267  Uiso   1.00
C28    C     0.22260   0.96820   0.70860   0.01267  Uiso   1.00
C29    C     0.56370   0.32190   0.76460   0.01267  Uiso   1.00
C30    C     0.72050   0.10680   0.55200   0.01267  Uiso   1.00
C31    C     0.19200   0.69510   0.95400   0.01267  Uiso   1.00
C32    C     0.33140   0.44550   0.76660   0.01267  Uiso   1.00
C33    C     0.67500   0.30790   0.73260   0.01267  Uiso   1.00
C34    C     0.78810   0.37050   0.77980   0.01267  Uiso   1.00
C35    C     0.88620   0.35150   0.74450   0.01267  Uiso   1.00
C36    C     0.86510   0.26530   0.66970   0.01267  Uiso   1.00
C37    C     0.75000   0.20470   0.62820   0.01267  Uiso   1.00
C38    C     0.15660   0.58980   0.87950   0.01267  Uiso   1.00
C39    C     0.03910   0.52460   0.84770   0.01267  Uiso   1.00
C40    C     0.01150   0.42510   0.78410   0.01267  Uiso   1.00
C41    C     0.10820   0.39690   0.75720   0.01267  Uiso   1.00
C42    C     0.22260   0.46820   0.79140   0.01267  Uiso   1.00
C43    C     0.43630   0.17810   0.26460   0.01267  Uiso   1.00
C44    C     0.27950   0.39320   0.05200   0.01267  Uiso   1.00
C45    C     0.80800   0.80490   0.45400   0.01267  Uiso   1.00
C46    C     0.66860   0.05450   0.26660   0.01267  Uiso   1.00
C47    C     0.32500   0.19210   0.23260   0.01267  Uiso   1.00
C48    C     0.21190   0.12950   0.27980   0.01267  Uiso   1.00
C49    C     0.11380   0.14850   0.24450   0.01267  Uiso   1.00
C50    C     0.13490   0.23470   0.16970   0.01267  Uiso   1.00
C51    C     0.25000   0.29530   0.12820   0.01267  Uiso   1.00
C52    C     0.84340   0.91020   0.37950   0.01267  Uiso   1.00
C53    C     0.96090   0.97540   0.34770   0.01267  Uiso   1.00
C54    C     0.98850   0.07490   0.28410   0.01267  Uiso   1.00
C55    C     0.89180   0.10310   0.25720   0.01267  Uiso   1.00
C56    C     0.77740   0.03180   0.29140   0.01267  Uiso   1.00
N1     N     0.34290   0.77000   0.34390   0.01267  Uiso   1.00
N2     N     0.75260   0.43710   0.15010   0.01267  Uiso   1.00
N3     N     0.65710   0.73000   0.84390   0.01267  Uiso   1.00
N4     N     0.24740   0.06290   0.65010   0.01267  Uiso   1.00
N5     N     0.65710   0.23000   0.65610   0.01267  Uiso   1.00
N6     N     0.24740   0.56290   0.84990   0.01267  Uiso   1.00
N7     N     0.34290   0.27000   0.15610   0.01267  Uiso   1.00
N8     N     0.75260   0.93710   0.34990   0.01267  Uiso   1.00
O1     O     0.52100   0.71100   0.30300   0.01267  Uiso   1.00
O2     O     0.44000   0.63560   0.15050   0.01267  Uiso   1.00
O3     O     0.38190   0.92470   0.49770   0.01267  Uiso   1.00
O4     O     0.21370   0.94560   0.45750   0.01267  Uiso   1.00
O5     O     0.69890   0.26670   0.01060   0.01267  Uiso   1.00
O6     O     0.88350   0.26780   0.02650   0.01267  Uiso   1.00
O7     O     0.56680   0.47990   0.21470   0.01267  Uiso   1.00
O8     O     0.69620   0.65920   0.27330   0.01267  Uiso   1.00
O9     O     0.47900   0.78900   0.80300   0.01267  Uiso   1.00
O10    O     0.56000   0.86440   0.65050   0.01267  Uiso   1.00
O11    O     0.61810   0.57530   0.99770   0.01267  Uiso   1.00
O12    O     0.78630   0.55440   0.95750   0.01267  Uiso   1.00
O13    O     0.30110   0.23330   0.51060   0.01267  Uiso   1.00
O14    O     0.11650   0.23220   0.52650   0.01267  Uiso   1.00
O15    O     0.43320   0.02010   0.71470   0.01267  Uiso   1.00
O16    O     0.30380   0.84080   0.77330   0.01267  Uiso   1.00
O17    O     0.47900   0.28900   0.69700   0.01267  Uiso   1.00
O18    O     0.56000   0.36440   0.84950   0.01267  Uiso   1.00
O19    O     0.61810   0.07530   0.50230   0.01267  Uiso   1.00
O20    O     0.78630   0.05440   0.54250   0.01267  Uiso   1.00
O21    O     0.30110   0.73330   0.98940   0.01267  Uiso   1.00
O22    O     0.11650   0.73220   0.97350   0.01267  Uiso   1.00
O23    O     0.43320   0.52010   0.78530   0.01267  Uiso   1.00
O24    O     0.30380   0.34080   0.72670   0.01267  Uiso   1.00
O25    O     0.52100   0.21100   0.19700   0.01267  Uiso   1.00
O26    O     0.44000   0.13560   0.34950   0.01267  Uiso   1.00
O27    O     0.38190   0.42470   0.00230   0.01267  Uiso   1.00
O28    O     0.21370   0.44560   0.04250   0.01267  Uiso   1.00
O29    O     0.69890   0.76670   0.48940   0.01267  Uiso   1.00
O30    O     0.88350   0.76780   0.47350   0.01267  Uiso   1.00
O31    O     0.56680   0.97990   0.28530   0.01267  Uiso   1.00
O32    O     0.69620   0.15920   0.22670   0.01267  Uiso   1.00
