data_COYTUG_clean
_audit_creation_date              2014-07-02
_audit_creation_method            'Materials Studio'
_symmetry_space_group_name_H-M    'P1'
_symmetry_Int_Tables_number       1
_symmetry_cell_setting            triclinic
loop_
_symmetry_equiv_pos_as_xyz
  x,y,z
_cell_length_a                    12.1300
_cell_length_b                    12.7016
_cell_length_c                    21.8190
_cell_angle_alpha                 82.7499
_cell_angle_beta                  74.6750
_cell_angle_gamma                 61.4777
loop_
_atom_site_label
_atom_site_type_symbol
_atom_site_fract_x
_atom_site_fract_y
_atom_site_fract_z
_atom_site_U_iso_or_equiv
_atom_site_adp_type
_atom_site_occupancy
Tb1    Tb    0.76826   0.73906   0.47445   0.01267  Uiso   1.00
Tb2    Tb    0.49268   0.73906   0.02555   0.01267  Uiso   1.00
Tb3    Tb    0.23174   0.26094   0.52555   0.01267  Uiso   1.00
Tb4    Tb    0.50732   0.26094   0.97445   0.01267  Uiso   1.00
Tb5    Tb    0.78750   0.42500   0.25000   0.01267  Uiso   1.00
Tb6    Tb    0.21250   0.57500   0.75000   0.01267  Uiso   1.00
Tb7    Tb    0.24701   0.50598   0.25000   0.01267  Uiso   1.00
Tb8    Tb    0.75299   0.49402   0.75000   0.01267  Uiso   1.00
H1     H     0.02860   0.86940   0.41510   0.01267  Uiso   1.00
H2     H     0.41820   0.70200   0.38320   0.01267  Uiso   1.00
H3     H     0.06370   0.04020   0.40750   0.01267  Uiso   1.00
H4     H     0.37260   0.80760   0.47560   0.01267  Uiso   1.00
H5     H     0.53170   0.87600   0.16310   0.01267  Uiso   1.00
H6     H     0.41520   0.05780   0.34540   0.01267  Uiso   1.00
H7     H     0.10200   0.86940   0.08490   0.01267  Uiso   1.00
H8     H     0.87980   0.70200   0.11680   0.01267  Uiso   1.00
H9     H     0.89610   0.04020   0.09250   0.01267  Uiso   1.00
H10    H     0.81980   0.80760   0.02440   0.01267  Uiso   1.00
H11    H     0.59230   0.87600   0.33690   0.01267  Uiso   1.00
H12    H     0.52700   0.05780   0.15460   0.01267  Uiso   1.00
H13    H     0.97140   0.13060   0.58490   0.01267  Uiso   1.00
H14    H     0.58180   0.29800   0.61680   0.01267  Uiso   1.00
H15    H     0.93630   0.95980   0.59250   0.01267  Uiso   1.00
H16    H     0.62740   0.19240   0.52440   0.01267  Uiso   1.00
H17    H     0.46830   0.12400   0.83690   0.01267  Uiso   1.00
H18    H     0.58480   0.94220   0.65460   0.01267  Uiso   1.00
H19    H     0.89800   0.13060   0.91510   0.01267  Uiso   1.00
H20    H     0.12020   0.29800   0.88320   0.01267  Uiso   1.00
H21    H     0.10390   0.95980   0.90750   0.01267  Uiso   1.00
H22    H     0.18020   0.19240   0.97560   0.01267  Uiso   1.00
H23    H     0.40770   0.12400   0.66310   0.01267  Uiso   1.00
H24    H     0.47300   0.94220   0.84540   0.01267  Uiso   1.00
C1     C     0.64680   0.63160   0.14960   0.01267  Uiso   1.00
C2     C     0.28090   0.30040   0.36050   0.01267  Uiso   1.00
C3     C     0.00390   0.71800   0.34710   0.01267  Uiso   1.00
C4     C     0.12040   0.72080   0.36070   0.01267  Uiso   1.00
C5     C     0.11090   0.80820   0.39550   0.01267  Uiso   1.00
C6     C     0.22310   0.80680   0.40210   0.01267  Uiso   1.00
C7     C     0.34000   0.71000   0.37680   0.01267  Uiso   1.00
C8     C     0.34130   0.62460   0.34200   0.01267  Uiso   1.00
C9     C     0.46490   0.51680   0.30650   0.01267  Uiso   1.00
C10    C     0.03410   0.24380   0.45600   0.01267  Uiso   1.00
C11    C     0.12780   0.11040   0.45950   0.01267  Uiso   1.00
C12    C     0.12630   0.02140   0.43110   0.01267  Uiso   1.00
C13    C     0.21770   0.90240   0.43690   0.01267  Uiso   1.00
C14    C     0.30600   0.88600   0.47150   0.01267  Uiso   1.00
C15    C     0.29850   0.98100   0.50020   0.01267  Uiso   1.00
C16    C     0.37320   0.99420   0.54460   0.01267  Uiso   1.00
C17    C     0.62580   0.71440   0.20110   0.01267  Uiso   1.00
C18    C     0.56400   0.83600   0.19910   0.01267  Uiso   1.00
C19    C     0.35980   0.21840   0.30290   0.01267  Uiso   1.00
C20    C     0.41840   0.09720   0.30550   0.01267  Uiso   1.00
C21    C     0.72160   0.63160   0.35040   0.01267  Uiso   1.00
C22    C     0.41870   0.30040   0.13950   0.01267  Uiso   1.00
C23    C     0.27810   0.71800   0.15290   0.01267  Uiso   1.00
C24    C     0.15880   0.72080   0.13930   0.01267  Uiso   1.00
C25    C     0.08090   0.80820   0.10450   0.01267  Uiso   1.00
C26    C     0.97010   0.80680   0.09790   0.01267  Uiso   1.00
C27    C     0.95000   0.71000   0.12320   0.01267  Uiso   1.00
C28    C     0.03410   0.62460   0.15800   0.01267  Uiso   1.00
C29    C     0.01830   0.51680   0.19350   0.01267  Uiso   1.00
C30    C     0.72210   0.24380   0.04400   0.01267  Uiso   1.00
C31    C     0.76180   0.11040   0.04050   0.01267  Uiso   1.00
C32    C     0.85230   0.02140   0.06890   0.01267  Uiso   1.00
C33    C     0.87990   0.90240   0.06310   0.01267  Uiso   1.00
C34    C     0.80800   0.88600   0.02850   0.01267  Uiso   1.00
C35    C     0.72050   0.98100   0.99980   0.01267  Uiso   1.00
C36    C     0.63260   0.99420   0.95540   0.01267  Uiso   1.00
C37    C     0.65980   0.71440   0.29890   0.01267  Uiso   1.00
C38    C     0.60000   0.83600   0.30090   0.01267  Uiso   1.00
C39    C     0.42180   0.21840   0.19710   0.01267  Uiso   1.00
C40    C     0.48440   0.09720   0.19450   0.01267  Uiso   1.00
C41    C     0.35320   0.36840   0.85040   0.01267  Uiso   1.00
C42    C     0.71910   0.69960   0.63950   0.01267  Uiso   1.00
C43    C     0.99610   0.28200   0.65290   0.01267  Uiso   1.00
C44    C     0.87960   0.27920   0.63930   0.01267  Uiso   1.00
C45    C     0.88910   0.19180   0.60450   0.01267  Uiso   1.00
C46    C     0.77690   0.19320   0.59790   0.01267  Uiso   1.00
C47    C     0.66000   0.29000   0.62320   0.01267  Uiso   1.00
C48    C     0.65870   0.37540   0.65800   0.01267  Uiso   1.00
C49    C     0.53510   0.48320   0.69350   0.01267  Uiso   1.00
C50    C     0.96590   0.75620   0.54400   0.01267  Uiso   1.00
C51    C     0.87220   0.88960   0.54050   0.01267  Uiso   1.00
C52    C     0.87370   0.97860   0.56890   0.01267  Uiso   1.00
C53    C     0.78230   0.09760   0.56310   0.01267  Uiso   1.00
C54    C     0.69400   0.11400   0.52850   0.01267  Uiso   1.00
C55    C     0.70150   0.01900   0.49980   0.01267  Uiso   1.00
C56    C     0.62680   0.00580   0.45540   0.01267  Uiso   1.00
C57    C     0.37420   0.28560   0.79890   0.01267  Uiso   1.00
C58    C     0.43600   0.16400   0.80090   0.01267  Uiso   1.00
C59    C     0.64020   0.78160   0.69710   0.01267  Uiso   1.00
C60    C     0.58160   0.90280   0.69450   0.01267  Uiso   1.00
C61    C     0.27840   0.36840   0.64960   0.01267  Uiso   1.00
C62    C     0.58130   0.69960   0.86050   0.01267  Uiso   1.00
C63    C     0.72190   0.28200   0.84710   0.01267  Uiso   1.00
C64    C     0.84120   0.27920   0.86070   0.01267  Uiso   1.00
C65    C     0.91910   0.19180   0.89550   0.01267  Uiso   1.00
C66    C     0.02990   0.19320   0.90210   0.01267  Uiso   1.00
C67    C     0.05000   0.29000   0.87680   0.01267  Uiso   1.00
C68    C     0.96590   0.37540   0.84200   0.01267  Uiso   1.00
C69    C     0.98170   0.48320   0.80650   0.01267  Uiso   1.00
C70    C     0.27790   0.75620   0.95600   0.01267  Uiso   1.00
C71    C     0.23820   0.88960   0.95950   0.01267  Uiso   1.00
C72    C     0.14770   0.97860   0.93110   0.01267  Uiso   1.00
C73    C     0.12010   0.09760   0.93690   0.01267  Uiso   1.00
C74    C     0.19200   0.11400   0.97150   0.01267  Uiso   1.00
C75    C     0.27950   0.01900   0.00020   0.01267  Uiso   1.00
C76    C     0.36740   0.00580   0.04460   0.01267  Uiso   1.00
C77    C     0.34020   0.28560   0.70110   0.01267  Uiso   1.00
C78    C     0.40000   0.16400   0.69910   0.01267  Uiso   1.00
C79    C     0.57820   0.78160   0.80290   0.01267  Uiso   1.00
C80    C     0.51560   0.90280   0.80550   0.01267  Uiso   1.00
C81    C     0.54900   0.90200   0.25000   0.01267  Uiso   1.00
C82    C     0.48470   0.03060   0.25000   0.01267  Uiso   1.00
C83    C     0.45100   0.09800   0.75000   0.01267  Uiso   1.00
C84    C     0.51530   0.96940   0.75000   0.01267  Uiso   1.00
N1     N     0.23390   0.63220   0.33130   0.01267  Uiso   1.00
N2     N     0.21060   0.08920   0.49400   0.01267  Uiso   1.00
N3     N     0.13390   0.63220   0.16870   0.01267  Uiso   1.00
N4     N     0.70020   0.08920   0.00600   0.01267  Uiso   1.00
N5     N     0.76610   0.36780   0.66870   0.01267  Uiso   1.00
N6     N     0.78940   0.91080   0.50600   0.01267  Uiso   1.00
N7     N     0.86610   0.36780   0.83130   0.01267  Uiso   1.00
N8     N     0.29980   0.91080   0.99400   0.01267  Uiso   1.00
N9     N     0.67370   0.65260   0.25000   0.01267  Uiso   1.00
N10    N     0.35870   0.28260   0.25000   0.01267  Uiso   1.00
N11    N     0.32630   0.34740   0.75000   0.01267  Uiso   1.00
N12    N     0.64130   0.71740   0.75000   0.01267  Uiso   1.00
O1     O     0.03160   0.64900   0.30170   0.01267  Uiso   1.00
O2     O     0.89630   0.77780   0.38170   0.01267  Uiso   1.00
O3     O     0.44770   0.45240   0.27620   0.01267  Uiso   1.00
O4     O     0.56840   0.50640   0.31250   0.01267  Uiso   1.00
O5     O     0.03930   0.31300   0.48940   0.01267  Uiso   1.00
O6     O     0.95480   0.27440   0.42250   0.01267  Uiso   1.00
O7     O     0.40220   0.08380   0.53380   0.01267  Uiso   1.00
O8     O     0.38380   0.90040   0.58270   0.01267  Uiso   1.00
O9     O     0.69350   0.52580   0.15830   0.01267  Uiso   1.00
O10    O     0.61900   0.68900   0.09780   0.01267  Uiso   1.00
O11    O     0.21880   0.41040   0.35250   0.01267  Uiso   1.00
O12    O     0.28830   0.24580   0.41310   0.01267  Uiso   1.00
O13    O     0.31940   0.64900   0.19830   0.01267  Uiso   1.00
O14    O     0.32590   0.77780   0.11830   0.01267  Uiso   1.00
O15    O     0.09990   0.45240   0.22380   0.01267  Uiso   1.00
O16    O     0.92520   0.50640   0.18750   0.01267  Uiso   1.00
O17    O     0.64770   0.31300   0.01060   0.01267  Uiso   1.00
O18    O     0.77080   0.27440   0.07750   0.01267  Uiso   1.00
O19    O     0.51400   0.08380   0.96620   0.01267  Uiso   1.00
O20    O     0.71580   0.90040   0.91730   0.01267  Uiso   1.00
O21    O     0.78070   0.52580   0.34170   0.01267  Uiso   1.00
O22    O     0.69200   0.68900   0.40220   0.01267  Uiso   1.00
O23    O     0.37080   0.41040   0.14750   0.01267  Uiso   1.00
O24    O     0.46590   0.24580   0.08690   0.01267  Uiso   1.00
O25    O     0.96840   0.35100   0.69830   0.01267  Uiso   1.00
O26    O     0.10370   0.22220   0.61830   0.01267  Uiso   1.00
O27    O     0.55230   0.54760   0.72380   0.01267  Uiso   1.00
O28    O     0.43160   0.49360   0.68750   0.01267  Uiso   1.00
O29    O     0.96070   0.68700   0.51060   0.01267  Uiso   1.00
O30    O     0.04520   0.72560   0.57750   0.01267  Uiso   1.00
O31    O     0.59780   0.91620   0.46620   0.01267  Uiso   1.00
O32    O     0.61620   0.09960   0.41730   0.01267  Uiso   1.00
O33    O     0.30650   0.47420   0.84170   0.01267  Uiso   1.00
O34    O     0.38100   0.31100   0.90220   0.01267  Uiso   1.00
O35    O     0.78120   0.58960   0.64750   0.01267  Uiso   1.00
O36    O     0.71170   0.75420   0.58690   0.01267  Uiso   1.00
O37    O     0.68060   0.35100   0.80170   0.01267  Uiso   1.00
O38    O     0.67410   0.22220   0.88170   0.01267  Uiso   1.00
O39    O     0.90010   0.54760   0.77620   0.01267  Uiso   1.00
O40    O     0.07480   0.49360   0.81250   0.01267  Uiso   1.00
O41    O     0.35230   0.68700   0.98940   0.01267  Uiso   1.00
O42    O     0.22920   0.72560   0.92250   0.01267  Uiso   1.00
O43    O     0.48600   0.91620   0.03380   0.01267  Uiso   1.00
O44    O     0.28420   0.09960   0.08270   0.01267  Uiso   1.00
O45    O     0.21930   0.47420   0.65830   0.01267  Uiso   1.00
O46    O     0.30800   0.31100   0.59780   0.01267  Uiso   1.00
O47    O     0.62920   0.58960   0.85250   0.01267  Uiso   1.00
O48    O     0.53410   0.75420   0.91310   0.01267  Uiso   1.00
