data_COYVES_clean
_audit_creation_date              2014-07-02
_audit_creation_method            'Materials Studio'
_symmetry_space_group_name_H-M    'P1'
_symmetry_Int_Tables_number       1
_symmetry_cell_setting            triclinic
loop_
_symmetry_equiv_pos_as_xyz
  x,y,z
_cell_length_a                    12.1260
_cell_length_b                    12.6787
_cell_length_c                    21.5680
_cell_angle_alpha                 82.7587
_cell_angle_beta                  74.7170
_cell_angle_gamma                 61.4318
loop_
_atom_site_label
_atom_site_type_symbol
_atom_site_fract_x
_atom_site_fract_y
_atom_site_fract_z
_atom_site_U_iso_or_equiv
_atom_site_adp_type
_atom_site_occupancy
Ho1    Ho    0.76999   0.73928   0.47432   0.01267  Uiso   1.00
Ho2    Ho    0.49073   0.73928   0.02568   0.01267  Uiso   1.00
Ho3    Ho    0.23001   0.26072   0.52568   0.01267  Uiso   1.00
Ho4    Ho    0.50927   0.26072   0.97432   0.01267  Uiso   1.00
Ho5    Ho    0.78511   0.42978   0.25000   0.01267  Uiso   1.00
Ho6    Ho    0.21489   0.57022   0.75000   0.01267  Uiso   1.00
Ho7    Ho    0.24689   0.50622   0.25000   0.01267  Uiso   1.00
Ho8    Ho    0.75311   0.49378   0.75000   0.01267  Uiso   1.00
H1     H     0.02910   0.86940   0.41480   0.01267  Uiso   1.00
H2     H     0.42000   0.70100   0.38060   0.01267  Uiso   1.00
H3     H     0.06370   0.04220   0.40560   0.01267  Uiso   1.00
H4     H     0.36810   0.80720   0.47980   0.01267  Uiso   1.00
H5     H     0.59270   0.87880   0.33670   0.01267  Uiso   1.00
H6     H     0.42030   0.05980   0.34670   0.01267  Uiso   1.00
H7     H     0.10150   0.86940   0.08520   0.01267  Uiso   1.00
H8     H     0.87900   0.70100   0.11940   0.01267  Uiso   1.00
H9     H     0.89410   0.04220   0.09440   0.01267  Uiso   1.00
H10    H     0.82470   0.80720   0.02020   0.01267  Uiso   1.00
H11    H     0.52850   0.87880   0.16330   0.01267  Uiso   1.00
H12    H     0.51990   0.05980   0.15330   0.01267  Uiso   1.00
H13    H     0.97090   0.13060   0.58520   0.01267  Uiso   1.00
H14    H     0.58000   0.29900   0.61940   0.01267  Uiso   1.00
H15    H     0.93630   0.95780   0.59440   0.01267  Uiso   1.00
H16    H     0.63190   0.19280   0.52020   0.01267  Uiso   1.00
H17    H     0.40730   0.12120   0.66330   0.01267  Uiso   1.00
H18    H     0.57970   0.94020   0.65330   0.01267  Uiso   1.00
H19    H     0.89850   0.13060   0.91480   0.01267  Uiso   1.00
H20    H     0.12100   0.29900   0.88060   0.01267  Uiso   1.00
H21    H     0.10590   0.95780   0.90560   0.01267  Uiso   1.00
H22    H     0.17530   0.19280   0.97980   0.01267  Uiso   1.00
H23    H     0.47150   0.12120   0.83670   0.01267  Uiso   1.00
H24    H     0.48010   0.94020   0.84670   0.01267  Uiso   1.00
C1     C     0.71950   0.63500   0.35210   0.01267  Uiso   1.00
C2     C     0.27880   0.30440   0.36130   0.01267  Uiso   1.00
C3     C     0.00530   0.71640   0.34800   0.01267  Uiso   1.00
C4     C     0.12200   0.72080   0.35970   0.01267  Uiso   1.00
C5     C     0.11180   0.80860   0.39490   0.01267  Uiso   1.00
C6     C     0.22270   0.80900   0.40150   0.01267  Uiso   1.00
C7     C     0.34130   0.70940   0.37460   0.01267  Uiso   1.00
C8     C     0.34340   0.62520   0.34000   0.01267  Uiso   1.00
C9     C     0.46230   0.51740   0.30410   0.01267  Uiso   1.00
C10    C     0.03020   0.24560   0.45600   0.01267  Uiso   1.00
C11    C     0.12660   0.11280   0.45870   0.01267  Uiso   1.00
C12    C     0.12630   0.02340   0.42980   0.01267  Uiso   1.00
C13    C     0.21660   0.90480   0.43570   0.01267  Uiso   1.00
C14    C     0.30480   0.88640   0.47290   0.01267  Uiso   1.00
C15    C     0.29940   0.98120   0.49860   0.01267  Uiso   1.00
C16    C     0.37170   0.00240   0.53970   0.01267  Uiso   1.00
C17    C     0.65840   0.71520   0.29970   0.01267  Uiso   1.00
C18    C     0.59910   0.83780   0.30090   0.01267  Uiso   1.00
C19    C     0.35750   0.22300   0.30420   0.01267  Uiso   1.00
C20    C     0.41980   0.10040   0.30660   0.01267  Uiso   1.00
C21    C     0.64550   0.63500   0.14790   0.01267  Uiso   1.00
C22    C     0.41680   0.30440   0.13870   0.01267  Uiso   1.00
C23    C     0.27830   0.71640   0.15200   0.01267  Uiso   1.00
C24    C     0.15720   0.72080   0.14030   0.01267  Uiso   1.00
C25    C     0.07960   0.80860   0.10510   0.01267  Uiso   1.00
C26    C     0.96830   0.80900   0.09850   0.01267  Uiso   1.00
C27    C     0.94930   0.70940   0.12540   0.01267  Uiso   1.00
C28    C     0.03140   0.62520   0.16000   0.01267  Uiso   1.00
C29    C     0.02030   0.51740   0.19590   0.01267  Uiso   1.00
C30    C     0.72420   0.24560   0.04400   0.01267  Uiso   1.00
C31    C     0.76060   0.11280   0.04130   0.01267  Uiso   1.00
C32    C     0.85030   0.02340   0.07020   0.01267  Uiso   1.00
C33    C     0.87860   0.90480   0.06430   0.01267  Uiso   1.00
C34    C     0.80880   0.88640   0.02710   0.01267  Uiso   1.00
C35    C     0.71940   0.98120   0.00140   0.01267  Uiso   1.00
C36    C     0.62590   0.00240   0.96030   0.01267  Uiso   1.00
C37    C     0.62640   0.71520   0.20030   0.01267  Uiso   1.00
C38    C     0.56310   0.83780   0.19910   0.01267  Uiso   1.00
C39    C     0.41950   0.22300   0.19580   0.01267  Uiso   1.00
C40    C     0.47980   0.10040   0.19340   0.01267  Uiso   1.00
C41    C     0.28050   0.36500   0.64790   0.01267  Uiso   1.00
C42    C     0.72120   0.69560   0.63870   0.01267  Uiso   1.00
C43    C     0.99470   0.28360   0.65200   0.01267  Uiso   1.00
C44    C     0.87800   0.27920   0.64030   0.01267  Uiso   1.00
C45    C     0.88820   0.19140   0.60510   0.01267  Uiso   1.00
C46    C     0.77730   0.19100   0.59850   0.01267  Uiso   1.00
C47    C     0.65870   0.29060   0.62540   0.01267  Uiso   1.00
C48    C     0.65660   0.37480   0.66000   0.01267  Uiso   1.00
C49    C     0.53770   0.48260   0.69590   0.01267  Uiso   1.00
C50    C     0.96980   0.75440   0.54400   0.01267  Uiso   1.00
C51    C     0.87340   0.88720   0.54130   0.01267  Uiso   1.00
C52    C     0.87370   0.97660   0.57020   0.01267  Uiso   1.00
C53    C     0.78340   0.09520   0.56430   0.01267  Uiso   1.00
C54    C     0.69520   0.11360   0.52710   0.01267  Uiso   1.00
C55    C     0.70060   0.01880   0.50140   0.01267  Uiso   1.00
C56    C     0.62830   0.99760   0.46030   0.01267  Uiso   1.00
C57    C     0.34160   0.28480   0.70030   0.01267  Uiso   1.00
C58    C     0.40090   0.16220   0.69910   0.01267  Uiso   1.00
C59    C     0.64250   0.77700   0.69580   0.01267  Uiso   1.00
C60    C     0.58020   0.89960   0.69340   0.01267  Uiso   1.00
C61    C     0.35450   0.36500   0.85210   0.01267  Uiso   1.00
C62    C     0.58320   0.69560   0.86130   0.01267  Uiso   1.00
C63    C     0.72170   0.28360   0.84800   0.01267  Uiso   1.00
C64    C     0.84280   0.27920   0.85970   0.01267  Uiso   1.00
C65    C     0.92040   0.19140   0.89490   0.01267  Uiso   1.00
C66    C     0.03170   0.19100   0.90150   0.01267  Uiso   1.00
C67    C     0.05070   0.29060   0.87460   0.01267  Uiso   1.00
C68    C     0.96860   0.37480   0.84000   0.01267  Uiso   1.00
C69    C     0.97970   0.48260   0.80410   0.01267  Uiso   1.00
C70    C     0.27580   0.75440   0.95600   0.01267  Uiso   1.00
C71    C     0.23940   0.88720   0.95870   0.01267  Uiso   1.00
C72    C     0.14970   0.97660   0.92980   0.01267  Uiso   1.00
C73    C     0.12140   0.09520   0.93570   0.01267  Uiso   1.00
C74    C     0.19120   0.11360   0.97290   0.01267  Uiso   1.00
C75    C     0.28060   0.01880   0.99860   0.01267  Uiso   1.00
C76    C     0.37410   0.99760   0.03970   0.01267  Uiso   1.00
C77    C     0.37360   0.28480   0.79970   0.01267  Uiso   1.00
C78    C     0.43690   0.16220   0.80090   0.01267  Uiso   1.00
C79    C     0.58050   0.77700   0.80420   0.01267  Uiso   1.00
C80    C     0.52020   0.89960   0.80660   0.01267  Uiso   1.00
C81    C     0.54910   0.90180   0.25000   0.01267  Uiso   1.00
C82    C     0.48150   0.03700   0.25000   0.01267  Uiso   1.00
C83    C     0.45090   0.09820   0.75000   0.01267  Uiso   1.00
C84    C     0.51850   0.96300   0.75000   0.01267  Uiso   1.00
N1     N     0.23460   0.63240   0.33060   0.01267  Uiso   1.00
N2     N     0.21150   0.08860   0.49380   0.01267  Uiso   1.00
N3     N     0.13300   0.63240   0.16940   0.01267  Uiso   1.00
N4     N     0.69990   0.08860   0.00620   0.01267  Uiso   1.00
N5     N     0.76540   0.36760   0.66940   0.01267  Uiso   1.00
N6     N     0.78850   0.91140   0.50620   0.01267  Uiso   1.00
N7     N     0.86700   0.36760   0.83060   0.01267  Uiso   1.00
N8     N     0.30010   0.91140   0.99380   0.01267  Uiso   1.00
N9     N     0.67280   0.65440   0.25000   0.01267  Uiso   1.00
N10    N     0.35750   0.28500   0.25000   0.01267  Uiso   1.00
N11    N     0.32720   0.34560   0.75000   0.01267  Uiso   1.00
N12    N     0.64250   0.71500   0.75000   0.01267  Uiso   1.00
O1     O     0.03130   0.64880   0.30210   0.01267  Uiso   1.00
O2     O     0.89580   0.77720   0.38200   0.01267  Uiso   1.00
O3     O     0.44810   0.45180   0.27430   0.01267  Uiso   1.00
O4     O     0.56940   0.50920   0.30990   0.01267  Uiso   1.00
O5     O     0.04180   0.31440   0.48880   0.01267  Uiso   1.00
O6     O     0.95310   0.27780   0.42260   0.01267  Uiso   1.00
O7     O     0.40330   0.08940   0.53150   0.01267  Uiso   1.00
O8     O     0.38580   0.91240   0.58040   0.01267  Uiso   1.00
O9     O     0.77970   0.52660   0.34230   0.01267  Uiso   1.00
O10    O     0.69110   0.69100   0.40380   0.01267  Uiso   1.00
O11    O     0.21810   0.41400   0.35240   0.01267  Uiso   1.00
O12    O     0.28720   0.24960   0.41440   0.01267  Uiso   1.00
O13    O     0.31990   0.64880   0.19790   0.01267  Uiso   1.00
O14    O     0.32700   0.77720   0.11800   0.01267  Uiso   1.00
O15    O     0.10010   0.45180   0.22570   0.01267  Uiso   1.00
O16    O     0.92140   0.50920   0.19010   0.01267  Uiso   1.00
O17    O     0.64380   0.31440   0.01120   0.01267  Uiso   1.00
O18    O     0.76910   0.27780   0.07740   0.01267  Uiso   1.00
O19    O     0.50730   0.08940   0.96850   0.01267  Uiso   1.00
O20    O     0.70180   0.91240   0.91960   0.01267  Uiso   1.00
O21    O     0.69370   0.52660   0.15770   0.01267  Uiso   1.00
O22    O     0.61790   0.69100   0.09620   0.01267  Uiso   1.00
O23    O     0.36790   0.41400   0.14760   0.01267  Uiso   1.00
O24    O     0.46320   0.24960   0.08560   0.01267  Uiso   1.00
O25    O     0.96870   0.35120   0.69790   0.01267  Uiso   1.00
O26    O     0.10420   0.22280   0.61800   0.01267  Uiso   1.00
O27    O     0.55190   0.54820   0.72570   0.01267  Uiso   1.00
O28    O     0.43060   0.49080   0.69010   0.01267  Uiso   1.00
O29    O     0.95820   0.68560   0.51120   0.01267  Uiso   1.00
O30    O     0.04690   0.72220   0.57740   0.01267  Uiso   1.00
O31    O     0.59670   0.91060   0.46850   0.01267  Uiso   1.00
O32    O     0.61420   0.08760   0.41960   0.01267  Uiso   1.00
O33    O     0.22030   0.47340   0.65770   0.01267  Uiso   1.00
O34    O     0.30890   0.30900   0.59620   0.01267  Uiso   1.00
O35    O     0.78190   0.58600   0.64760   0.01267  Uiso   1.00
O36    O     0.71280   0.75040   0.58560   0.01267  Uiso   1.00
O37    O     0.68010   0.35120   0.80210   0.01267  Uiso   1.00
O38    O     0.67300   0.22280   0.88200   0.01267  Uiso   1.00
O39    O     0.89990   0.54820   0.77430   0.01267  Uiso   1.00
O40    O     0.07860   0.49080   0.80990   0.01267  Uiso   1.00
O41    O     0.35620   0.68560   0.98880   0.01267  Uiso   1.00
O42    O     0.23090   0.72220   0.92260   0.01267  Uiso   1.00
O43    O     0.49270   0.91060   0.03150   0.01267  Uiso   1.00
O44    O     0.29820   0.08760   0.08040   0.01267  Uiso   1.00
O45    O     0.30630   0.47340   0.84230   0.01267  Uiso   1.00
O46    O     0.38210   0.30900   0.90380   0.01267  Uiso   1.00
O47    O     0.63210   0.58600   0.85240   0.01267  Uiso   1.00
O48    O     0.53680   0.75040   0.91440   0.01267  Uiso   1.00
