data_COYVAO01_clean
_audit_creation_date              2014-07-02
_audit_creation_method            'Materials Studio'
_symmetry_space_group_name_H-M    'P1'
_symmetry_Int_Tables_number       1
_symmetry_cell_setting            triclinic
loop_
_symmetry_equiv_pos_as_xyz
  x,y,z
_cell_length_a                    12.1025
_cell_length_b                    12.6805
_cell_length_c                    21.6950
_cell_angle_alpha                 82.7590
_cell_angle_beta                  74.6850
_cell_angle_gamma                 61.4967
loop_
_atom_site_label
_atom_site_type_symbol
_atom_site_fract_x
_atom_site_fract_y
_atom_site_fract_z
_atom_site_U_iso_or_equiv
_atom_site_adp_type
_atom_site_occupancy
Dy1    Dy    0.50849   0.26034   0.47429   0.01267  Uiso   1.00
Dy2    Dy    0.23117   0.26034   0.02571   0.01267  Uiso   1.00
Dy3    Dy    0.49151   0.73966   0.52571   0.01267  Uiso   1.00
Dy4    Dy    0.76883   0.73966   0.97429   0.01267  Uiso   1.00
Dy5    Dy    0.75306   0.49388   0.25000   0.01267  Uiso   1.00
Dy6    Dy    0.24694   0.50612   0.75000   0.01267  Uiso   1.00
Dy7    Dy    0.21336   0.57328   0.25000   0.01267  Uiso   1.00
Dy8    Dy    0.78664   0.42672   0.75000   0.01267  Uiso   1.00
H1     H     0.90010   0.12860   0.41470   0.01267  Uiso   1.00
H2     H     0.12070   0.30060   0.38130   0.01267  Uiso   1.00
H3     H     0.10640   0.95940   0.40550   0.01267  Uiso   1.00
H4     H     0.16850   0.19600   0.48150   0.01267  Uiso   1.00
H5     H     0.47140   0.12020   0.33760   0.01267  Uiso   1.00
H6     H     0.47470   0.94220   0.34620   0.01267  Uiso   1.00
H7     H     0.97130   0.12860   0.08530   0.01267  Uiso   1.00
H8     H     0.57870   0.30060   0.11870   0.01267  Uiso   1.00
H9     H     0.93420   0.95940   0.09450   0.01267  Uiso   1.00
H10    H     0.63550   0.19600   0.01850   0.01267  Uiso   1.00
H11    H     0.40840   0.12020   0.16240   0.01267  Uiso   1.00
H12    H     0.58310   0.94220   0.15380   0.01267  Uiso   1.00
H13    H     0.09990   0.87140   0.58530   0.01267  Uiso   1.00
H14    H     0.87930   0.69940   0.61870   0.01267  Uiso   1.00
H15    H     0.89360   0.04060   0.59450   0.01267  Uiso   1.00
H16    H     0.83150   0.80400   0.51850   0.01267  Uiso   1.00
H17    H     0.52860   0.87980   0.66240   0.01267  Uiso   1.00
H18    H     0.52530   0.05780   0.65380   0.01267  Uiso   1.00
H19    H     0.02870   0.87140   0.91470   0.01267  Uiso   1.00
H20    H     0.42130   0.69940   0.88130   0.01267  Uiso   1.00
H21    H     0.06580   0.04060   0.90550   0.01267  Uiso   1.00
H22    H     0.36450   0.80400   0.98150   0.01267  Uiso   1.00
H23    H     0.59160   0.87980   0.83760   0.01267  Uiso   1.00
H24    H     0.41690   0.05780   0.84620   0.01267  Uiso   1.00
C1     C     0.35360   0.36280   0.35210   0.01267  Uiso   1.00
C2     C     0.58230   0.69920   0.36180   0.01267  Uiso   1.00
C3     C     0.72210   0.28440   0.34690   0.01267  Uiso   1.00
C4     C     0.84300   0.27820   0.35920   0.01267  Uiso   1.00
C5     C     0.92030   0.19060   0.39520   0.01267  Uiso   1.00
C6     C     0.03020   0.19500   0.40240   0.01267  Uiso   1.00
C7     C     0.05040   0.29200   0.37540   0.01267  Uiso   1.00
C8     C     0.96740   0.37480   0.34020   0.01267  Uiso   1.00
C9     C     0.98330   0.48080   0.30650   0.01267  Uiso   1.00
C10    C     0.27550   0.75700   0.45600   0.01267  Uiso   1.00
C11    C     0.23970   0.88840   0.45900   0.01267  Uiso   1.00
C12    C     0.14930   0.97820   0.43000   0.01267  Uiso   1.00
C13    C     0.12070   0.09740   0.43650   0.01267  Uiso   1.00
C14    C     0.18730   0.11640   0.47360   0.01267  Uiso   1.00
C15    C     0.28020   0.02080   0.49900   0.01267  Uiso   1.00
C16    C     0.37960   0.03020   0.52620   0.01267  Uiso   1.00
C17    C     0.37370   0.28560   0.29980   0.01267  Uiso   1.00
C18    C     0.43760   0.16120   0.30180   0.01267  Uiso   1.00
C19    C     0.58090   0.77800   0.30400   0.01267  Uiso   1.00
C20    C     0.51750   0.90180   0.30630   0.01267  Uiso   1.00
C21    C     0.28360   0.36280   0.14790   0.01267  Uiso   1.00
C22    C     0.71850   0.69920   0.13820   0.01267  Uiso   1.00
C23    C     0.99350   0.28440   0.15310   0.01267  Uiso   1.00
C24    C     0.87880   0.27820   0.14080   0.01267  Uiso   1.00
C25    C     0.88910   0.19060   0.10480   0.01267  Uiso   1.00
C26    C     0.77480   0.19500   0.09760   0.01267  Uiso   1.00
C27    C     0.65760   0.29200   0.12460   0.01267  Uiso   1.00
C28    C     0.65780   0.37480   0.15980   0.01267  Uiso   1.00
C29    C     0.53590   0.48080   0.19350   0.01267  Uiso   1.00
C30    C     0.96750   0.75700   0.04400   0.01267  Uiso   1.00
C31    C     0.87190   0.88840   0.04100   0.01267  Uiso   1.00
C32    C     0.87250   0.97820   0.07000   0.01267  Uiso   1.00
C33    C     0.78190   0.09740   0.06350   0.01267  Uiso   1.00
C34    C     0.69630   0.11640   0.02640   0.01267  Uiso   1.00
C35    C     0.69900   0.02080   0.00100   0.01267  Uiso   1.00
C36    C     0.59020   0.03020   0.97380   0.01267  Uiso   1.00
C37    C     0.34070   0.28560   0.20020   0.01267  Uiso   1.00
C38    C     0.40120   0.16120   0.19820   0.01267  Uiso   1.00
C39    C     0.64110   0.77800   0.19600   0.01267  Uiso   1.00
C40    C     0.58070   0.90180   0.19370   0.01267  Uiso   1.00
C41    C     0.64640   0.63720   0.64790   0.01267  Uiso   1.00
C42    C     0.41770   0.30080   0.63820   0.01267  Uiso   1.00
C43    C     0.27790   0.71560   0.65310   0.01267  Uiso   1.00
C44    C     0.15700   0.72180   0.64080   0.01267  Uiso   1.00
C45    C     0.07970   0.80940   0.60480   0.01267  Uiso   1.00
C46    C     0.96980   0.80500   0.59760   0.01267  Uiso   1.00
C47    C     0.94960   0.70800   0.62460   0.01267  Uiso   1.00
C48    C     0.03260   0.62520   0.65980   0.01267  Uiso   1.00
C49    C     0.01670   0.51920   0.69350   0.01267  Uiso   1.00
C50    C     0.72450   0.24300   0.54400   0.01267  Uiso   1.00
C51    C     0.76030   0.11160   0.54100   0.01267  Uiso   1.00
C52    C     0.85070   0.02180   0.57000   0.01267  Uiso   1.00
C53    C     0.87930   0.90260   0.56350   0.01267  Uiso   1.00
C54    C     0.81270   0.88360   0.52640   0.01267  Uiso   1.00
C55    C     0.71980   0.97920   0.50100   0.01267  Uiso   1.00
C56    C     0.62040   0.96980   0.47380   0.01267  Uiso   1.00
C57    C     0.62630   0.71440   0.70020   0.01267  Uiso   1.00
C58    C     0.56240   0.83880   0.69820   0.01267  Uiso   1.00
C59    C     0.41910   0.22200   0.69600   0.01267  Uiso   1.00
C60    C     0.48250   0.09820   0.69370   0.01267  Uiso   1.00
C61    C     0.71640   0.63720   0.85210   0.01267  Uiso   1.00
C62    C     0.28150   0.30080   0.86180   0.01267  Uiso   1.00
C63    C     0.00650   0.71560   0.84690   0.01267  Uiso   1.00
C64    C     0.12120   0.72180   0.85920   0.01267  Uiso   1.00
C65    C     0.11090   0.80940   0.89520   0.01267  Uiso   1.00
C66    C     0.22520   0.80500   0.90240   0.01267  Uiso   1.00
C67    C     0.34240   0.70800   0.87540   0.01267  Uiso   1.00
C68    C     0.34220   0.62520   0.84020   0.01267  Uiso   1.00
C69    C     0.46410   0.51920   0.80650   0.01267  Uiso   1.00
C70    C     0.03250   0.24300   0.95600   0.01267  Uiso   1.00
C71    C     0.12810   0.11160   0.95900   0.01267  Uiso   1.00
C72    C     0.12750   0.02180   0.93000   0.01267  Uiso   1.00
C73    C     0.21810   0.90260   0.93650   0.01267  Uiso   1.00
C74    C     0.30370   0.88360   0.97360   0.01267  Uiso   1.00
C75    C     0.30100   0.97920   0.99900   0.01267  Uiso   1.00
C76    C     0.40980   0.96980   0.02620   0.01267  Uiso   1.00
C77    C     0.65930   0.71440   0.79980   0.01267  Uiso   1.00
C78    C     0.59880   0.83880   0.80180   0.01267  Uiso   1.00
C79    C     0.35890   0.22200   0.80400   0.01267  Uiso   1.00
C80    C     0.41930   0.09820   0.80630   0.01267  Uiso   1.00
C81    C     0.45100   0.09800   0.25000   0.01267  Uiso   1.00
C82    C     0.51650   0.96700   0.25000   0.01267  Uiso   1.00
C83    C     0.54900   0.90200   0.75000   0.01267  Uiso   1.00
C84    C     0.48350   0.03300   0.75000   0.01267  Uiso   1.00
N1     N     0.86700   0.36740   0.33150   0.01267  Uiso   1.00
N2     N     0.30070   0.91160   0.49360   0.01267  Uiso   1.00
N3     N     0.76560   0.36740   0.16850   0.01267  Uiso   1.00
N4     N     0.78770   0.91160   0.00640   0.01267  Uiso   1.00
N5     N     0.13300   0.63260   0.66850   0.01267  Uiso   1.00
N6     N     0.69930   0.08840   0.50640   0.01267  Uiso   1.00
N7     N     0.23440   0.63260   0.83150   0.01267  Uiso   1.00
N8     N     0.21230   0.08840   0.99360   0.01267  Uiso   1.00
N9     N     0.32760   0.34480   0.25000   0.01267  Uiso   1.00
N10    N     0.64190   0.71620   0.25000   0.01267  Uiso   1.00
N11    N     0.67240   0.65520   0.75000   0.01267  Uiso   1.00
N12    N     0.35810   0.28380   0.75000   0.01267  Uiso   1.00
O1     O     0.68100   0.35040   0.30160   0.01267  Uiso   1.00
O2     O     0.67420   0.22180   0.38130   0.01267  Uiso   1.00
O3     O     0.89980   0.54840   0.27530   0.01267  Uiso   1.00
O4     O     0.07640   0.49380   0.31090   0.01267  Uiso   1.00
O5     O     0.35300   0.68520   0.48990   0.01267  Uiso   1.00
O6     O     0.22750   0.72500   0.42310   0.01267  Uiso   1.00
O7     O     0.39650   0.95360   0.57510   0.01267  Uiso   1.00
O8     O     0.43360   0.10480   0.50200   0.01267  Uiso   1.00
O9     O     0.30540   0.47460   0.34220   0.01267  Uiso   1.00
O10    O     0.38180   0.30960   0.40290   0.01267  Uiso   1.00
O11    O     0.62940   0.58800   0.35250   0.01267  Uiso   1.00
O12    O     0.53570   0.75180   0.41410   0.01267  Uiso   1.00
O13    O     0.96860   0.35040   0.19840   0.01267  Uiso   1.00
O14    O     0.10400   0.22180   0.11870   0.01267  Uiso   1.00
O15    O     0.55180   0.54840   0.22470   0.01267  Uiso   1.00
O16    O     0.42980   0.49380   0.18910   0.01267  Uiso   1.00
O17    O     0.96180   0.68520   0.01010   0.01267  Uiso   1.00
O18    O     0.04750   0.72500   0.07690   0.01267  Uiso   1.00
O19    O     0.64990   0.95360   0.92490   0.01267  Uiso   1.00
O20    O     0.46160   0.10480   0.99800   0.01267  Uiso   1.00
O21    O     0.22000   0.47460   0.15780   0.01267  Uiso   1.00
O22    O     0.30860   0.30960   0.09710   0.01267  Uiso   1.00
O23    O     0.78260   0.58800   0.14750   0.01267  Uiso   1.00
O24    O     0.71250   0.75180   0.08590   0.01267  Uiso   1.00
O25    O     0.31900   0.64960   0.69840   0.01267  Uiso   1.00
O26    O     0.32580   0.77820   0.61870   0.01267  Uiso   1.00
O27    O     0.10020   0.45160   0.72470   0.01267  Uiso   1.00
O28    O     0.92360   0.50620   0.68910   0.01267  Uiso   1.00
O29    O     0.64700   0.31480   0.51010   0.01267  Uiso   1.00
O30    O     0.77250   0.27500   0.57690   0.01267  Uiso   1.00
O31    O     0.60350   0.04640   0.42490   0.01267  Uiso   1.00
O32    O     0.56640   0.89520   0.49800   0.01267  Uiso   1.00
O33    O     0.69460   0.52540   0.65780   0.01267  Uiso   1.00
O34    O     0.61820   0.69040   0.59710   0.01267  Uiso   1.00
O35    O     0.37060   0.41200   0.64750   0.01267  Uiso   1.00
O36    O     0.46430   0.24820   0.58590   0.01267  Uiso   1.00
O37    O     0.03140   0.64960   0.80160   0.01267  Uiso   1.00
O38    O     0.89600   0.77820   0.88130   0.01267  Uiso   1.00
O39    O     0.44820   0.45160   0.77530   0.01267  Uiso   1.00
O40    O     0.57020   0.50620   0.81090   0.01267  Uiso   1.00
O41    O     0.03820   0.31480   0.98990   0.01267  Uiso   1.00
O42    O     0.95250   0.27500   0.92310   0.01267  Uiso   1.00
O43    O     0.35010   0.04640   0.07510   0.01267  Uiso   1.00
O44    O     0.53840   0.89520   0.00200   0.01267  Uiso   1.00
O45    O     0.78000   0.52540   0.84220   0.01267  Uiso   1.00
O46    O     0.69140   0.69040   0.90290   0.01267  Uiso   1.00
O47    O     0.21740   0.41200   0.85250   0.01267  Uiso   1.00
O48    O     0.28750   0.24820   0.91410   0.01267  Uiso   1.00
