data_image0
_cell_length_a       12.789
_cell_length_b       12.789
_cell_length_c       12.789
_cell_angle_alpha    90
_cell_angle_beta     90
_cell_angle_gamma    90

_symmetry_space_group_name_H-M    "P 1"
_symmetry_int_tables_number       1

loop_
  _symmetry_equiv_pos_as_xyz
  'x, y, z'

loop_
  _atom_site_label
  _atom_site_occupancy
  _atom_site_fract_x
  _atom_site_fract_y
  _atom_site_fract_z
  _atom_site_thermal_displace_type
  _atom_site_B_iso_or_equiv
  _atom_site_type_symbol
  Cs1      1.0000 0.50000  0.50000  0.50000  Biso   1.000  Cs
  Cs2      1.0000 0.50000  0.00000  0.00000  Biso   1.000  Cs
  Cs3      1.0000 0.00000  0.50000  0.00000  Biso   1.000  Cs
  Cs4      1.0000 0.00000  0.00000  0.50000  Biso   1.000  Cs
  Cr1      1.0000 0.00000  0.50000  0.50000  Biso   1.000  Cr
  Cr2      1.0000 0.00000  0.00000  0.00000  Biso   1.000  Cr
  Cr3      1.0000 0.50000  0.00000  0.50000  Biso   1.000  Cr
  Cr4      1.0000 0.50000  0.50000  0.00000  Biso   1.000  Cr
  N1       1.0000 0.25080  0.50000  0.50000  Biso   1.000  N
  C1       1.0000 0.16120  0.50000  0.50000  Biso   1.000  C
  N2       1.0000 0.25080  0.00000  0.00000  Biso   1.000  N
  C2       1.0000 0.16120  0.00000  0.00000  Biso   1.000  C
  N3       1.0000 0.75080  0.50000  0.00000  Biso   1.000  N
  C3       1.0000 0.66120  0.50000  0.00000  Biso   1.000  C
  N4       1.0000 0.75080  0.00000  0.50000  Biso   1.000  N
  C4       1.0000 0.66120  0.00000  0.50000  Biso   1.000  C
  N5       1.0000 0.74920  0.50000  0.50000  Biso   1.000  N
  C5       1.0000 0.83880  0.50000  0.50000  Biso   1.000  C
  N6       1.0000 0.74920  0.00000  0.00000  Biso   1.000  N
  C6       1.0000 0.83880  0.00000  0.00000  Biso   1.000  C
  N7       1.0000 0.24920  0.50000  0.00000  Biso   1.000  N
  C7       1.0000 0.33880  0.50000  0.00000  Biso   1.000  C
  N8       1.0000 0.24920  0.00000  0.50000  Biso   1.000  N
  C8       1.0000 0.33880  0.00000  0.50000  Biso   1.000  C
  N9       1.0000 0.50000  0.25080  0.50000  Biso   1.000  N
  C9       1.0000 0.50000  0.16120  0.50000  Biso   1.000  C
  N10      1.0000 0.50000  0.75080  0.00000  Biso   1.000  N
  C10      1.0000 0.50000  0.66120  0.00000  Biso   1.000  C
  N11      1.0000 0.00000  0.25080  0.00000  Biso   1.000  N
  C11      1.0000 0.00000  0.16120  0.00000  Biso   1.000  C
  N12      1.0000 0.00000  0.75080  0.50000  Biso   1.000  N
  C12      1.0000 0.00000  0.66120  0.50000  Biso   1.000  C
  N13      1.0000 0.50000  0.74920  0.50000  Biso   1.000  N
  C13      1.0000 0.50000  0.83880  0.50000  Biso   1.000  C
  N14      1.0000 0.50000  0.24920  0.00000  Biso   1.000  N
  C14      1.0000 0.50000  0.33880  0.00000  Biso   1.000  C
  N15      1.0000 0.00000  0.74920  0.00000  Biso   1.000  N
  C15      1.0000 0.00000  0.83880  0.00000  Biso   1.000  C
  N16      1.0000 0.00000  0.24920  0.50000  Biso   1.000  N
  C16      1.0000 0.00000  0.33880  0.50000  Biso   1.000  C
  N17      1.0000 0.50000  0.50000  0.25080  Biso   1.000  N
  C17      1.0000 0.50000  0.50000  0.16120  Biso   1.000  C
  N18      1.0000 0.50000  0.00000  0.75080  Biso   1.000  N
  C18      1.0000 0.50000  0.00000  0.66120  Biso   1.000  C
  N19      1.0000 0.00000  0.50000  0.75080  Biso   1.000  N
  C19      1.0000 0.00000  0.50000  0.66120  Biso   1.000  C
  N20      1.0000 0.00000  0.00000  0.25080  Biso   1.000  N
  C20      1.0000 0.00000  0.00000  0.16120  Biso   1.000  C
  N21      1.0000 0.50000  0.50000  0.74920  Biso   1.000  N
  C21      1.0000 0.50000  0.50000  0.83880  Biso   1.000  C
  N22      1.0000 0.50000  0.00000  0.24920  Biso   1.000  N
  C22      1.0000 0.50000  0.00000  0.33880  Biso   1.000  C
  N23      1.0000 0.00000  0.50000  0.24920  Biso   1.000  N
  C23      1.0000 0.00000  0.50000  0.33880  Biso   1.000  C
  N24      1.0000 0.00000  0.00000  0.74920  Biso   1.000  N
  C24      1.0000 0.00000  0.00000  0.83880  Biso   1.000  C
