data_image0
_cell_length_a       7.289
_cell_length_b       10.525
_cell_length_c       5.987
_cell_angle_alpha    92.16
_cell_angle_beta     102.74
_cell_angle_gamma    92.84

_symmetry_space_group_name_H-M    "P 1"
_symmetry_int_tables_number       1

loop_
  _symmetry_equiv_pos_as_xyz
  'x, y, z'

loop_
  _atom_site_label
  _atom_site_occupancy
  _atom_site_fract_x
  _atom_site_fract_y
  _atom_site_fract_z
  _atom_site_thermal_displace_type
  _atom_site_B_iso_or_equiv
  _atom_site_type_symbol
  Cs1      1.0000 0.53640  0.23680  0.25110  Biso   1.000  Cs
  C1       1.0000 0.10800  0.50500  0.01600  Biso   1.000  C
  C2       1.0000 0.20500  0.09600  0.64300  Biso   1.000  C
  C3       1.0000 0.07600  0.17800  0.46900  Biso   1.000  C
  Mn1      1.0000 0.98960  0.23180  0.92620  Biso   1.000  Mn
  O1       1.0000 0.18600  0.40200  0.00400  Biso   1.000  O
  O2       1.0000 0.19000  0.61400  0.04600  Biso   1.000  O
  O3       1.0000 0.19800  0.11000  0.84600  Biso   1.000  O
  O4       1.0000 0.30500  0.02000  0.56100  Biso   1.000  O
  O5       1.0000 0.09100  0.17400  0.26700  Biso   1.000  O
  O6       1.0000 0.96400  0.24200  0.55300  Biso   1.000  O
  O7       1.0000 0.75300  0.09100  0.87600  Biso   1.000  O
  Cs2      1.0000 0.46360  0.76320  0.74890  Biso   1.000  Cs
  C4       1.0000 0.89200  0.49500  0.98400  Biso   1.000  C
  C5       1.0000 0.79500  0.90400  0.35700  Biso   1.000  C
  C6       1.0000 0.92400  0.82200  0.53100  Biso   1.000  C
  Mn2      1.0000 0.01040  0.76820  0.07380  Biso   1.000  Mn
  O8       1.0000 0.81400  0.59800  0.99600  Biso   1.000  O
  O9       1.0000 0.81000  0.38600  0.95400  Biso   1.000  O
  O10      1.0000 0.80200  0.89000  0.15400  Biso   1.000  O
  O11      1.0000 0.69500  0.98000  0.43900  Biso   1.000  O
  O12      1.0000 0.90900  0.82600  0.73300  Biso   1.000  O
  O13      1.0000 0.03600  0.75800  0.44700  Biso   1.000  O
  O14      1.0000 0.24700  0.90900  0.12400  Biso   1.000  O
