data_image0
_cell_length_a       23.286
_cell_length_b       17.2577
_cell_length_c       18.2221
_cell_angle_alpha    90
_cell_angle_beta     126.661
_cell_angle_gamma    90

_symmetry_space_group_name_H-M    "P 1"
_symmetry_int_tables_number       1

loop_
  _symmetry_equiv_pos_as_xyz
  'x, y, z'

loop_
  _atom_site_label
  _atom_site_occupancy
  _atom_site_fract_x
  _atom_site_fract_y
  _atom_site_fract_z
  _atom_site_thermal_displace_type
  _atom_site_B_iso_or_equiv
  _atom_site_type_symbol
  Cd1      1.0000 0.22509  0.14002  0.21835  Biso   1.000  Cd
  Cd2      1.0000 0.28662  0.38197  0.27787  Biso   1.000  Cd
  N1       1.0000 0.10170  0.17640  0.14100  Biso   1.000  N
  N2       1.0000 0.03930  0.13900  0.08670  Biso   1.000  N
  N3       1.0000 0.30720  0.39800  0.16320  Biso   1.000  N
  N4       1.0000 0.31310  0.35580  0.10550  Biso   1.000  N
  O1       1.0000 0.15050  0.37230  0.13500  Biso   1.000  O
  O2       1.0000 0.21670  0.27330  0.22230  Biso   1.000  O
  O3       1.0000 0.28290  0.51110  0.24510  Biso   1.000  O
  O4       1.0000 0.27150  0.60120  0.15100  Biso   1.000  O
  O5       1.0000 0.27980  0.41960  0.89410  Biso   1.000  O
  O6       1.0000 0.30960  0.30160  0.95000  Biso   1.000  O
  O7       1.0000 0.90370  0.09030  0.91940  Biso   1.000  O
  O8       1.0000 0.87290  0.21120  0.88460  Biso   1.000  O
  C1       1.0000 0.00810  0.00210  0.21840  Biso   1.000  C
  H1       1.0000 0.01480  0.95480  0.20000  Biso   1.000  H
  C2       1.0000 0.00710  0.13400  0.21660  Biso   1.000  C
  H2       1.0000 0.01150  0.18080  0.19500  Biso   1.000  H
  C3       1.0000 0.01410  0.06580  0.18480  Biso   1.000  C
  C4       1.0000 0.03000  0.06260  0.11510  Biso   1.000  C
  H3       1.0000 0.07340  0.03260  0.14080  Biso   1.000  H
  H4       1.0000 0.99130  0.03540  0.06120  Biso   1.000  H
  C5       1.0000 0.98820  0.18840  0.01600  Biso   1.000  C
  C6       1.0000 0.02270  0.25800  0.03110  Biso   1.000  C
  H5       1.0000 0.00330  0.30280  0.99620  Biso   1.000  H
  C7       1.0000 0.09230  0.24760  0.10920  Biso   1.000  C
  C8       1.0000 0.28060  0.53110  0.17600  Biso   1.000  C
  C9       1.0000 0.15670  0.30270  0.15780  Biso   1.000  C
  C10      1.0000 0.29680  0.36930  0.95480  Biso   1.000  C
  C11      1.0000 0.29720  0.39930  0.03180  Biso   1.000  C
  C12      1.0000 0.28390  0.47250  0.04640  Biso   1.000  C
  H6       1.0000 0.27370  0.51570  0.00980  Biso   1.000  H
  C13      1.0000 0.28860  0.47070  0.12710  Biso   1.000  C
  C14      1.0000 0.91740  0.15890  0.93670  Biso   1.000  C
  C15      1.0000 0.34210  0.27570  0.13190  Biso   1.000  C
  H7       1.0000 0.32480  0.24570  0.07730  Biso   1.000  H
  H8       1.0000 0.32540  0.25110  0.16370  Biso   1.000  H
  C16      1.0000 0.42430  0.27660  0.19400  Biso   1.000  C
  C17      1.0000 0.46160  0.27450  0.15540  Biso   1.000  C
  H9       1.0000 0.43680  0.27270  0.09230  Biso   1.000  H
  C18      1.0000 0.46410  0.27500  0.28730  Biso   1.000  C
  H10      1.0000 0.44010  0.27420  0.31380  Biso   1.000  H
  Cd3      1.0000 0.72509  0.64002  0.21835  Biso   1.000  Cd
  Cd4      1.0000 0.78662  0.88197  0.27787  Biso   1.000  Cd
  N5       1.0000 0.60170  0.67640  0.14100  Biso   1.000  N
  N6       1.0000 0.53930  0.63900  0.08670  Biso   1.000  N
  N7       1.0000 0.80720  0.89800  0.16320  Biso   1.000  N
  N8       1.0000 0.81310  0.85580  0.10550  Biso   1.000  N
  O9       1.0000 0.65050  0.87230  0.13500  Biso   1.000  O
  O10      1.0000 0.71670  0.77330  0.22230  Biso   1.000  O
  O11      1.0000 0.78290  0.01110  0.24510  Biso   1.000  O
  O12      1.0000 0.77150  0.10120  0.15100  Biso   1.000  O
  O13      1.0000 0.77980  0.91960  0.89410  Biso   1.000  O
  O14      1.0000 0.80960  0.80160  0.95000  Biso   1.000  O
  O15      1.0000 0.40370  0.59030  0.91940  Biso   1.000  O
  O16      1.0000 0.37290  0.71120  0.88460  Biso   1.000  O
  C19      1.0000 0.50810  0.50210  0.21840  Biso   1.000  C
  H11      1.0000 0.51480  0.45480  0.20000  Biso   1.000  H
  C20      1.0000 0.50710  0.63400  0.21660  Biso   1.000  C
  H12      1.0000 0.51150  0.68080  0.19500  Biso   1.000  H
  C21      1.0000 0.51410  0.56580  0.18480  Biso   1.000  C
  C22      1.0000 0.53000  0.56260  0.11510  Biso   1.000  C
  H13      1.0000 0.57340  0.53260  0.14080  Biso   1.000  H
  H14      1.0000 0.49130  0.53540  0.06120  Biso   1.000  H
  C23      1.0000 0.48820  0.68840  0.01600  Biso   1.000  C
  C24      1.0000 0.52270  0.75800  0.03110  Biso   1.000  C
  H15      1.0000 0.50330  0.80280  0.99620  Biso   1.000  H
  C25      1.0000 0.59230  0.74760  0.10920  Biso   1.000  C
  C26      1.0000 0.78060  0.03110  0.17600  Biso   1.000  C
  C27      1.0000 0.65670  0.80270  0.15780  Biso   1.000  C
  C28      1.0000 0.79680  0.86930  0.95480  Biso   1.000  C
  C29      1.0000 0.79720  0.89930  0.03180  Biso   1.000  C
  C30      1.0000 0.78390  0.97250  0.04640  Biso   1.000  C
  H16      1.0000 0.77370  0.01570  0.00980  Biso   1.000  H
  C31      1.0000 0.78860  0.97070  0.12710  Biso   1.000  C
  C32      1.0000 0.41740  0.65890  0.93670  Biso   1.000  C
  C33      1.0000 0.84210  0.77570  0.13190  Biso   1.000  C
  H17      1.0000 0.82480  0.74570  0.07730  Biso   1.000  H
  H18      1.0000 0.82540  0.75110  0.16370  Biso   1.000  H
  C34      1.0000 0.92430  0.77660  0.19400  Biso   1.000  C
  C35      1.0000 0.96160  0.77450  0.15540  Biso   1.000  C
  H19      1.0000 0.93680  0.77270  0.09230  Biso   1.000  H
  C36      1.0000 0.96410  0.77500  0.28730  Biso   1.000  C
  H20      1.0000 0.94010  0.77420  0.31380  Biso   1.000  H
  Cd5      1.0000 0.77491  0.14002  0.28165  Biso   1.000  Cd
  Cd6      1.0000 0.71338  0.38197  0.22213  Biso   1.000  Cd
  N9       1.0000 0.89830  0.17640  0.35900  Biso   1.000  N
  N10      1.0000 0.96070  0.13900  0.41330  Biso   1.000  N
  N11      1.0000 0.69280  0.39800  0.33680  Biso   1.000  N
  N12      1.0000 0.68690  0.35580  0.39450  Biso   1.000  N
  O17      1.0000 0.84950  0.37230  0.36500  Biso   1.000  O
  O18      1.0000 0.78330  0.27330  0.27770  Biso   1.000  O
  O19      1.0000 0.71710  0.51110  0.25490  Biso   1.000  O
  O20      1.0000 0.72850  0.60120  0.34900  Biso   1.000  O
  O21      1.0000 0.72020  0.41960  0.60590  Biso   1.000  O
  O22      1.0000 0.69040  0.30160  0.55000  Biso   1.000  O
  O23      1.0000 0.09630  0.09030  0.58060  Biso   1.000  O
  O24      1.0000 0.12710  0.21120  0.61540  Biso   1.000  O
  C37      1.0000 0.99190  0.00210  0.28160  Biso   1.000  C
  H21      1.0000 0.98520  0.95480  0.30000  Biso   1.000  H
  C38      1.0000 0.99290  0.13400  0.28340  Biso   1.000  C
  H22      1.0000 0.98850  0.18080  0.30500  Biso   1.000  H
  C39      1.0000 0.98590  0.06580  0.31520  Biso   1.000  C
  C40      1.0000 0.97000  0.06260  0.38490  Biso   1.000  C
  H23      1.0000 0.92660  0.03260  0.35920  Biso   1.000  H
  H24      1.0000 0.00870  0.03540  0.43880  Biso   1.000  H
  C41      1.0000 0.01180  0.18840  0.48400  Biso   1.000  C
  C42      1.0000 0.97730  0.25800  0.46890  Biso   1.000  C
  H25      1.0000 0.99670  0.30280  0.50380  Biso   1.000  H
  C43      1.0000 0.90770  0.24760  0.39080  Biso   1.000  C
  C44      1.0000 0.71940  0.53110  0.32400  Biso   1.000  C
  C45      1.0000 0.84330  0.30270  0.34220  Biso   1.000  C
  C46      1.0000 0.70320  0.36930  0.54520  Biso   1.000  C
  C47      1.0000 0.70280  0.39930  0.46820  Biso   1.000  C
  C48      1.0000 0.71610  0.47250  0.45360  Biso   1.000  C
  H26      1.0000 0.72630  0.51570  0.49020  Biso   1.000  H
  C49      1.0000 0.71140  0.47070  0.37290  Biso   1.000  C
  C50      1.0000 0.08260  0.15890  0.56330  Biso   1.000  C
  C51      1.0000 0.65790  0.27570  0.36810  Biso   1.000  C
  H27      1.0000 0.67520  0.24570  0.42270  Biso   1.000  H
  H28      1.0000 0.67460  0.25110  0.33630  Biso   1.000  H
  C52      1.0000 0.57570  0.27660  0.30600  Biso   1.000  C
  C53      1.0000 0.53840  0.27450  0.34460  Biso   1.000  C
  H29      1.0000 0.56320  0.27270  0.40770  Biso   1.000  H
  C54      1.0000 0.53590  0.27500  0.21270  Biso   1.000  C
  H30      1.0000 0.55990  0.27420  0.18620  Biso   1.000  H
  Cd7      1.0000 0.27491  0.64002  0.28165  Biso   1.000  Cd
  Cd8      1.0000 0.21338  0.88197  0.22213  Biso   1.000  Cd
  N13      1.0000 0.39830  0.67640  0.35900  Biso   1.000  N
  N14      1.0000 0.46070  0.63900  0.41330  Biso   1.000  N
  N15      1.0000 0.19280  0.89800  0.33680  Biso   1.000  N
  N16      1.0000 0.18690  0.85580  0.39450  Biso   1.000  N
  O25      1.0000 0.34950  0.87230  0.36500  Biso   1.000  O
  O26      1.0000 0.28330  0.77330  0.27770  Biso   1.000  O
  O27      1.0000 0.21710  0.01110  0.25490  Biso   1.000  O
  O28      1.0000 0.22850  0.10120  0.34900  Biso   1.000  O
  O29      1.0000 0.22020  0.91960  0.60590  Biso   1.000  O
  O30      1.0000 0.19040  0.80160  0.55000  Biso   1.000  O
  O31      1.0000 0.59630  0.59030  0.58060  Biso   1.000  O
  O32      1.0000 0.62710  0.71120  0.61540  Biso   1.000  O
  C55      1.0000 0.49190  0.50210  0.28160  Biso   1.000  C
  H31      1.0000 0.48520  0.45480  0.30000  Biso   1.000  H
  C56      1.0000 0.49290  0.63400  0.28340  Biso   1.000  C
  H32      1.0000 0.48850  0.68080  0.30500  Biso   1.000  H
  C57      1.0000 0.48590  0.56580  0.31520  Biso   1.000  C
  C58      1.0000 0.47000  0.56260  0.38490  Biso   1.000  C
  H33      1.0000 0.42660  0.53260  0.35920  Biso   1.000  H
  H34      1.0000 0.50870  0.53540  0.43880  Biso   1.000  H
  C59      1.0000 0.51180  0.68840  0.48400  Biso   1.000  C
  C60      1.0000 0.47730  0.75800  0.46890  Biso   1.000  C
  H35      1.0000 0.49670  0.80280  0.50380  Biso   1.000  H
  C61      1.0000 0.40770  0.74760  0.39080  Biso   1.000  C
  C62      1.0000 0.21940  0.03110  0.32400  Biso   1.000  C
  C63      1.0000 0.34330  0.80270  0.34220  Biso   1.000  C
  C64      1.0000 0.20320  0.86930  0.54520  Biso   1.000  C
  C65      1.0000 0.20280  0.89930  0.46820  Biso   1.000  C
  C66      1.0000 0.21610  0.97250  0.45360  Biso   1.000  C
  H36      1.0000 0.22630  0.01570  0.49020  Biso   1.000  H
  C67      1.0000 0.21140  0.97070  0.37290  Biso   1.000  C
  C68      1.0000 0.58260  0.65890  0.56330  Biso   1.000  C
  C69      1.0000 0.15790  0.77570  0.36810  Biso   1.000  C
  H37      1.0000 0.17520  0.74570  0.42270  Biso   1.000  H
  H38      1.0000 0.17460  0.75110  0.33630  Biso   1.000  H
  C70      1.0000 0.07570  0.77660  0.30600  Biso   1.000  C
  C71      1.0000 0.03840  0.77450  0.34460  Biso   1.000  C
  H39      1.0000 0.06320  0.77270  0.40770  Biso   1.000  H
  C72      1.0000 0.03590  0.77500  0.21270  Biso   1.000  C
  H40      1.0000 0.05990  0.77420  0.18620  Biso   1.000  H
  Cd9      1.0000 0.77491  0.85998  0.78165  Biso   1.000  Cd
  Cd10     1.0000 0.71338  0.61803  0.72213  Biso   1.000  Cd
  N17      1.0000 0.89830  0.82360  0.85900  Biso   1.000  N
  N18      1.0000 0.96070  0.86100  0.91330  Biso   1.000  N
  N19      1.0000 0.69280  0.60200  0.83680  Biso   1.000  N
  N20      1.0000 0.68690  0.64420  0.89450  Biso   1.000  N
  O33      1.0000 0.84950  0.62770  0.86500  Biso   1.000  O
  O34      1.0000 0.78330  0.72670  0.77770  Biso   1.000  O
  O35      1.0000 0.71710  0.48890  0.75490  Biso   1.000  O
  O36      1.0000 0.72850  0.39880  0.84900  Biso   1.000  O
  O37      1.0000 0.72020  0.58040  0.10590  Biso   1.000  O
  O38      1.0000 0.69040  0.69840  0.05000  Biso   1.000  O
  O39      1.0000 0.09630  0.90970  0.08060  Biso   1.000  O
  O40      1.0000 0.12710  0.78880  0.11540  Biso   1.000  O
  C73      1.0000 0.99190  0.99790  0.78160  Biso   1.000  C
  H41      1.0000 0.98520  0.04520  0.80000  Biso   1.000  H
  C74      1.0000 0.99290  0.86600  0.78340  Biso   1.000  C
  H42      1.0000 0.98850  0.81920  0.80500  Biso   1.000  H
  C75      1.0000 0.98590  0.93420  0.81520  Biso   1.000  C
  C76      1.0000 0.97000  0.93740  0.88490  Biso   1.000  C
  H43      1.0000 0.92660  0.96740  0.85920  Biso   1.000  H
  H44      1.0000 0.00870  0.96460  0.93880  Biso   1.000  H
  C77      1.0000 0.01180  0.81160  0.98400  Biso   1.000  C
  C78      1.0000 0.97730  0.74200  0.96890  Biso   1.000  C
  H45      1.0000 0.99670  0.69720  0.00380  Biso   1.000  H
  C79      1.0000 0.90770  0.75240  0.89080  Biso   1.000  C
  C80      1.0000 0.71940  0.46890  0.82400  Biso   1.000  C
  C81      1.0000 0.84330  0.69730  0.84220  Biso   1.000  C
  C82      1.0000 0.70320  0.63070  0.04520  Biso   1.000  C
  C83      1.0000 0.70280  0.60070  0.96820  Biso   1.000  C
  C84      1.0000 0.71610  0.52750  0.95360  Biso   1.000  C
  H46      1.0000 0.72630  0.48430  0.99020  Biso   1.000  H
  C85      1.0000 0.71140  0.52930  0.87290  Biso   1.000  C
  C86      1.0000 0.08260  0.84110  0.06330  Biso   1.000  C
  C87      1.0000 0.65790  0.72430  0.86810  Biso   1.000  C
  H47      1.0000 0.67520  0.75430  0.92270  Biso   1.000  H
  H48      1.0000 0.67460  0.74890  0.83630  Biso   1.000  H
  C88      1.0000 0.57570  0.72340  0.80600  Biso   1.000  C
  C89      1.0000 0.53840  0.72550  0.84460  Biso   1.000  C
  H49      1.0000 0.56320  0.72730  0.90770  Biso   1.000  H
  C90      1.0000 0.53590  0.72500  0.71270  Biso   1.000  C
  H50      1.0000 0.55990  0.72580  0.68620  Biso   1.000  H
  Cd11     1.0000 0.27491  0.35998  0.78165  Biso   1.000  Cd
  Cd12     1.0000 0.21338  0.11803  0.72213  Biso   1.000  Cd
  N21      1.0000 0.39830  0.32360  0.85900  Biso   1.000  N
  N22      1.0000 0.46070  0.36100  0.91330  Biso   1.000  N
  N23      1.0000 0.19280  0.10200  0.83680  Biso   1.000  N
  N24      1.0000 0.18690  0.14420  0.89450  Biso   1.000  N
  O41      1.0000 0.34950  0.12770  0.86500  Biso   1.000  O
  O42      1.0000 0.28330  0.22670  0.77770  Biso   1.000  O
  O43      1.0000 0.21710  0.98890  0.75490  Biso   1.000  O
  O44      1.0000 0.22850  0.89880  0.84900  Biso   1.000  O
  O45      1.0000 0.22020  0.08040  0.10590  Biso   1.000  O
  O46      1.0000 0.19040  0.19840  0.05000  Biso   1.000  O
  O47      1.0000 0.59630  0.40970  0.08060  Biso   1.000  O
  O48      1.0000 0.62710  0.28880  0.11540  Biso   1.000  O
  C91      1.0000 0.49190  0.49790  0.78160  Biso   1.000  C
  H51      1.0000 0.48520  0.54520  0.80000  Biso   1.000  H
  C92      1.0000 0.49290  0.36600  0.78340  Biso   1.000  C
  H52      1.0000 0.48850  0.31920  0.80500  Biso   1.000  H
  C93      1.0000 0.48590  0.43420  0.81520  Biso   1.000  C
  C94      1.0000 0.47000  0.43740  0.88490  Biso   1.000  C
  H53      1.0000 0.42660  0.46740  0.85920  Biso   1.000  H
  H54      1.0000 0.50870  0.46460  0.93880  Biso   1.000  H
  C95      1.0000 0.51180  0.31160  0.98400  Biso   1.000  C
  C96      1.0000 0.47730  0.24200  0.96890  Biso   1.000  C
  H55      1.0000 0.49670  0.19720  0.00380  Biso   1.000  H
  C97      1.0000 0.40770  0.25240  0.89080  Biso   1.000  C
  C98      1.0000 0.21940  0.96890  0.82400  Biso   1.000  C
  C99      1.0000 0.34330  0.19730  0.84220  Biso   1.000  C
  C100     1.0000 0.20320  0.13070  0.04520  Biso   1.000  C
  C101     1.0000 0.20280  0.10070  0.96820  Biso   1.000  C
  C102     1.0000 0.21610  0.02750  0.95360  Biso   1.000  C
  H56      1.0000 0.22630  0.98430  0.99020  Biso   1.000  H
  C103     1.0000 0.21140  0.02930  0.87290  Biso   1.000  C
  C104     1.0000 0.58260  0.34110  0.06330  Biso   1.000  C
  C105     1.0000 0.15790  0.22430  0.86810  Biso   1.000  C
  H57      1.0000 0.17520  0.25430  0.92270  Biso   1.000  H
  H58      1.0000 0.17460  0.24890  0.83630  Biso   1.000  H
  C106     1.0000 0.07570  0.22340  0.80600  Biso   1.000  C
  C107     1.0000 0.03840  0.22550  0.84460  Biso   1.000  C
  H59      1.0000 0.06320  0.22730  0.90770  Biso   1.000  H
  C108     1.0000 0.03590  0.22500  0.71270  Biso   1.000  C
  H60      1.0000 0.05990  0.22580  0.68620  Biso   1.000  H
  Cd13     1.0000 0.22509  0.85998  0.71835  Biso   1.000  Cd
  Cd14     1.0000 0.28662  0.61803  0.77787  Biso   1.000  Cd
  N25      1.0000 0.10170  0.82360  0.64100  Biso   1.000  N
  N26      1.0000 0.03930  0.86100  0.58670  Biso   1.000  N
  N27      1.0000 0.30720  0.60200  0.66320  Biso   1.000  N
  N28      1.0000 0.31310  0.64420  0.60550  Biso   1.000  N
  O49      1.0000 0.15050  0.62770  0.63500  Biso   1.000  O
  O50      1.0000 0.21670  0.72670  0.72230  Biso   1.000  O
  O51      1.0000 0.28290  0.48890  0.74510  Biso   1.000  O
  O52      1.0000 0.27150  0.39880  0.65100  Biso   1.000  O
  O53      1.0000 0.27980  0.58040  0.39410  Biso   1.000  O
  O54      1.0000 0.30960  0.69840  0.45000  Biso   1.000  O
  O55      1.0000 0.90370  0.90970  0.41940  Biso   1.000  O
  O56      1.0000 0.87290  0.78880  0.38460  Biso   1.000  O
  C109     1.0000 0.00810  0.99790  0.71840  Biso   1.000  C
  H61      1.0000 0.01480  0.04520  0.70000  Biso   1.000  H
  C110     1.0000 0.00710  0.86600  0.71660  Biso   1.000  C
  H62      1.0000 0.01150  0.81920  0.69500  Biso   1.000  H
  C111     1.0000 0.01410  0.93420  0.68480  Biso   1.000  C
  C112     1.0000 0.03000  0.93740  0.61510  Biso   1.000  C
  H63      1.0000 0.07340  0.96740  0.64080  Biso   1.000  H
  H64      1.0000 0.99130  0.96460  0.56120  Biso   1.000  H
  C113     1.0000 0.98820  0.81160  0.51600  Biso   1.000  C
  C114     1.0000 0.02270  0.74200  0.53110  Biso   1.000  C
  H65      1.0000 0.00330  0.69720  0.49620  Biso   1.000  H
  C115     1.0000 0.09230  0.75240  0.60920  Biso   1.000  C
  C116     1.0000 0.28060  0.46890  0.67600  Biso   1.000  C
  C117     1.0000 0.15670  0.69730  0.65780  Biso   1.000  C
  C118     1.0000 0.29680  0.63070  0.45480  Biso   1.000  C
  C119     1.0000 0.29720  0.60070  0.53180  Biso   1.000  C
  C120     1.0000 0.28390  0.52750  0.54640  Biso   1.000  C
  H66      1.0000 0.27370  0.48430  0.50980  Biso   1.000  H
  C121     1.0000 0.28860  0.52930  0.62710  Biso   1.000  C
  C122     1.0000 0.91740  0.84110  0.43670  Biso   1.000  C
  C123     1.0000 0.34210  0.72430  0.63190  Biso   1.000  C
  H67      1.0000 0.32480  0.75430  0.57730  Biso   1.000  H
  H68      1.0000 0.32540  0.74890  0.66370  Biso   1.000  H
  C124     1.0000 0.42430  0.72340  0.69400  Biso   1.000  C
  C125     1.0000 0.46160  0.72550  0.65540  Biso   1.000  C
  H69      1.0000 0.43680  0.72730  0.59230  Biso   1.000  H
  C126     1.0000 0.46410  0.72500  0.78730  Biso   1.000  C
  H70      1.0000 0.44010  0.72580  0.81380  Biso   1.000  H
  Cd15     1.0000 0.72509  0.35998  0.71835  Biso   1.000  Cd
  Cd16     1.0000 0.78662  0.11803  0.77787  Biso   1.000  Cd
  N29      1.0000 0.60170  0.32360  0.64100  Biso   1.000  N
  N30      1.0000 0.53930  0.36100  0.58670  Biso   1.000  N
  N31      1.0000 0.80720  0.10200  0.66320  Biso   1.000  N
  N32      1.0000 0.81310  0.14420  0.60550  Biso   1.000  N
  O57      1.0000 0.65050  0.12770  0.63500  Biso   1.000  O
  O58      1.0000 0.71670  0.22670  0.72230  Biso   1.000  O
  O59      1.0000 0.78290  0.98890  0.74510  Biso   1.000  O
  O60      1.0000 0.77150  0.89880  0.65100  Biso   1.000  O
  O61      1.0000 0.77980  0.08040  0.39410  Biso   1.000  O
  O62      1.0000 0.80960  0.19840  0.45000  Biso   1.000  O
  O63      1.0000 0.40370  0.40970  0.41940  Biso   1.000  O
  O64      1.0000 0.37290  0.28880  0.38460  Biso   1.000  O
  C127     1.0000 0.50810  0.49790  0.71840  Biso   1.000  C
  H71      1.0000 0.51480  0.54520  0.70000  Biso   1.000  H
  C128     1.0000 0.50710  0.36600  0.71660  Biso   1.000  C
  H72      1.0000 0.51150  0.31920  0.69500  Biso   1.000  H
  C129     1.0000 0.51410  0.43420  0.68480  Biso   1.000  C
  C130     1.0000 0.53000  0.43740  0.61510  Biso   1.000  C
  H73      1.0000 0.57340  0.46740  0.64080  Biso   1.000  H
  H74      1.0000 0.49130  0.46460  0.56120  Biso   1.000  H
  C131     1.0000 0.48820  0.31160  0.51600  Biso   1.000  C
  C132     1.0000 0.52270  0.24200  0.53110  Biso   1.000  C
  H75      1.0000 0.50330  0.19720  0.49620  Biso   1.000  H
  C133     1.0000 0.59230  0.25240  0.60920  Biso   1.000  C
  C134     1.0000 0.78060  0.96890  0.67600  Biso   1.000  C
  C135     1.0000 0.65670  0.19730  0.65780  Biso   1.000  C
  C136     1.0000 0.79680  0.13070  0.45480  Biso   1.000  C
  C137     1.0000 0.79720  0.10070  0.53180  Biso   1.000  C
  C138     1.0000 0.78390  0.02750  0.54640  Biso   1.000  C
  H76      1.0000 0.77370  0.98430  0.50980  Biso   1.000  H
  C139     1.0000 0.78860  0.02930  0.62710  Biso   1.000  C
  C140     1.0000 0.41740  0.34110  0.43670  Biso   1.000  C
  C141     1.0000 0.84210  0.22430  0.63190  Biso   1.000  C
  H77      1.0000 0.82480  0.25430  0.57730  Biso   1.000  H
  H78      1.0000 0.82540  0.24890  0.66370  Biso   1.000  H
  C142     1.0000 0.92430  0.22340  0.69400  Biso   1.000  C
  C143     1.0000 0.96160  0.22550  0.65540  Biso   1.000  C
  H79      1.0000 0.93680  0.22730  0.59230  Biso   1.000  H
  C144     1.0000 0.96410  0.22500  0.78730  Biso   1.000  C
  H80      1.0000 0.94010  0.22580  0.81380  Biso   1.000  H
