data_image0
_cell_length_a       12.4882
_cell_length_b       13.1951
_cell_length_c       19.756
_cell_angle_alpha    78.959
_cell_angle_beta     84.553
_cell_angle_gamma    63.869

_symmetry_space_group_name_H-M    "P 1"
_symmetry_int_tables_number       1

loop_
  _symmetry_equiv_pos_as_xyz
  'x, y, z'

loop_
  _atom_site_label
  _atom_site_occupancy
  _atom_site_fract_x
  _atom_site_fract_y
  _atom_site_fract_z
  _atom_site_thermal_displace_type
  _atom_site_B_iso_or_equiv
  _atom_site_type_symbol
  Cu1      1.0000 0.58012  0.56020  0.20913  Biso   1.000  Cu
  Cu2      1.0000 0.25565  0.77357  0.24882  Biso   1.000  Cu
  Cu3      1.0000 0.93567  0.99148  0.29175  Biso   1.000  Cu
  N1       1.0000 0.43920  0.55180  0.17540  Biso   1.000  N
  N2       1.0000 0.32130  0.62750  0.18110  Biso   1.000  N
  N3       1.0000 0.33290  0.49390  0.12560  Biso   1.000  N
  N4       1.0000 0.67390  0.50180  0.12460  Biso   1.000  N
  N5       1.0000 0.77580  0.39940  0.12990  Biso   1.000  N
  N6       1.0000 0.23730  0.50630  0.97580  Biso   1.000  N
  N7       1.0000 0.37340  0.82870  0.19880  Biso   1.000  N
  N8       1.0000 0.48320  0.76060  0.17110  Biso   1.000  N
  N9       1.0000 0.45650  0.94030  0.15070  Biso   1.000  N
  N10      1.0000 0.79510  0.99560  0.25000  Biso   1.000  N
  N11      1.0000 0.80940  0.89690  0.22740  Biso   1.000  N
  N12      1.0000 0.62350  0.02530  0.21530  Biso   1.000  N
  N13      1.0000 0.49880  0.59670  0.30340  Biso   1.000  N
  N14      1.0000 0.38140  0.66780  0.31710  Biso   1.000  N
  N15      1.0000 0.47220  0.59220  0.41480  Biso   1.000  N
  N16      1.0000 0.13220  0.89130  0.18360  Biso   1.000  N
  N17      1.0000 0.02030  0.97190  0.19740  Biso   1.000  N
  N18      1.0000 0.05140  0.99400  0.08590  Biso   1.000  N
  N19      1.0000 0.13450  0.72170  0.30160  Biso   1.000  N
  N20      1.0000 0.01980  0.79670  0.31790  Biso   1.000  N
  N21      1.0000 0.03840  0.62100  0.34890  Biso   1.000  N
  N22      1.0000 0.72880  0.55910  0.23930  Biso   1.000  N
  N23      1.0000 0.76750  0.64020  0.20580  Biso   1.000  N
  N24      1.0000 0.90140  0.51710  0.28220  Biso   1.000  N
  N25      1.0000 0.18980  0.92570  0.31900  Biso   1.000  N
  N26      1.0000 0.07270  0.99360  0.33390  Biso   1.000  N
  N27      1.0000 0.18430  0.04550  0.38320  Biso   1.000  N
  N28      1.0000 0.83670  0.02820  0.37900  Biso   1.000  N
  N29      1.0000 0.73300  0.12850  0.37880  Biso   1.000  N
  N30      1.0000 0.26500  0.99610  0.52910  Biso   1.000  N
  C1       1.0000 0.29930  0.41560  0.09830  Biso   1.000  C
  C2       1.0000 0.19970  0.47240  0.04640  Biso   1.000  C
  C3       1.0000 0.25980  0.59160  0.15060  Biso   1.000  C
  C4       1.0000 0.44370  0.47200  0.14260  Biso   1.000  C
  C5       1.0000 0.82780  0.39850  0.06970  Biso   1.000  C
  C6       1.0000 0.66780  0.55650  0.06090  Biso   1.000  C
  C7       1.0000 0.47480  0.04460  0.13190  Biso   1.000  C
  C8       1.0000 0.49630  0.08230  0.19500  Biso   1.000  C
  C9       1.0000 0.35990  0.93500  0.18510  Biso   1.000  C
  C10      1.0000 0.52910  0.83110  0.14240  Biso   1.000  C
  C11      1.0000 0.70470  0.91670  0.20820  Biso   1.000  C
  C12      1.0000 0.68430  0.06830  0.24230  Biso   1.000  C
  C13      1.0000 0.49570  0.55990  0.48850  Biso   1.000  C
  C14      1.0000 0.36800  0.66330  0.38350  Biso   1.000  C
  C15      1.0000 0.55130  0.55400  0.36310  Biso   1.000  C
  C16      1.0000 0.03220  0.03070  0.01260  Biso   1.000  C
  C17      1.0000 0.97250  0.03170  0.13810  Biso   1.000  C
  C18      1.0000 0.14850  0.90620  0.11680  Biso   1.000  C
  C19      1.0000 0.01020  0.52470  0.37920  Biso   1.000  C
  C20      1.0000 0.00840  0.45800  0.32460  Biso   1.000  C
  C21      1.0000 0.96530  0.73370  0.34600  Biso   1.000  C
  C22      1.0000 0.14260  0.61800  0.32100  Biso   1.000  C
  C23      1.0000 0.87070  0.61200  0.23220  Biso   1.000  C
  C24      1.0000 0.81160  0.48560  0.28320  Biso   1.000  C
  C25      1.0000 0.21980  0.11920  0.41360  Biso   1.000  C
  C26      1.0000 0.31110  0.05180  0.47040  Biso   1.000  C
  C27      1.0000 0.07150  0.06380  0.37200  Biso   1.000  C
  C28      1.0000 0.25500  0.95940  0.34860  Biso   1.000  C
  C29      1.0000 0.67320  0.11020  0.43470  Biso   1.000  C
  C30      1.0000 0.83540  0.95490  0.43390  Biso   1.000  C
  H1       1.0000 0.27520  0.37060  0.13750  Biso   1.000  H
  H2       1.0000 0.37070  0.36120  0.07640  Biso   1.000  H
  H3       1.0000 0.16410  0.41910  0.04480  Biso   1.000  H
  H4       1.0000 0.13690  0.54140  0.06250  Biso   1.000  H
  H5       1.0000 0.40370  0.10660  0.10750  Biso   1.000  H
  H6       1.0000 0.54420  0.03030  0.10000  Biso   1.000  H
  H7       1.0000 0.46970  0.16630  0.18550  Biso   1.000  H
  H8       1.0000 0.44760  0.06510  0.23390  Biso   1.000  H
  H9       1.0000 0.43040  0.61450  0.51400  Biso   1.000  H
  H10      1.0000 0.57130  0.56150  0.49810  Biso   1.000  H
  H11      1.0000 0.10970  0.01250  0.98820  Biso   1.000  H
  H12      1.0000 0.98340  0.11450  0.00270  Biso   1.000  H
  H13      1.0000 0.93130  0.55420  0.40250  Biso   1.000  H
  H14      1.0000 0.07040  0.47260  0.41430  Biso   1.000  H
  H15      1.0000 0.07950  0.44430  0.29430  Biso   1.000  H
  H16      1.0000 0.01340  0.38250  0.34770  Biso   1.000  H
  H17      1.0000 0.25390  0.15950  0.37700  Biso   1.000  H
  H18      1.0000 0.14830  0.17780  0.43290  Biso   1.000  H
  H19      1.0000 0.33650  0.10430  0.48660  Biso   1.000  H
  H20      1.0000 0.38220  0.99280  0.45110  Biso   1.000  H
  H21      1.0000 0.17540  0.62840  0.14640  Biso   1.000  H
  H22      1.0000 0.51460  0.40850  0.13240  Biso   1.000  H
  H23      1.0000 0.90170  0.33910  0.05890  Biso   1.000  H
  H24      1.0000 0.60600  0.62890  0.04350  Biso   1.000  H
  H25      1.0000 0.29190  0.99900  0.19750  Biso   1.000  H
  H26      1.0000 0.60370  0.80850  0.11870  Biso   1.000  H
  H27      1.0000 0.68670  0.86310  0.19150  Biso   1.000  H
  H28      1.0000 0.65100  0.14250  0.25450  Biso   1.000  H
  H29      1.0000 0.29550  0.70420  0.40650  Biso   1.000  H
  H30      1.0000 0.63340  0.50320  0.36950  Biso   1.000  H
  H31      1.0000 0.89440  0.09230  0.13240  Biso   1.000  H
  H32      1.0000 0.21870  0.86160  0.09330  Biso   1.000  H
  H33      1.0000 0.88500  0.76320  0.36210  Biso   1.000  H
  H34      1.0000 0.21230  0.54990  0.31600  Biso   1.000  H
  H35      1.0000 0.91830  0.65220  0.21840  Biso   1.000  H
  H36      1.0000 0.80890  0.41990  0.31150  Biso   1.000  H
  H37      1.0000 0.00160  0.12000  0.38960  Biso   1.000  H
  H38      1.0000 0.33960  0.92800  0.34630  Biso   1.000  H
  H39      1.0000 0.59720  0.16410  0.44780  Biso   1.000  H
  H40      1.0000 0.89570  0.87910  0.44580  Biso   1.000  H
  Cu4      1.0000 0.41988  0.43980  0.79087  Biso   1.000  Cu
  Cu5      1.0000 0.74435  0.22643  0.75118  Biso   1.000  Cu
  Cu6      1.0000 0.06433  0.00852  0.70825  Biso   1.000  Cu
  N31      1.0000 0.56080  0.44820  0.82460  Biso   1.000  N
  N32      1.0000 0.67870  0.37250  0.81890  Biso   1.000  N
  N33      1.0000 0.66710  0.50610  0.87440  Biso   1.000  N
  N34      1.0000 0.32610  0.49820  0.87540  Biso   1.000  N
  N35      1.0000 0.22420  0.60060  0.87010  Biso   1.000  N
  N36      1.0000 0.76270  0.49370  0.02420  Biso   1.000  N
  N37      1.0000 0.62660  0.17130  0.80120  Biso   1.000  N
  N38      1.0000 0.51680  0.23940  0.82890  Biso   1.000  N
  N39      1.0000 0.54350  0.05970  0.84930  Biso   1.000  N
  N40      1.0000 0.20490  0.00440  0.75000  Biso   1.000  N
  N41      1.0000 0.19060  0.10310  0.77260  Biso   1.000  N
  N42      1.0000 0.37650  0.97470  0.78470  Biso   1.000  N
  N43      1.0000 0.50120  0.40330  0.69660  Biso   1.000  N
  N44      1.0000 0.61860  0.33220  0.68290  Biso   1.000  N
  N45      1.0000 0.52780  0.40780  0.58520  Biso   1.000  N
  N46      1.0000 0.86780  0.10870  0.81640  Biso   1.000  N
  N47      1.0000 0.97970  0.02810  0.80260  Biso   1.000  N
  N48      1.0000 0.94860  0.00600  0.91410  Biso   1.000  N
  N49      1.0000 0.86550  0.27830  0.69840  Biso   1.000  N
  N50      1.0000 0.98020  0.20330  0.68210  Biso   1.000  N
  N51      1.0000 0.96160  0.37900  0.65110  Biso   1.000  N
  N52      1.0000 0.27120  0.44090  0.76070  Biso   1.000  N
  N53      1.0000 0.23250  0.35980  0.79420  Biso   1.000  N
  N54      1.0000 0.09860  0.48290  0.71780  Biso   1.000  N
  N55      1.0000 0.81020  0.07430  0.68100  Biso   1.000  N
  N56      1.0000 0.92730  0.00640  0.66610  Biso   1.000  N
  N57      1.0000 0.81570  0.95450  0.61680  Biso   1.000  N
  N58      1.0000 0.16330  0.97180  0.62100  Biso   1.000  N
  N59      1.0000 0.26700  0.87150  0.62120  Biso   1.000  N
  N60      1.0000 0.73500  0.00390  0.47090  Biso   1.000  N
  C31      1.0000 0.70070  0.58440  0.90170  Biso   1.000  C
  C32      1.0000 0.80030  0.52760  0.95360  Biso   1.000  C
  C33      1.0000 0.74020  0.40840  0.84940  Biso   1.000  C
  C34      1.0000 0.55630  0.52800  0.85740  Biso   1.000  C
  C35      1.0000 0.17220  0.60150  0.93030  Biso   1.000  C
  C36      1.0000 0.33220  0.44350  0.93910  Biso   1.000  C
  C37      1.0000 0.52520  0.95540  0.86810  Biso   1.000  C
  C38      1.0000 0.50370  0.91770  0.80500  Biso   1.000  C
  C39      1.0000 0.64010  0.06500  0.81490  Biso   1.000  C
  C40      1.0000 0.47090  0.16890  0.85760  Biso   1.000  C
  C41      1.0000 0.29530  0.08330  0.79180  Biso   1.000  C
  C42      1.0000 0.31570  0.93170  0.75770  Biso   1.000  C
  C43      1.0000 0.50430  0.44010  0.51150  Biso   1.000  C
  C44      1.0000 0.63200  0.33670  0.61650  Biso   1.000  C
  C45      1.0000 0.44870  0.44600  0.63690  Biso   1.000  C
  C46      1.0000 0.96780  0.96930  0.98740  Biso   1.000  C
  C47      1.0000 0.02750  0.96830  0.86190  Biso   1.000  C
  C48      1.0000 0.85150  0.09380  0.88320  Biso   1.000  C
  C49      1.0000 0.98980  0.47530  0.62080  Biso   1.000  C
  C50      1.0000 0.99160  0.54200  0.67540  Biso   1.000  C
  C51      1.0000 0.03470  0.26630  0.65400  Biso   1.000  C
  C52      1.0000 0.85740  0.38200  0.67900  Biso   1.000  C
  C53      1.0000 0.12930  0.38800  0.76780  Biso   1.000  C
  C54      1.0000 0.18840  0.51440  0.71680  Biso   1.000  C
  C55      1.0000 0.78020  0.88080  0.58640  Biso   1.000  C
  C56      1.0000 0.68890  0.94820  0.52960  Biso   1.000  C
  C57      1.0000 0.92850  0.93620  0.62800  Biso   1.000  C
  C58      1.0000 0.74500  0.04060  0.65140  Biso   1.000  C
  C59      1.0000 0.32680  0.88980  0.56530  Biso   1.000  C
  C60      1.0000 0.16460  0.04510  0.56610  Biso   1.000  C
  H41      1.0000 0.72480  0.62940  0.86250  Biso   1.000  H
  H42      1.0000 0.62930  0.63880  0.92360  Biso   1.000  H
  H43      1.0000 0.83590  0.58090  0.95520  Biso   1.000  H
  H44      1.0000 0.86310  0.45860  0.93750  Biso   1.000  H
  H45      1.0000 0.59630  0.89340  0.89250  Biso   1.000  H
  H46      1.0000 0.45580  0.96970  0.90000  Biso   1.000  H
  H47      1.0000 0.53030  0.83370  0.81450  Biso   1.000  H
  H48      1.0000 0.55240  0.93490  0.76610  Biso   1.000  H
  H49      1.0000 0.56960  0.38550  0.48600  Biso   1.000  H
  H50      1.0000 0.42870  0.43850  0.50190  Biso   1.000  H
  H51      1.0000 0.89030  0.98750  0.01180  Biso   1.000  H
  H52      1.0000 0.01660  0.88550  0.99730  Biso   1.000  H
  H53      1.0000 0.06870  0.44580  0.59750  Biso   1.000  H
  H54      1.0000 0.92960  0.52740  0.58570  Biso   1.000  H
  H55      1.0000 0.92050  0.55570  0.70570  Biso   1.000  H
  H56      1.0000 0.98660  0.61750  0.65230  Biso   1.000  H
  H57      1.0000 0.74610  0.84050  0.62300  Biso   1.000  H
  H58      1.0000 0.85170  0.82220  0.56710  Biso   1.000  H
  H59      1.0000 0.66350  0.89570  0.51340  Biso   1.000  H
  H60      1.0000 0.61780  0.00720  0.54890  Biso   1.000  H
  H61      1.0000 0.82460  0.37160  0.85360  Biso   1.000  H
  H62      1.0000 0.48540  0.59150  0.86760  Biso   1.000  H
  H63      1.0000 0.09830  0.66090  0.94110  Biso   1.000  H
  H64      1.0000 0.39400  0.37110  0.95650  Biso   1.000  H
  H65      1.0000 0.70810  0.00100  0.80250  Biso   1.000  H
  H66      1.0000 0.39630  0.19150  0.88130  Biso   1.000  H
  H67      1.0000 0.31330  0.13690  0.80850  Biso   1.000  H
  H68      1.0000 0.34900  0.85750  0.74550  Biso   1.000  H
  H69      1.0000 0.70450  0.29580  0.59350  Biso   1.000  H
  H70      1.0000 0.36660  0.49680  0.63050  Biso   1.000  H
  H71      1.0000 0.10560  0.90770  0.86760  Biso   1.000  H
  H72      1.0000 0.78130  0.13840  0.90670  Biso   1.000  H
  H73      1.0000 0.11500  0.23680  0.63790  Biso   1.000  H
  H74      1.0000 0.78770  0.45010  0.68400  Biso   1.000  H
  H75      1.0000 0.08170  0.34780  0.78160  Biso   1.000  H
  H76      1.0000 0.19110  0.58010  0.68850  Biso   1.000  H
  H77      1.0000 0.99840  0.88000  0.61040  Biso   1.000  H
  H78      1.0000 0.66040  0.07200  0.65370  Biso   1.000  H
  H79      1.0000 0.40280  0.83590  0.55220  Biso   1.000  H
  H80      1.0000 0.10430  0.12090  0.55420  Biso   1.000  H
