data_image0
_cell_length_a       29.1453
_cell_length_b       29.1453
_cell_length_c       16.991
_cell_angle_alpha    90
_cell_angle_beta     90
_cell_angle_gamma    120

_symmetry_space_group_name_H-M    "P 1"
_symmetry_int_tables_number       1

loop_
  _symmetry_equiv_pos_as_xyz
  'x, y, z'

loop_
  _atom_site_label
  _atom_site_occupancy
  _atom_site_fract_x
  _atom_site_fract_y
  _atom_site_fract_z
  _atom_site_thermal_displace_type
  _atom_site_B_iso_or_equiv
  _atom_site_type_symbol
  In1      1.0000 0.53098  0.84293  0.38651  Biso   1.000  In
  C1       1.0000 0.59893  0.79216  0.21890  Biso   1.000  C
  O1       1.0000 0.59175  0.82798  0.34111  Biso   1.000  O
  O2       1.0000 0.44567  0.80374  0.36670  Biso   1.000  O
  O3       1.0000 0.60022  0.70999  0.97708  Biso   1.000  O
  O4       1.0000 0.74934  0.77432  0.15880  Biso   1.000  O
  O5       1.0000 0.47735  0.74981  0.38057  Biso   1.000  O
  O6       1.0000 0.53341  0.81588  0.24841  Biso   1.000  O
  O7       1.0000 0.52694  0.70817  0.01040  Biso   1.000  O
  C2       1.0000 0.64710  0.75193  0.12300  Biso   1.000  C
  H1       1.0000 0.66280  0.73770  0.09130  Biso   1.000  H
  C3       1.0000 0.43896  0.75726  0.37000  Biso   1.000  C
  C4       1.0000 0.64875  0.79994  0.23900  Biso   1.000  C
  H2       1.0000 0.66520  0.81790  0.28500  Biso   1.000  H
  C5       1.0000 0.67384  0.78083  0.19030  Biso   1.000  C
  C6       1.0000 0.57386  0.76447  0.15100  Biso   1.000  C
  H3       1.0000 0.54070  0.75950  0.13770  Biso   1.000  H
  C7       1.0000 0.38424  0.71051  0.36400  Biso   1.000  C
  O8       1.0000 0.75323  0.81869  0.26605  Biso   1.000  O
  C8       1.0000 0.57374  0.71860  0.02610  Biso   1.000  C
  C9       1.0000 0.57237  0.81307  0.27180  Biso   1.000  C
  C10      1.0000 0.72826  0.79164  0.20750  Biso   1.000  C
  C11      1.0000 0.59792  0.74427  0.10310  Biso   1.000  C
  C12      1.0000 0.37729  0.65943  0.36430  Biso   1.000  C
  H4       1.0000 0.40650  0.65470  0.36460  Biso   1.000  H
  In2      1.0000 0.19765  0.17626  0.71985  Biso   1.000  In
  C13      1.0000 0.26560  0.12549  0.55223  Biso   1.000  C
  O9       1.0000 0.25842  0.16131  0.67444  Biso   1.000  O
  O10      1.0000 0.11234  0.13707  0.70003  Biso   1.000  O
  O11      1.0000 0.26689  0.04332  0.31041  Biso   1.000  O
  O12      1.0000 0.41601  0.10765  0.49213  Biso   1.000  O
  O13      1.0000 0.14402  0.08314  0.71390  Biso   1.000  O
  O14      1.0000 0.20008  0.14921  0.58174  Biso   1.000  O
  O15      1.0000 0.19361  0.04150  0.34373  Biso   1.000  O
  C14      1.0000 0.31377  0.08526  0.45633  Biso   1.000  C
  H5       1.0000 0.32947  0.07103  0.42463  Biso   1.000  H
  C15      1.0000 0.10563  0.09059  0.70333  Biso   1.000  C
  C16      1.0000 0.31542  0.13327  0.57233  Biso   1.000  C
  H6       1.0000 0.33187  0.15123  0.61833  Biso   1.000  H
  C17      1.0000 0.34051  0.11416  0.52363  Biso   1.000  C
  C18      1.0000 0.24053  0.09780  0.48433  Biso   1.000  C
  H7       1.0000 0.20737  0.09283  0.47103  Biso   1.000  H
  C19      1.0000 0.05091  0.04384  0.69733  Biso   1.000  C
  O16      1.0000 0.41990  0.15202  0.59938  Biso   1.000  O
  C20      1.0000 0.24041  0.05193  0.35943  Biso   1.000  C
  C21      1.0000 0.23904  0.14640  0.60513  Biso   1.000  C
  C22      1.0000 0.39493  0.12497  0.54083  Biso   1.000  C
  C23      1.0000 0.26459  0.07760  0.43643  Biso   1.000  C
  C24      1.0000 0.04396  0.99276  0.69763  Biso   1.000  C
  H8       1.0000 0.07317  0.98803  0.69793  Biso   1.000  H
  In3      1.0000 0.86431  0.50960  0.05318  Biso   1.000  In
  C25      1.0000 0.93226  0.45883  0.88557  Biso   1.000  C
  O17      1.0000 0.92508  0.49465  0.00778  Biso   1.000  O
  O18      1.0000 0.77900  0.47041  0.03337  Biso   1.000  O
  O19      1.0000 0.93355  0.37666  0.64375  Biso   1.000  O
  O20      1.0000 0.08267  0.44099  0.82547  Biso   1.000  O
  O21      1.0000 0.81068  0.41648  0.04724  Biso   1.000  O
  O22      1.0000 0.86674  0.48255  0.91508  Biso   1.000  O
  O23      1.0000 0.86027  0.37484  0.67707  Biso   1.000  O
  C26      1.0000 0.98043  0.41860  0.78967  Biso   1.000  C
  H9       1.0000 0.99613  0.40437  0.75797  Biso   1.000  H
  C27      1.0000 0.77229  0.42393  0.03667  Biso   1.000  C
  C28      1.0000 0.98208  0.46661  0.90567  Biso   1.000  C
  H10      1.0000 0.99853  0.48457  0.95167  Biso   1.000  H
  C29      1.0000 0.00717  0.44750  0.85697  Biso   1.000  C
  C30      1.0000 0.90719  0.43114  0.81767  Biso   1.000  C
  H11      1.0000 0.87403  0.42617  0.80437  Biso   1.000  H
  C31      1.0000 0.71757  0.37718  0.03067  Biso   1.000  C
  O24      1.0000 0.08656  0.48536  0.93272  Biso   1.000  O
  C32      1.0000 0.90707  0.38527  0.69277  Biso   1.000  C
  C33      1.0000 0.90570  0.47974  0.93847  Biso   1.000  C
  C34      1.0000 0.06159  0.45831  0.87417  Biso   1.000  C
  C35      1.0000 0.93125  0.41094  0.76977  Biso   1.000  C
  C36      1.0000 0.71062  0.32610  0.03097  Biso   1.000  C
  H12      1.0000 0.73983  0.32137  0.03127  Biso   1.000  H
  In4      1.0000 0.15707  0.68805  0.38651  Biso   1.000  In
  C37      1.0000 0.20784  0.80677  0.21890  Biso   1.000  C
  O25      1.0000 0.17202  0.76377  0.34111  Biso   1.000  O
  O26      1.0000 0.19626  0.64193  0.36670  Biso   1.000  O
  O27      1.0000 0.29001  0.89023  0.97708  Biso   1.000  O
  O28      1.0000 0.22568  0.97502  0.15880  Biso   1.000  O
  O29      1.0000 0.25019  0.72754  0.38057  Biso   1.000  O
  O30      1.0000 0.18412  0.71753  0.24841  Biso   1.000  O
  O31      1.0000 0.29183  0.81877  0.01040  Biso   1.000  O
  C38      1.0000 0.24807  0.89517  0.12300  Biso   1.000  C
  H13      1.0000 0.26230  0.92510  0.09130  Biso   1.000  H
  C39      1.0000 0.24274  0.68170  0.37000  Biso   1.000  C
  C40      1.0000 0.20006  0.84881  0.23900  Biso   1.000  C
  H14      1.0000 0.18210  0.84730  0.28500  Biso   1.000  H
  C41      1.0000 0.21917  0.89301  0.19030  Biso   1.000  C
  C42      1.0000 0.23553  0.80939  0.15100  Biso   1.000  C
  H15      1.0000 0.24050  0.78120  0.13770  Biso   1.000  H
  C43      1.0000 0.28949  0.67373  0.36400  Biso   1.000  C
  O32      1.0000 0.18131  0.93454  0.26605  Biso   1.000  O
  C44      1.0000 0.28140  0.85514  0.02610  Biso   1.000  C
  C45      1.0000 0.18693  0.75930  0.27180  Biso   1.000  C
  C46      1.0000 0.20836  0.93662  0.20750  Biso   1.000  C
  C47      1.0000 0.25573  0.85365  0.10310  Biso   1.000  C
  C48      1.0000 0.34057  0.71786  0.36430  Biso   1.000  C
  H16      1.0000 0.34530  0.75180  0.36460  Biso   1.000  H
  In5      1.0000 0.82374  0.02138  0.71985  Biso   1.000  In
  C49      1.0000 0.87451  0.14010  0.55223  Biso   1.000  C
  O33      1.0000 0.83869  0.09710  0.67444  Biso   1.000  O
  O34      1.0000 0.86293  0.97526  0.70003  Biso   1.000  O
  O35      1.0000 0.95668  0.22356  0.31041  Biso   1.000  O
  O36      1.0000 0.89235  0.30835  0.49213  Biso   1.000  O
  O37      1.0000 0.91686  0.06087  0.71390  Biso   1.000  O
  O38      1.0000 0.85079  0.05086  0.58174  Biso   1.000  O
  O39      1.0000 0.95850  0.15210  0.34373  Biso   1.000  O
  C50      1.0000 0.91474  0.22850  0.45633  Biso   1.000  C
  H17      1.0000 0.92897  0.25843  0.42463  Biso   1.000  H
  C51      1.0000 0.90941  0.01503  0.70333  Biso   1.000  C
  C52      1.0000 0.86673  0.18214  0.57233  Biso   1.000  C
  H18      1.0000 0.84877  0.18063  0.61833  Biso   1.000  H
  C53      1.0000 0.88584  0.22634  0.52363  Biso   1.000  C
  C54      1.0000 0.90220  0.14272  0.48433  Biso   1.000  C
  H19      1.0000 0.90717  0.11453  0.47103  Biso   1.000  H
  C55      1.0000 0.95616  0.00706  0.69733  Biso   1.000  C
  O40      1.0000 0.84798  0.26787  0.59938  Biso   1.000  O
  C56      1.0000 0.94807  0.18847  0.35943  Biso   1.000  C
  C57      1.0000 0.85360  0.09263  0.60513  Biso   1.000  C
  C58      1.0000 0.87503  0.26995  0.54083  Biso   1.000  C
  C59      1.0000 0.92240  0.18698  0.43643  Biso   1.000  C
  C60      1.0000 0.00724  0.05119  0.69763  Biso   1.000  C
  H20      1.0000 0.01197  0.08513  0.69793  Biso   1.000  H
  In6      1.0000 0.49040  0.35472  0.05318  Biso   1.000  In
  C61      1.0000 0.54117  0.47344  0.88557  Biso   1.000  C
  O41      1.0000 0.50535  0.43044  0.00778  Biso   1.000  O
  O42      1.0000 0.52959  0.30860  0.03337  Biso   1.000  O
  O43      1.0000 0.62334  0.55690  0.64375  Biso   1.000  O
  O44      1.0000 0.55901  0.64169  0.82547  Biso   1.000  O
  O45      1.0000 0.58352  0.39421  0.04724  Biso   1.000  O
  O46      1.0000 0.51745  0.38420  0.91508  Biso   1.000  O
  O47      1.0000 0.62516  0.48544  0.67707  Biso   1.000  O
  C62      1.0000 0.58140  0.56184  0.78967  Biso   1.000  C
  H21      1.0000 0.59563  0.59177  0.75797  Biso   1.000  H
  C63      1.0000 0.57607  0.34837  0.03667  Biso   1.000  C
  C64      1.0000 0.53339  0.51548  0.90567  Biso   1.000  C
  H22      1.0000 0.51543  0.51397  0.95167  Biso   1.000  H
  C65      1.0000 0.55250  0.55968  0.85697  Biso   1.000  C
  C66      1.0000 0.56886  0.47606  0.81767  Biso   1.000  C
  H23      1.0000 0.57383  0.44787  0.80437  Biso   1.000  H
  C67      1.0000 0.62282  0.34040  0.03067  Biso   1.000  C
  O48      1.0000 0.51464  0.60121  0.93272  Biso   1.000  O
  C68      1.0000 0.61473  0.52181  0.69277  Biso   1.000  C
  C69      1.0000 0.52026  0.42597  0.93847  Biso   1.000  C
  C70      1.0000 0.54169  0.60329  0.87417  Biso   1.000  C
  C71      1.0000 0.58906  0.52032  0.76977  Biso   1.000  C
  C72      1.0000 0.67390  0.38453  0.03097  Biso   1.000  C
  H24      1.0000 0.67863  0.41847  0.03127  Biso   1.000  H
  In7      1.0000 0.31195  0.46902  0.38651  Biso   1.000  In
  C73      1.0000 0.19323  0.40107  0.21890  Biso   1.000  C
  O49      1.0000 0.23623  0.40825  0.34111  Biso   1.000  O
  O50      1.0000 0.35807  0.55433  0.36670  Biso   1.000  O
  O51      1.0000 0.10977  0.39978  0.97708  Biso   1.000  O
  O52      1.0000 0.02498  0.25066  0.15880  Biso   1.000  O
  O53      1.0000 0.27246  0.52265  0.38057  Biso   1.000  O
  O54      1.0000 0.28247  0.46659  0.24841  Biso   1.000  O
  O55      1.0000 0.18123  0.47306  0.01040  Biso   1.000  O
  C74      1.0000 0.10483  0.35290  0.12300  Biso   1.000  C
  H25      1.0000 0.07490  0.33720  0.09130  Biso   1.000  H
  C75      1.0000 0.31830  0.56104  0.37000  Biso   1.000  C
  C76      1.0000 0.15119  0.35125  0.23900  Biso   1.000  C
  H26      1.0000 0.15270  0.33480  0.28500  Biso   1.000  H
  C77      1.0000 0.10699  0.32616  0.19030  Biso   1.000  C
  C78      1.0000 0.19061  0.42614  0.15100  Biso   1.000  C
  H27      1.0000 0.21880  0.45930  0.13770  Biso   1.000  H
  C79      1.0000 0.32627  0.61576  0.36400  Biso   1.000  C
  O56      1.0000 0.06546  0.24677  0.26605  Biso   1.000  O
  C80      1.0000 0.14486  0.42626  0.02610  Biso   1.000  C
  C81      1.0000 0.24070  0.42763  0.27180  Biso   1.000  C
  C82      1.0000 0.06338  0.27174  0.20750  Biso   1.000  C
  C83      1.0000 0.14635  0.40208  0.10310  Biso   1.000  C
  C84      1.0000 0.28214  0.62271  0.36430  Biso   1.000  C
  H28      1.0000 0.24820  0.59350  0.36460  Biso   1.000  H
  In8      1.0000 0.97862  0.80235  0.71985  Biso   1.000  In
  C85      1.0000 0.85990  0.73440  0.55223  Biso   1.000  C
  O57      1.0000 0.90290  0.74158  0.67444  Biso   1.000  O
  O58      1.0000 0.02474  0.88766  0.70003  Biso   1.000  O
  O59      1.0000 0.77644  0.73311  0.31041  Biso   1.000  O
  O60      1.0000 0.69165  0.58399  0.49213  Biso   1.000  O
  O61      1.0000 0.93913  0.85598  0.71390  Biso   1.000  O
  O62      1.0000 0.94914  0.79992  0.58174  Biso   1.000  O
  O63      1.0000 0.84790  0.80639  0.34373  Biso   1.000  O
  C86      1.0000 0.77150  0.68623  0.45633  Biso   1.000  C
  H29      1.0000 0.74157  0.67053  0.42463  Biso   1.000  H
  C87      1.0000 0.98497  0.89437  0.70333  Biso   1.000  C
  C88      1.0000 0.81786  0.68458  0.57233  Biso   1.000  C
  H30      1.0000 0.81937  0.66813  0.61833  Biso   1.000  H
  C89      1.0000 0.77366  0.65949  0.52363  Biso   1.000  C
  C90      1.0000 0.85728  0.75947  0.48433  Biso   1.000  C
  H31      1.0000 0.88547  0.79263  0.47103  Biso   1.000  H
  C91      1.0000 0.99294  0.94909  0.69733  Biso   1.000  C
  O64      1.0000 0.73213  0.58010  0.59938  Biso   1.000  O
  C92      1.0000 0.81153  0.75959  0.35943  Biso   1.000  C
  C93      1.0000 0.90737  0.76096  0.60513  Biso   1.000  C
  C94      1.0000 0.73005  0.60507  0.54083  Biso   1.000  C
  C95      1.0000 0.81302  0.73541  0.43643  Biso   1.000  C
  C96      1.0000 0.94881  0.95604  0.69763  Biso   1.000  C
  H32      1.0000 0.91487  0.92683  0.69793  Biso   1.000  H
  In9      1.0000 0.64528  0.13569  0.05318  Biso   1.000  In
  C97      1.0000 0.52656  0.06774  0.88557  Biso   1.000  C
  O65      1.0000 0.56956  0.07492  0.00778  Biso   1.000  O
  O66      1.0000 0.69140  0.22100  0.03337  Biso   1.000  O
  O67      1.0000 0.44310  0.06645  0.64375  Biso   1.000  O
  O68      1.0000 0.35831  0.91733  0.82547  Biso   1.000  O
  O69      1.0000 0.60579  0.18932  0.04724  Biso   1.000  O
  O70      1.0000 0.61580  0.13326  0.91508  Biso   1.000  O
  O71      1.0000 0.51456  0.13973  0.67707  Biso   1.000  O
  C98      1.0000 0.43816  0.01957  0.78967  Biso   1.000  C
  H33      1.0000 0.40823  0.00387  0.75797  Biso   1.000  H
  C99      1.0000 0.65163  0.22771  0.03667  Biso   1.000  C
  C100     1.0000 0.48452  0.01792  0.90567  Biso   1.000  C
  H34      1.0000 0.48603  0.00147  0.95167  Biso   1.000  H
  C101     1.0000 0.44032  0.99283  0.85697  Biso   1.000  C
  C102     1.0000 0.52394  0.09281  0.81767  Biso   1.000  C
  H35      1.0000 0.55213  0.12597  0.80437  Biso   1.000  H
  C103     1.0000 0.65960  0.28243  0.03067  Biso   1.000  C
  O72      1.0000 0.39879  0.91344  0.93272  Biso   1.000  O
  C104     1.0000 0.47819  0.09293  0.69277  Biso   1.000  C
  C105     1.0000 0.57403  0.09430  0.93847  Biso   1.000  C
  C106     1.0000 0.39671  0.93841  0.87417  Biso   1.000  C
  C107     1.0000 0.47968  0.06875  0.76977  Biso   1.000  C
  C108     1.0000 0.61547  0.28938  0.03097  Biso   1.000  C
  H36      1.0000 0.58153  0.26017  0.03127  Biso   1.000  H
  In10     1.0000 0.15707  0.46902  0.88651  Biso   1.000  In
  C109     1.0000 0.20784  0.40107  0.71890  Biso   1.000  C
  O73      1.0000 0.17202  0.40825  0.84111  Biso   1.000  O
  O74      1.0000 0.19626  0.55433  0.86670  Biso   1.000  O
  O75      1.0000 0.29001  0.39978  0.47708  Biso   1.000  O
  O76      1.0000 0.22568  0.25066  0.65880  Biso   1.000  O
  O77      1.0000 0.25019  0.52265  0.88057  Biso   1.000  O
  O78      1.0000 0.18412  0.46659  0.74841  Biso   1.000  O
  O79      1.0000 0.29183  0.47306  0.51040  Biso   1.000  O
  C110     1.0000 0.24807  0.35290  0.62300  Biso   1.000  C
  H37      1.0000 0.26230  0.33720  0.59130  Biso   1.000  H
  C111     1.0000 0.24274  0.56104  0.87000  Biso   1.000  C
  C112     1.0000 0.20006  0.35125  0.73900  Biso   1.000  C
  H38      1.0000 0.18210  0.33480  0.78500  Biso   1.000  H
  C113     1.0000 0.21917  0.32616  0.69030  Biso   1.000  C
  C114     1.0000 0.23553  0.42614  0.65100  Biso   1.000  C
  H39      1.0000 0.24050  0.45930  0.63770  Biso   1.000  H
  C115     1.0000 0.28949  0.61576  0.86400  Biso   1.000  C
  O80      1.0000 0.18131  0.24677  0.76605  Biso   1.000  O
  C116     1.0000 0.28140  0.42626  0.52610  Biso   1.000  C
  C117     1.0000 0.18693  0.42763  0.77180  Biso   1.000  C
  C118     1.0000 0.20836  0.27174  0.70750  Biso   1.000  C
  C119     1.0000 0.25573  0.40208  0.60310  Biso   1.000  C
  C120     1.0000 0.34057  0.62271  0.86430  Biso   1.000  C
  H40      1.0000 0.34530  0.59350  0.86460  Biso   1.000  H
  In11     1.0000 0.82374  0.80235  0.21985  Biso   1.000  In
  C121     1.0000 0.87451  0.73440  0.05223  Biso   1.000  C
  O81      1.0000 0.83869  0.74158  0.17444  Biso   1.000  O
  O82      1.0000 0.86293  0.88766  0.20003  Biso   1.000  O
  O83      1.0000 0.95668  0.73311  0.81041  Biso   1.000  O
  O84      1.0000 0.89235  0.58399  0.99213  Biso   1.000  O
  O85      1.0000 0.91686  0.85598  0.21390  Biso   1.000  O
  O86      1.0000 0.85079  0.79992  0.08174  Biso   1.000  O
  O87      1.0000 0.95850  0.80639  0.84373  Biso   1.000  O
  C122     1.0000 0.91474  0.68623  0.95633  Biso   1.000  C
  H41      1.0000 0.92897  0.67053  0.92463  Biso   1.000  H
  C123     1.0000 0.90941  0.89437  0.20333  Biso   1.000  C
  C124     1.0000 0.86673  0.68458  0.07233  Biso   1.000  C
  H42      1.0000 0.84877  0.66813  0.11833  Biso   1.000  H
  C125     1.0000 0.88584  0.65949  0.02363  Biso   1.000  C
  C126     1.0000 0.90220  0.75947  0.98433  Biso   1.000  C
  H43      1.0000 0.90717  0.79263  0.97103  Biso   1.000  H
  C127     1.0000 0.95616  0.94909  0.19733  Biso   1.000  C
  O88      1.0000 0.84798  0.58010  0.09938  Biso   1.000  O
  C128     1.0000 0.94807  0.75959  0.85943  Biso   1.000  C
  C129     1.0000 0.85360  0.76096  0.10513  Biso   1.000  C
  C130     1.0000 0.87503  0.60507  0.04083  Biso   1.000  C
  C131     1.0000 0.92240  0.73541  0.93643  Biso   1.000  C
  C132     1.0000 0.00724  0.95604  0.19763  Biso   1.000  C
  H44      1.0000 0.01197  0.92683  0.19793  Biso   1.000  H
  In12     1.0000 0.49040  0.13569  0.55318  Biso   1.000  In
  C133     1.0000 0.54117  0.06774  0.38557  Biso   1.000  C
  O89      1.0000 0.50535  0.07492  0.50778  Biso   1.000  O
  O90      1.0000 0.52959  0.22100  0.53337  Biso   1.000  O
  O91      1.0000 0.62334  0.06645  0.14375  Biso   1.000  O
  O92      1.0000 0.55901  0.91733  0.32547  Biso   1.000  O
  O93      1.0000 0.58352  0.18932  0.54724  Biso   1.000  O
  O94      1.0000 0.51745  0.13326  0.41508  Biso   1.000  O
  O95      1.0000 0.62516  0.13973  0.17707  Biso   1.000  O
  C134     1.0000 0.58140  0.01957  0.28967  Biso   1.000  C
  H45      1.0000 0.59563  0.00387  0.25797  Biso   1.000  H
  C135     1.0000 0.57607  0.22771  0.53667  Biso   1.000  C
  C136     1.0000 0.53339  0.01792  0.40567  Biso   1.000  C
  H46      1.0000 0.51543  0.00147  0.45167  Biso   1.000  H
  C137     1.0000 0.55250  0.99283  0.35697  Biso   1.000  C
  C138     1.0000 0.56886  0.09281  0.31767  Biso   1.000  C
  H47      1.0000 0.57383  0.12597  0.30437  Biso   1.000  H
  C139     1.0000 0.62282  0.28243  0.53067  Biso   1.000  C
  O96      1.0000 0.51464  0.91344  0.43272  Biso   1.000  O
  C140     1.0000 0.61473  0.09293  0.19277  Biso   1.000  C
  C141     1.0000 0.52026  0.09430  0.43847  Biso   1.000  C
  C142     1.0000 0.54169  0.93841  0.37417  Biso   1.000  C
  C143     1.0000 0.58906  0.06875  0.26977  Biso   1.000  C
  C144     1.0000 0.67390  0.28938  0.53097  Biso   1.000  C
  H48      1.0000 0.67863  0.26017  0.53127  Biso   1.000  H
  In13     1.0000 0.31195  0.84293  0.88651  Biso   1.000  In
  C145     1.0000 0.19323  0.79216  0.71890  Biso   1.000  C
  O97      1.0000 0.23623  0.82798  0.84111  Biso   1.000  O
  O98      1.0000 0.35807  0.80374  0.86670  Biso   1.000  O
  O99      1.0000 0.10977  0.70999  0.47708  Biso   1.000  O
  O100     1.0000 0.02498  0.77432  0.65880  Biso   1.000  O
  O101     1.0000 0.27246  0.74981  0.88057  Biso   1.000  O
  O102     1.0000 0.28247  0.81588  0.74841  Biso   1.000  O
  O103     1.0000 0.18123  0.70817  0.51040  Biso   1.000  O
  C146     1.0000 0.10483  0.75193  0.62300  Biso   1.000  C
  H49      1.0000 0.07490  0.73770  0.59130  Biso   1.000  H
  C147     1.0000 0.31830  0.75726  0.87000  Biso   1.000  C
  C148     1.0000 0.15119  0.79994  0.73900  Biso   1.000  C
  H50      1.0000 0.15270  0.81790  0.78500  Biso   1.000  H
  C149     1.0000 0.10699  0.78083  0.69030  Biso   1.000  C
  C150     1.0000 0.19061  0.76447  0.65100  Biso   1.000  C
  H51      1.0000 0.21880  0.75950  0.63770  Biso   1.000  H
  C151     1.0000 0.32627  0.71051  0.86400  Biso   1.000  C
  O104     1.0000 0.06546  0.81869  0.76605  Biso   1.000  O
  C152     1.0000 0.14486  0.71860  0.52610  Biso   1.000  C
  C153     1.0000 0.24070  0.81307  0.77180  Biso   1.000  C
  C154     1.0000 0.06338  0.79164  0.70750  Biso   1.000  C
  C155     1.0000 0.14635  0.74427  0.60310  Biso   1.000  C
  C156     1.0000 0.28214  0.65943  0.86430  Biso   1.000  C
  H52      1.0000 0.24820  0.65470  0.86460  Biso   1.000  H
  In14     1.0000 0.97862  0.17626  0.21985  Biso   1.000  In
  C157     1.0000 0.85990  0.12549  0.05223  Biso   1.000  C
  O105     1.0000 0.90290  0.16131  0.17444  Biso   1.000  O
  O106     1.0000 0.02474  0.13707  0.20003  Biso   1.000  O
  O107     1.0000 0.77644  0.04332  0.81041  Biso   1.000  O
  O108     1.0000 0.69165  0.10765  0.99213  Biso   1.000  O
  O109     1.0000 0.93913  0.08314  0.21390  Biso   1.000  O
  O110     1.0000 0.94914  0.14921  0.08174  Biso   1.000  O
  O111     1.0000 0.84790  0.04150  0.84373  Biso   1.000  O
  C158     1.0000 0.77150  0.08526  0.95633  Biso   1.000  C
  H53      1.0000 0.74157  0.07103  0.92463  Biso   1.000  H
  C159     1.0000 0.98497  0.09059  0.20333  Biso   1.000  C
  C160     1.0000 0.81786  0.13327  0.07233  Biso   1.000  C
  H54      1.0000 0.81937  0.15123  0.11833  Biso   1.000  H
  C161     1.0000 0.77366  0.11416  0.02363  Biso   1.000  C
  C162     1.0000 0.85728  0.09780  0.98433  Biso   1.000  C
  H55      1.0000 0.88547  0.09283  0.97103  Biso   1.000  H
  C163     1.0000 0.99294  0.04384  0.19733  Biso   1.000  C
  O112     1.0000 0.73213  0.15202  0.09938  Biso   1.000  O
  C164     1.0000 0.81153  0.05193  0.85943  Biso   1.000  C
  C165     1.0000 0.90737  0.14640  0.10513  Biso   1.000  C
  C166     1.0000 0.73005  0.12497  0.04083  Biso   1.000  C
  C167     1.0000 0.81302  0.07760  0.93643  Biso   1.000  C
  C168     1.0000 0.94881  0.99276  0.19763  Biso   1.000  C
  H56      1.0000 0.91487  0.98803  0.19793  Biso   1.000  H
  In15     1.0000 0.64528  0.50960  0.55318  Biso   1.000  In
  C169     1.0000 0.52656  0.45883  0.38557  Biso   1.000  C
  O113     1.0000 0.56956  0.49465  0.50778  Biso   1.000  O
  O114     1.0000 0.69140  0.47041  0.53337  Biso   1.000  O
  O115     1.0000 0.44310  0.37666  0.14375  Biso   1.000  O
  O116     1.0000 0.35831  0.44099  0.32547  Biso   1.000  O
  O117     1.0000 0.60579  0.41648  0.54724  Biso   1.000  O
  O118     1.0000 0.61580  0.48255  0.41508  Biso   1.000  O
  O119     1.0000 0.51456  0.37484  0.17707  Biso   1.000  O
  C170     1.0000 0.43816  0.41860  0.28967  Biso   1.000  C
  H57      1.0000 0.40823  0.40437  0.25797  Biso   1.000  H
  C171     1.0000 0.65163  0.42393  0.53667  Biso   1.000  C
  C172     1.0000 0.48452  0.46661  0.40567  Biso   1.000  C
  H58      1.0000 0.48603  0.48457  0.45167  Biso   1.000  H
  C173     1.0000 0.44032  0.44750  0.35697  Biso   1.000  C
  C174     1.0000 0.52394  0.43114  0.31767  Biso   1.000  C
  H59      1.0000 0.55213  0.42617  0.30437  Biso   1.000  H
  C175     1.0000 0.65960  0.37718  0.53067  Biso   1.000  C
  O120     1.0000 0.39879  0.48536  0.43272  Biso   1.000  O
  C176     1.0000 0.47819  0.38527  0.19277  Biso   1.000  C
  C177     1.0000 0.57403  0.47974  0.43847  Biso   1.000  C
  C178     1.0000 0.39671  0.45831  0.37417  Biso   1.000  C
  C179     1.0000 0.47968  0.41094  0.26977  Biso   1.000  C
  C180     1.0000 0.61547  0.32610  0.53097  Biso   1.000  C
  H60      1.0000 0.58153  0.32137  0.53127  Biso   1.000  H
  In16     1.0000 0.53098  0.68805  0.88651  Biso   1.000  In
  C181     1.0000 0.59893  0.80677  0.71890  Biso   1.000  C
  O121     1.0000 0.59175  0.76377  0.84111  Biso   1.000  O
  O122     1.0000 0.44567  0.64193  0.86670  Biso   1.000  O
  O123     1.0000 0.60022  0.89023  0.47708  Biso   1.000  O
  O124     1.0000 0.74934  0.97502  0.65880  Biso   1.000  O
  O125     1.0000 0.47735  0.72754  0.88057  Biso   1.000  O
  O126     1.0000 0.53341  0.71753  0.74841  Biso   1.000  O
  O127     1.0000 0.52694  0.81877  0.51040  Biso   1.000  O
  C182     1.0000 0.64710  0.89517  0.62300  Biso   1.000  C
  H61      1.0000 0.66280  0.92510  0.59130  Biso   1.000  H
  C183     1.0000 0.43896  0.68170  0.87000  Biso   1.000  C
  C184     1.0000 0.64875  0.84881  0.73900  Biso   1.000  C
  H62      1.0000 0.66520  0.84730  0.78500  Biso   1.000  H
  C185     1.0000 0.67384  0.89301  0.69030  Biso   1.000  C
  C186     1.0000 0.57386  0.80939  0.65100  Biso   1.000  C
  H63      1.0000 0.54070  0.78120  0.63770  Biso   1.000  H
  C187     1.0000 0.38424  0.67373  0.86400  Biso   1.000  C
  O128     1.0000 0.75323  0.93454  0.76605  Biso   1.000  O
  C188     1.0000 0.57374  0.85514  0.52610  Biso   1.000  C
  C189     1.0000 0.57237  0.75930  0.77180  Biso   1.000  C
  C190     1.0000 0.72826  0.93662  0.70750  Biso   1.000  C
  C191     1.0000 0.59792  0.85365  0.60310  Biso   1.000  C
  C192     1.0000 0.37729  0.71786  0.86430  Biso   1.000  C
  H64      1.0000 0.40650  0.75180  0.86460  Biso   1.000  H
  In17     1.0000 0.19765  0.02138  0.21985  Biso   1.000  In
  C193     1.0000 0.26560  0.14010  0.05223  Biso   1.000  C
  O129     1.0000 0.25842  0.09710  0.17444  Biso   1.000  O
  O130     1.0000 0.11234  0.97526  0.20003  Biso   1.000  O
  O131     1.0000 0.26689  0.22356  0.81041  Biso   1.000  O
  O132     1.0000 0.41601  0.30835  0.99213  Biso   1.000  O
  O133     1.0000 0.14402  0.06087  0.21390  Biso   1.000  O
  O134     1.0000 0.20008  0.05086  0.08174  Biso   1.000  O
  O135     1.0000 0.19361  0.15210  0.84373  Biso   1.000  O
  C194     1.0000 0.31377  0.22850  0.95633  Biso   1.000  C
  H65      1.0000 0.32947  0.25843  0.92463  Biso   1.000  H
  C195     1.0000 0.10563  0.01503  0.20333  Biso   1.000  C
  C196     1.0000 0.31542  0.18214  0.07233  Biso   1.000  C
  H66      1.0000 0.33187  0.18063  0.11833  Biso   1.000  H
  C197     1.0000 0.34051  0.22634  0.02363  Biso   1.000  C
  C198     1.0000 0.24053  0.14272  0.98433  Biso   1.000  C
  H67      1.0000 0.20737  0.11453  0.97103  Biso   1.000  H
  C199     1.0000 0.05091  0.00706  0.19733  Biso   1.000  C
  O136     1.0000 0.41990  0.26787  0.09938  Biso   1.000  O
  C200     1.0000 0.24041  0.18847  0.85943  Biso   1.000  C
  C201     1.0000 0.23904  0.09263  0.10513  Biso   1.000  C
  C202     1.0000 0.39493  0.26995  0.04083  Biso   1.000  C
  C203     1.0000 0.26459  0.18698  0.93643  Biso   1.000  C
  C204     1.0000 0.04396  0.05119  0.19763  Biso   1.000  C
  H68      1.0000 0.07317  0.08513  0.19793  Biso   1.000  H
  In18     1.0000 0.86431  0.35472  0.55318  Biso   1.000  In
  C205     1.0000 0.93226  0.47344  0.38557  Biso   1.000  C
  O137     1.0000 0.92508  0.43044  0.50778  Biso   1.000  O
  O138     1.0000 0.77900  0.30860  0.53337  Biso   1.000  O
  O139     1.0000 0.93355  0.55690  0.14375  Biso   1.000  O
  O140     1.0000 0.08267  0.64169  0.32547  Biso   1.000  O
  O141     1.0000 0.81068  0.39421  0.54724  Biso   1.000  O
  O142     1.0000 0.86674  0.38420  0.41508  Biso   1.000  O
  O143     1.0000 0.86027  0.48544  0.17707  Biso   1.000  O
  C206     1.0000 0.98043  0.56184  0.28967  Biso   1.000  C
  H69      1.0000 0.99613  0.59177  0.25797  Biso   1.000  H
  C207     1.0000 0.77229  0.34837  0.53667  Biso   1.000  C
  C208     1.0000 0.98208  0.51548  0.40567  Biso   1.000  C
  H70      1.0000 0.99853  0.51397  0.45167  Biso   1.000  H
  C209     1.0000 0.00717  0.55968  0.35697  Biso   1.000  C
  C210     1.0000 0.90719  0.47606  0.31767  Biso   1.000  C
  H71      1.0000 0.87403  0.44787  0.30437  Biso   1.000  H
  C211     1.0000 0.71757  0.34040  0.53067  Biso   1.000  C
  O144     1.0000 0.08656  0.60121  0.43272  Biso   1.000  O
  C212     1.0000 0.90707  0.52181  0.19277  Biso   1.000  C
  C213     1.0000 0.90570  0.42597  0.43847  Biso   1.000  C
  C214     1.0000 0.06159  0.60329  0.37417  Biso   1.000  C
  C215     1.0000 0.93125  0.52032  0.26977  Biso   1.000  C
  C216     1.0000 0.71062  0.38453  0.53097  Biso   1.000  C
  H72      1.0000 0.73983  0.41847  0.53127  Biso   1.000  H
