data_image0
_cell_length_a       20.4639
_cell_length_b       20.4639
_cell_length_c       20.4639
_cell_angle_alpha    90
_cell_angle_beta     90
_cell_angle_gamma    90

_symmetry_space_group_name_H-M    "P 1"
_symmetry_int_tables_number       1

loop_
  _symmetry_equiv_pos_as_xyz
  'x, y, z'

loop_
  _atom_site_label
  _atom_site_occupancy
  _atom_site_fract_x
  _atom_site_fract_y
  _atom_site_fract_z
  _atom_site_thermal_displace_type
  _atom_site_B_iso_or_equiv
  _atom_site_type_symbol
  O1       1.0000 0.91710  0.30390  0.33600  Biso   1.000  O
  O2       1.0000 0.93720  0.21330  0.28070  Biso   1.000  O
  C1       1.0000 0.84600  0.28020  0.24760  Biso   1.000  C
  C2       1.0000 0.80800  0.33260  0.26040  Biso   1.000  C
  C3       1.0000 0.90390  0.26380  0.29020  Biso   1.000  C
  O3       1.0000 0.41710  0.80390  0.83600  Biso   1.000  O
  O4       1.0000 0.43720  0.71330  0.78070  Biso   1.000  O
  C4       1.0000 0.34600  0.78020  0.74760  Biso   1.000  C
  C5       1.0000 0.30800  0.83260  0.76040  Biso   1.000  C
  C6       1.0000 0.40390  0.76380  0.79020  Biso   1.000  C
  O5       1.0000 0.58290  0.69610  0.83600  Biso   1.000  O
  O6       1.0000 0.56280  0.78670  0.78070  Biso   1.000  O
  C7       1.0000 0.65400  0.71980  0.74760  Biso   1.000  C
  C8       1.0000 0.69200  0.66740  0.76040  Biso   1.000  C
  C9       1.0000 0.59610  0.73620  0.79020  Biso   1.000  C
  O7       1.0000 0.08290  0.19610  0.33600  Biso   1.000  O
  O8       1.0000 0.06280  0.28670  0.28070  Biso   1.000  O
  C10      1.0000 0.15400  0.21980  0.24760  Biso   1.000  C
  C11      1.0000 0.19200  0.16740  0.26040  Biso   1.000  C
  C12      1.0000 0.09610  0.23620  0.29020  Biso   1.000  C
  O9       1.0000 0.08290  0.80390  0.16400  Biso   1.000  O
  O10      1.0000 0.06280  0.71330  0.21930  Biso   1.000  O
  C13      1.0000 0.15400  0.78020  0.25240  Biso   1.000  C
  C14      1.0000 0.19200  0.83260  0.23960  Biso   1.000  C
  C15      1.0000 0.09610  0.76380  0.20980  Biso   1.000  C
  O11      1.0000 0.58290  0.30390  0.66400  Biso   1.000  O
  O12      1.0000 0.56280  0.21330  0.71930  Biso   1.000  O
  C16      1.0000 0.65400  0.28020  0.75240  Biso   1.000  C
  C17      1.0000 0.69200  0.33260  0.73960  Biso   1.000  C
  C18      1.0000 0.59610  0.26380  0.70980  Biso   1.000  C
  O13      1.0000 0.41710  0.19610  0.66400  Biso   1.000  O
  O14      1.0000 0.43720  0.28670  0.71930  Biso   1.000  O
  C19      1.0000 0.34600  0.21980  0.75240  Biso   1.000  C
  C20      1.0000 0.30800  0.16740  0.73960  Biso   1.000  C
  C21      1.0000 0.40390  0.23620  0.70980  Biso   1.000  C
  O15      1.0000 0.91710  0.69610  0.16400  Biso   1.000  O
  O16      1.0000 0.93720  0.78670  0.21930  Biso   1.000  O
  C22      1.0000 0.84600  0.71980  0.25240  Biso   1.000  C
  C23      1.0000 0.80800  0.66740  0.23960  Biso   1.000  C
  C24      1.0000 0.90390  0.73620  0.20980  Biso   1.000  C
  O17      1.0000 0.33600  0.91710  0.30390  Biso   1.000  O
  O18      1.0000 0.28070  0.93720  0.21330  Biso   1.000  O
  C25      1.0000 0.24760  0.84600  0.28020  Biso   1.000  C
  C26      1.0000 0.26040  0.80800  0.33260  Biso   1.000  C
  C27      1.0000 0.29020  0.90390  0.26380  Biso   1.000  C
  O19      1.0000 0.83600  0.41710  0.80390  Biso   1.000  O
  O20      1.0000 0.78070  0.43720  0.71330  Biso   1.000  O
  C28      1.0000 0.74760  0.34600  0.78020  Biso   1.000  C
  C29      1.0000 0.76040  0.30800  0.83260  Biso   1.000  C
  C30      1.0000 0.79020  0.40390  0.76380  Biso   1.000  C
  O21      1.0000 0.83600  0.58290  0.69610  Biso   1.000  O
  O22      1.0000 0.78070  0.56280  0.78670  Biso   1.000  O
  C31      1.0000 0.74760  0.65400  0.71980  Biso   1.000  C
  C32      1.0000 0.76040  0.69200  0.66740  Biso   1.000  C
  C33      1.0000 0.79020  0.59610  0.73620  Biso   1.000  C
  O23      1.0000 0.33600  0.08290  0.19610  Biso   1.000  O
  O24      1.0000 0.28070  0.06280  0.28670  Biso   1.000  O
  C34      1.0000 0.24760  0.15400  0.21980  Biso   1.000  C
  C35      1.0000 0.26040  0.19200  0.16740  Biso   1.000  C
  C36      1.0000 0.29020  0.09610  0.23620  Biso   1.000  C
  O25      1.0000 0.16400  0.08290  0.80390  Biso   1.000  O
  O26      1.0000 0.21930  0.06280  0.71330  Biso   1.000  O
  C37      1.0000 0.25240  0.15400  0.78020  Biso   1.000  C
  C38      1.0000 0.23960  0.19200  0.83260  Biso   1.000  C
  C39      1.0000 0.20980  0.09610  0.76380  Biso   1.000  C
  O27      1.0000 0.66400  0.58290  0.30390  Biso   1.000  O
  O28      1.0000 0.71930  0.56280  0.21330  Biso   1.000  O
  C40      1.0000 0.75240  0.65400  0.28020  Biso   1.000  C
  C41      1.0000 0.73960  0.69200  0.33260  Biso   1.000  C
  C42      1.0000 0.70980  0.59610  0.26380  Biso   1.000  C
  O29      1.0000 0.66400  0.41710  0.19610  Biso   1.000  O
  O30      1.0000 0.71930  0.43720  0.28670  Biso   1.000  O
  C43      1.0000 0.75240  0.34600  0.21980  Biso   1.000  C
  C44      1.0000 0.73960  0.30800  0.16740  Biso   1.000  C
  C45      1.0000 0.70980  0.40390  0.23620  Biso   1.000  C
  O31      1.0000 0.16400  0.91710  0.69610  Biso   1.000  O
  O32      1.0000 0.21930  0.93720  0.78670  Biso   1.000  O
  C46      1.0000 0.25240  0.84600  0.71980  Biso   1.000  C
  C47      1.0000 0.23960  0.80800  0.66740  Biso   1.000  C
  C48      1.0000 0.20980  0.90390  0.73620  Biso   1.000  C
  O33      1.0000 0.30390  0.33600  0.91710  Biso   1.000  O
  O34      1.0000 0.21330  0.28070  0.93720  Biso   1.000  O
  C49      1.0000 0.28020  0.24760  0.84600  Biso   1.000  C
  C50      1.0000 0.33260  0.26040  0.80800  Biso   1.000  C
  C51      1.0000 0.26380  0.29020  0.90390  Biso   1.000  C
  O35      1.0000 0.80390  0.83600  0.41710  Biso   1.000  O
  O36      1.0000 0.71330  0.78070  0.43720  Biso   1.000  O
  C52      1.0000 0.78020  0.74760  0.34600  Biso   1.000  C
  C53      1.0000 0.83260  0.76040  0.30800  Biso   1.000  C
  C54      1.0000 0.76380  0.79020  0.40390  Biso   1.000  C
  O37      1.0000 0.69610  0.83600  0.58290  Biso   1.000  O
  O38      1.0000 0.78670  0.78070  0.56280  Biso   1.000  O
  C55      1.0000 0.71980  0.74760  0.65400  Biso   1.000  C
  C56      1.0000 0.66740  0.76040  0.69200  Biso   1.000  C
  C57      1.0000 0.73620  0.79020  0.59610  Biso   1.000  C
  O39      1.0000 0.19610  0.33600  0.08290  Biso   1.000  O
  O40      1.0000 0.28670  0.28070  0.06280  Biso   1.000  O
  C58      1.0000 0.21980  0.24760  0.15400  Biso   1.000  C
  C59      1.0000 0.16740  0.26040  0.19200  Biso   1.000  C
  C60      1.0000 0.23620  0.29020  0.09610  Biso   1.000  C
  O41      1.0000 0.80390  0.16400  0.08290  Biso   1.000  O
  O42      1.0000 0.71330  0.21930  0.06280  Biso   1.000  O
  C61      1.0000 0.78020  0.25240  0.15400  Biso   1.000  C
  C62      1.0000 0.83260  0.23960  0.19200  Biso   1.000  C
  C63      1.0000 0.76380  0.20980  0.09610  Biso   1.000  C
  O43      1.0000 0.30390  0.66400  0.58290  Biso   1.000  O
  O44      1.0000 0.21330  0.71930  0.56280  Biso   1.000  O
  C64      1.0000 0.28020  0.75240  0.65400  Biso   1.000  C
  C65      1.0000 0.33260  0.73960  0.69200  Biso   1.000  C
  C66      1.0000 0.26380  0.70980  0.59610  Biso   1.000  C
  O45      1.0000 0.19610  0.66400  0.41710  Biso   1.000  O
  O46      1.0000 0.28670  0.71930  0.43720  Biso   1.000  O
  C67      1.0000 0.21980  0.75240  0.34600  Biso   1.000  C
  C68      1.0000 0.16740  0.73960  0.30800  Biso   1.000  C
  C69      1.0000 0.23620  0.70980  0.40390  Biso   1.000  C
  O47      1.0000 0.69610  0.16400  0.91710  Biso   1.000  O
  O48      1.0000 0.78670  0.21930  0.93720  Biso   1.000  O
  C70      1.0000 0.71980  0.25240  0.84600  Biso   1.000  C
  C71      1.0000 0.66740  0.23960  0.80800  Biso   1.000  C
  C72      1.0000 0.73620  0.20980  0.90390  Biso   1.000  C
  O49      1.0000 0.55390  0.16710  0.58600  Biso   1.000  O
  O50      1.0000 0.46330  0.18720  0.53070  Biso   1.000  O
  C73      1.0000 0.53020  0.09600  0.49760  Biso   1.000  C
  C74      1.0000 0.58260  0.05800  0.51040  Biso   1.000  C
  C75      1.0000 0.51380  0.15390  0.54020  Biso   1.000  C
  O51      1.0000 0.05390  0.66710  0.08600  Biso   1.000  O
  O52      1.0000 0.96330  0.68720  0.03070  Biso   1.000  O
  C76      1.0000 0.03020  0.59600  0.99760  Biso   1.000  C
  C77      1.0000 0.08260  0.55800  0.01040  Biso   1.000  C
  C78      1.0000 0.01380  0.65390  0.04020  Biso   1.000  C
  O53      1.0000 0.94610  0.83290  0.08600  Biso   1.000  O
  O54      1.0000 0.03670  0.81280  0.03070  Biso   1.000  O
  C79      1.0000 0.96980  0.90400  0.99760  Biso   1.000  C
  C80      1.0000 0.91740  0.94200  0.01040  Biso   1.000  C
  C81      1.0000 0.98620  0.84610  0.04020  Biso   1.000  C
  O55      1.0000 0.44610  0.33290  0.58600  Biso   1.000  O
  O56      1.0000 0.53670  0.31280  0.53070  Biso   1.000  O
  C82      1.0000 0.46980  0.40400  0.49760  Biso   1.000  C
  C83      1.0000 0.41740  0.44200  0.51040  Biso   1.000  C
  C84      1.0000 0.48620  0.34610  0.54020  Biso   1.000  C
  O57      1.0000 0.05390  0.33290  0.41400  Biso   1.000  O
  O58      1.0000 0.96330  0.31280  0.46930  Biso   1.000  O
  C85      1.0000 0.03020  0.40400  0.50240  Biso   1.000  C
  C86      1.0000 0.08260  0.44200  0.48960  Biso   1.000  C
  C87      1.0000 0.01380  0.34610  0.45980  Biso   1.000  C
  O59      1.0000 0.55390  0.83290  0.91400  Biso   1.000  O
  O60      1.0000 0.46330  0.81280  0.96930  Biso   1.000  O
  C88      1.0000 0.53020  0.90400  0.00240  Biso   1.000  C
  C89      1.0000 0.58260  0.94200  0.98960  Biso   1.000  C
  C90      1.0000 0.51380  0.84610  0.95980  Biso   1.000  C
  O61      1.0000 0.44610  0.66710  0.91400  Biso   1.000  O
  O62      1.0000 0.53670  0.68720  0.96930  Biso   1.000  O
  C91      1.0000 0.46980  0.59600  0.00240  Biso   1.000  C
  C92      1.0000 0.41740  0.55800  0.98960  Biso   1.000  C
  C93      1.0000 0.48620  0.65390  0.95980  Biso   1.000  C
  O63      1.0000 0.94610  0.16710  0.41400  Biso   1.000  O
  O64      1.0000 0.03670  0.18720  0.46930  Biso   1.000  O
  C94      1.0000 0.96980  0.09600  0.50240  Biso   1.000  C
  C95      1.0000 0.91740  0.05800  0.48960  Biso   1.000  C
  C96      1.0000 0.98620  0.15390  0.45980  Biso   1.000  C
  O65      1.0000 0.16710  0.58600  0.55390  Biso   1.000  O
  O66      1.0000 0.18720  0.53070  0.46330  Biso   1.000  O
  C97      1.0000 0.09600  0.49760  0.53020  Biso   1.000  C
  C98      1.0000 0.05800  0.51040  0.58260  Biso   1.000  C
  C99      1.0000 0.15390  0.54020  0.51380  Biso   1.000  C
  O67      1.0000 0.66710  0.08600  0.05390  Biso   1.000  O
  O68      1.0000 0.68720  0.03070  0.96330  Biso   1.000  O
  C100     1.0000 0.59600  0.99760  0.03020  Biso   1.000  C
  C101     1.0000 0.55800  0.01040  0.08260  Biso   1.000  C
  C102     1.0000 0.65390  0.04020  0.01380  Biso   1.000  C
  O69      1.0000 0.83290  0.08600  0.94610  Biso   1.000  O
  O70      1.0000 0.81280  0.03070  0.03670  Biso   1.000  O
  C103     1.0000 0.90400  0.99760  0.96980  Biso   1.000  C
  C104     1.0000 0.94200  0.01040  0.91740  Biso   1.000  C
  C105     1.0000 0.84610  0.04020  0.98620  Biso   1.000  C
  O71      1.0000 0.33290  0.58600  0.44610  Biso   1.000  O
  O72      1.0000 0.31280  0.53070  0.53670  Biso   1.000  O
  C106     1.0000 0.40400  0.49760  0.46980  Biso   1.000  C
  C107     1.0000 0.44200  0.51040  0.41740  Biso   1.000  C
  C108     1.0000 0.34610  0.54020  0.48620  Biso   1.000  C
  O73      1.0000 0.33290  0.41400  0.05390  Biso   1.000  O
  O74      1.0000 0.31280  0.46930  0.96330  Biso   1.000  O
  C109     1.0000 0.40400  0.50240  0.03020  Biso   1.000  C
  C110     1.0000 0.44200  0.48960  0.08260  Biso   1.000  C
  C111     1.0000 0.34610  0.45980  0.01380  Biso   1.000  C
  O75      1.0000 0.83290  0.91400  0.55390  Biso   1.000  O
  O76      1.0000 0.81280  0.96930  0.46330  Biso   1.000  O
  C112     1.0000 0.90400  0.00240  0.53020  Biso   1.000  C
  C113     1.0000 0.94200  0.98960  0.58260  Biso   1.000  C
  C114     1.0000 0.84610  0.95980  0.51380  Biso   1.000  C
  O77      1.0000 0.66710  0.91400  0.44610  Biso   1.000  O
  O78      1.0000 0.68720  0.96930  0.53670  Biso   1.000  O
  C115     1.0000 0.59600  0.00240  0.46980  Biso   1.000  C
  C116     1.0000 0.55800  0.98960  0.41740  Biso   1.000  C
  C117     1.0000 0.65390  0.95980  0.48620  Biso   1.000  C
  O79      1.0000 0.16710  0.41400  0.94610  Biso   1.000  O
  O80      1.0000 0.18720  0.46930  0.03670  Biso   1.000  O
  C118     1.0000 0.09600  0.50240  0.96980  Biso   1.000  C
  C119     1.0000 0.05800  0.48960  0.91740  Biso   1.000  C
  C120     1.0000 0.15390  0.45980  0.98620  Biso   1.000  C
  O81      1.0000 0.58600  0.55390  0.16710  Biso   1.000  O
  O82      1.0000 0.53070  0.46330  0.18720  Biso   1.000  O
  C121     1.0000 0.49760  0.53020  0.09600  Biso   1.000  C
  C122     1.0000 0.51040  0.58260  0.05800  Biso   1.000  C
  C123     1.0000 0.54020  0.51380  0.15390  Biso   1.000  C
  O83      1.0000 0.08600  0.05390  0.66710  Biso   1.000  O
  O84      1.0000 0.03070  0.96330  0.68720  Biso   1.000  O
  C124     1.0000 0.99760  0.03020  0.59600  Biso   1.000  C
  C125     1.0000 0.01040  0.08260  0.55800  Biso   1.000  C
  C126     1.0000 0.04020  0.01380  0.65390  Biso   1.000  C
  O85      1.0000 0.08600  0.94610  0.83290  Biso   1.000  O
  O86      1.0000 0.03070  0.03670  0.81280  Biso   1.000  O
  C127     1.0000 0.99760  0.96980  0.90400  Biso   1.000  C
  C128     1.0000 0.01040  0.91740  0.94200  Biso   1.000  C
  C129     1.0000 0.04020  0.98620  0.84610  Biso   1.000  C
  O87      1.0000 0.58600  0.44610  0.33290  Biso   1.000  O
  O88      1.0000 0.53070  0.53670  0.31280  Biso   1.000  O
  C130     1.0000 0.49760  0.46980  0.40400  Biso   1.000  C
  C131     1.0000 0.51040  0.41740  0.44200  Biso   1.000  C
  C132     1.0000 0.54020  0.48620  0.34610  Biso   1.000  C
  O89      1.0000 0.41400  0.05390  0.33290  Biso   1.000  O
  O90      1.0000 0.46930  0.96330  0.31280  Biso   1.000  O
  C133     1.0000 0.50240  0.03020  0.40400  Biso   1.000  C
  C134     1.0000 0.48960  0.08260  0.44200  Biso   1.000  C
  C135     1.0000 0.45980  0.01380  0.34610  Biso   1.000  C
  O91      1.0000 0.91400  0.55390  0.83290  Biso   1.000  O
  O92      1.0000 0.96930  0.46330  0.81280  Biso   1.000  O
  C136     1.0000 0.00240  0.53020  0.90400  Biso   1.000  C
  C137     1.0000 0.98960  0.58260  0.94200  Biso   1.000  C
  C138     1.0000 0.95980  0.51380  0.84610  Biso   1.000  C
  O93      1.0000 0.91400  0.44610  0.66710  Biso   1.000  O
  O94      1.0000 0.96930  0.53670  0.68720  Biso   1.000  O
  C139     1.0000 0.00240  0.46980  0.59600  Biso   1.000  C
  C140     1.0000 0.98960  0.41740  0.55800  Biso   1.000  C
  C141     1.0000 0.95980  0.48620  0.65390  Biso   1.000  C
  O95      1.0000 0.41400  0.94610  0.16710  Biso   1.000  O
  O96      1.0000 0.46930  0.03670  0.18720  Biso   1.000  O
  C142     1.0000 0.50240  0.96980  0.09600  Biso   1.000  C
  C143     1.0000 0.48960  0.91740  0.05800  Biso   1.000  C
  C144     1.0000 0.45980  0.98620  0.15390  Biso   1.000  C
  In1      1.0000 0.00000  0.25000  0.37500  Biso   1.000  In
  In2      1.0000 0.50000  0.75000  0.87500  Biso   1.000  In
  In3      1.0000 0.00000  0.75000  0.12500  Biso   1.000  In
  In4      1.0000 0.50000  0.25000  0.62500  Biso   1.000  In
  In5      1.0000 0.37500  0.00000  0.25000  Biso   1.000  In
  In6      1.0000 0.87500  0.50000  0.75000  Biso   1.000  In
  In7      1.0000 0.12500  0.00000  0.75000  Biso   1.000  In
  In8      1.0000 0.62500  0.50000  0.25000  Biso   1.000  In
  In9      1.0000 0.25000  0.37500  0.00000  Biso   1.000  In
  In10     1.0000 0.75000  0.87500  0.50000  Biso   1.000  In
  In11     1.0000 0.75000  0.12500  0.00000  Biso   1.000  In
  In12     1.0000 0.25000  0.62500  0.50000  Biso   1.000  In
