data_image0
_cell_length_a       12.5247
_cell_length_b       32.2184
_cell_length_c       7.6101
_cell_angle_alpha    90
_cell_angle_beta     98.856
_cell_angle_gamma    90

_symmetry_space_group_name_H-M    "P 1"
_symmetry_int_tables_number       1

loop_
  _symmetry_equiv_pos_as_xyz
  'x, y, z'

loop_
  _atom_site_label
  _atom_site_occupancy
  _atom_site_fract_x
  _atom_site_fract_y
  _atom_site_fract_z
  _atom_site_thermal_displace_type
  _atom_site_B_iso_or_equiv
  _atom_site_type_symbol
  Tb1      1.0000 0.97132  0.61501  0.18995  Biso   1.000  Tb
  O1       1.0000 0.13160  0.59160  0.09690  Biso   1.000  O
  O2       1.0000 0.81470  0.58390  0.27600  Biso   1.000  O
  Cd1      1.0000 0.47213  0.55056  0.18983  Biso   1.000  Cd
  N1       1.0000 0.54840  0.60210  0.03780  Biso   1.000  N
  Cd2      1.0000 0.07574  0.76239  0.44372  Biso   1.000  Cd
  N2       1.0000 0.57530  0.66890  0.98300  Biso   1.000  N
  Cl1      1.0000 0.97250  0.73319  0.66430  Biso   1.000  Cl
  C1       1.0000 0.29630  0.61950  0.25370  Biso   1.000  C
  C2       1.0000 0.65000  0.61190  0.11570  Biso   1.000  C
  C3       1.0000 0.27350  0.65970  0.29690  Biso   1.000  C
  C4       1.0000 0.71010  0.61680  0.66670  Biso   1.000  C
  H1       1.0000 0.74590  0.59320  0.71520  Biso   1.000  H
  C5       1.0000 0.66720  0.65360  0.08140  Biso   1.000  C
  C6       1.0000 0.44330  0.64440  0.40050  Biso   1.000  C
  C7       1.0000 0.24320  0.60810  0.68420  Biso   1.000  C
  H2       1.0000 0.21230  0.58560  0.61890  Biso   1.000  H
  C8       1.0000 0.50680  0.63710  0.96050  Biso   1.000  C
  C9       1.0000 0.75820  0.68300  0.13900  Biso   1.000  C
  C10      1.0000 0.71480  0.58080  0.22780  Biso   1.000  C
  N3       1.0000 0.76320  0.65280  0.68020  Biso   1.000  N
  N4       1.0000 0.18350  0.64190  0.69010  Biso   1.000  N
  C11      1.0000 0.23030  0.58600  0.14470  Biso   1.000  C
  C12      1.0000 0.71350  0.68650  0.60150  Biso   1.000  C
  H3       1.0000 0.74990  0.71170  0.61340  Biso   1.000  H
  C13      1.0000 0.39750  0.63940  0.86560  Biso   1.000  C
  C14      1.0000 0.55510  0.64820  0.49530  Biso   1.000  C
  C15      1.0000 0.22750  0.67460  0.78060  Biso   1.000  C
  H4       1.0000 0.18540  0.69820  0.78800  Biso   1.000  H
  O3       1.0000 0.66150  0.54910  0.27280  Biso   1.000  O
  C16      1.0000 0.60960  0.68540  0.50270  Biso   1.000  C
  H5       1.0000 0.57870  0.70890  0.44440  Biso   1.000  H
  C17      1.0000 0.35010  0.60430  0.77050  Biso   1.000  C
  H6       1.0000 0.38850  0.57970  0.76560  Biso   1.000  H
  O4       1.0000 0.73940  0.72130  0.12600  Biso   1.000  O
  C18      1.0000 0.33320  0.67480  0.86370  Biso   1.000  C
  H7       1.0000 0.36230  0.69890  0.91930  Biso   1.000  H
  C19      1.0000 0.60610  0.61300  0.58530  Biso   1.000  C
  H8       1.0000 0.56910  0.58800  0.58820  Biso   1.000  H
  O5       1.0000 0.90310  0.56250  0.98290  Biso   1.000  O
  H9       1.0000 0.88390  0.53630  0.02090  Biso   1.000  H
  H10      1.0000 0.83720  0.57230  0.00510  Biso   1.000  H
  N5       1.0000 0.36860  0.67420  0.38970  Biso   1.000  N
  H11      1.0000 0.37860  0.69870  0.43400  Biso   1.000  H
  N6       1.0000 0.40260  0.61030  0.31750  Biso   1.000  N
  C20      1.0000 0.17560  0.68690  0.27270  Biso   1.000  C
  Cl2      1.0000 0.45780  0.48724  0.98880  Biso   1.000  Cl
  O6       1.0000 0.19560  0.72330  0.33260  Biso   1.000  O
  O7       1.0000 0.85120  0.66880  0.19910  Biso   1.000  O
  O8       1.0000 0.08680  0.67400  0.20480  Biso   1.000  O
  O9       1.0000 0.28180  0.55410  0.10820  Biso   1.000  O
  Tb2      1.0000 0.47132  0.11501  0.18995  Biso   1.000  Tb
  O10      1.0000 0.63160  0.09160  0.09690  Biso   1.000  O
  O11      1.0000 0.31470  0.08390  0.27600  Biso   1.000  O
  Cd3      1.0000 0.97213  0.05056  0.18983  Biso   1.000  Cd
  N7       1.0000 0.04840  0.10210  0.03780  Biso   1.000  N
  Cd4      1.0000 0.57574  0.26239  0.44372  Biso   1.000  Cd
  N8       1.0000 0.07530  0.16890  0.98300  Biso   1.000  N
  Cl3      1.0000 0.47250  0.23319  0.66430  Biso   1.000  Cl
  C21      1.0000 0.79630  0.11950  0.25370  Biso   1.000  C
  C22      1.0000 0.15000  0.11190  0.11570  Biso   1.000  C
  C23      1.0000 0.77350  0.15970  0.29690  Biso   1.000  C
  C24      1.0000 0.21010  0.11680  0.66670  Biso   1.000  C
  H12      1.0000 0.24590  0.09320  0.71520  Biso   1.000  H
  C25      1.0000 0.16720  0.15360  0.08140  Biso   1.000  C
  C26      1.0000 0.94330  0.14440  0.40050  Biso   1.000  C
  C27      1.0000 0.74320  0.10810  0.68420  Biso   1.000  C
  H13      1.0000 0.71230  0.08560  0.61890  Biso   1.000  H
  C28      1.0000 0.00680  0.13710  0.96050  Biso   1.000  C
  C29      1.0000 0.25820  0.18300  0.13900  Biso   1.000  C
  C30      1.0000 0.21480  0.08080  0.22780  Biso   1.000  C
  N9       1.0000 0.26320  0.15280  0.68020  Biso   1.000  N
  N10      1.0000 0.68350  0.14190  0.69010  Biso   1.000  N
  C31      1.0000 0.73030  0.08600  0.14470  Biso   1.000  C
  C32      1.0000 0.21350  0.18650  0.60150  Biso   1.000  C
  H14      1.0000 0.24990  0.21170  0.61340  Biso   1.000  H
  C33      1.0000 0.89750  0.13940  0.86560  Biso   1.000  C
  C34      1.0000 0.05510  0.14820  0.49530  Biso   1.000  C
  C35      1.0000 0.72750  0.17460  0.78060  Biso   1.000  C
  H15      1.0000 0.68540  0.19820  0.78800  Biso   1.000  H
  O12      1.0000 0.16150  0.04910  0.27280  Biso   1.000  O
  C36      1.0000 0.10960  0.18540  0.50270  Biso   1.000  C
  H16      1.0000 0.07870  0.20890  0.44440  Biso   1.000  H
  C37      1.0000 0.85010  0.10430  0.77050  Biso   1.000  C
  H17      1.0000 0.88850  0.07970  0.76560  Biso   1.000  H
  O13      1.0000 0.23940  0.22130  0.12600  Biso   1.000  O
  C38      1.0000 0.83320  0.17480  0.86370  Biso   1.000  C
  H18      1.0000 0.86230  0.19890  0.91930  Biso   1.000  H
  C39      1.0000 0.10610  0.11300  0.58530  Biso   1.000  C
  H19      1.0000 0.06910  0.08800  0.58820  Biso   1.000  H
  O14      1.0000 0.40310  0.06250  0.98290  Biso   1.000  O
  H20      1.0000 0.38390  0.03630  0.02090  Biso   1.000  H
  H21      1.0000 0.33720  0.07230  0.00510  Biso   1.000  H
  N11      1.0000 0.86860  0.17420  0.38970  Biso   1.000  N
  H22      1.0000 0.87860  0.19870  0.43400  Biso   1.000  H
  N12      1.0000 0.90260  0.11030  0.31750  Biso   1.000  N
  C40      1.0000 0.67560  0.18690  0.27270  Biso   1.000  C
  Cl4      1.0000 0.95780  0.98724  0.98880  Biso   1.000  Cl
  O15      1.0000 0.69560  0.22330  0.33260  Biso   1.000  O
  O16      1.0000 0.35120  0.16880  0.19910  Biso   1.000  O
  O17      1.0000 0.58680  0.17400  0.20480  Biso   1.000  O
  O18      1.0000 0.78180  0.05410  0.10820  Biso   1.000  O
  Tb3      1.0000 0.97132  0.38499  0.68995  Biso   1.000  Tb
  O19      1.0000 0.13160  0.40840  0.59690  Biso   1.000  O
  O20      1.0000 0.81470  0.41610  0.77600  Biso   1.000  O
  Cd5      1.0000 0.47213  0.44944  0.68983  Biso   1.000  Cd
  N13      1.0000 0.54840  0.39790  0.53780  Biso   1.000  N
  Cd6      1.0000 0.07574  0.23761  0.94372  Biso   1.000  Cd
  N14      1.0000 0.57530  0.33110  0.48300  Biso   1.000  N
  Cl5      1.0000 0.97250  0.26681  0.16430  Biso   1.000  Cl
  C41      1.0000 0.29630  0.38050  0.75370  Biso   1.000  C
  C42      1.0000 0.65000  0.38810  0.61570  Biso   1.000  C
  C43      1.0000 0.27350  0.34030  0.79690  Biso   1.000  C
  C44      1.0000 0.71010  0.38320  0.16670  Biso   1.000  C
  H23      1.0000 0.74590  0.40680  0.21520  Biso   1.000  H
  C45      1.0000 0.66720  0.34640  0.58140  Biso   1.000  C
  C46      1.0000 0.44330  0.35560  0.90050  Biso   1.000  C
  C47      1.0000 0.24320  0.39190  0.18420  Biso   1.000  C
  H24      1.0000 0.21230  0.41440  0.11890  Biso   1.000  H
  C48      1.0000 0.50680  0.36290  0.46050  Biso   1.000  C
  C49      1.0000 0.75820  0.31700  0.63900  Biso   1.000  C
  C50      1.0000 0.71480  0.41920  0.72780  Biso   1.000  C
  N15      1.0000 0.76320  0.34720  0.18020  Biso   1.000  N
  N16      1.0000 0.18350  0.35810  0.19010  Biso   1.000  N
  C51      1.0000 0.23030  0.41400  0.64470  Biso   1.000  C
  C52      1.0000 0.71350  0.31350  0.10150  Biso   1.000  C
  H25      1.0000 0.74990  0.28830  0.11340  Biso   1.000  H
  C53      1.0000 0.39750  0.36060  0.36560  Biso   1.000  C
  C54      1.0000 0.55510  0.35180  0.99530  Biso   1.000  C
  C55      1.0000 0.22750  0.32540  0.28060  Biso   1.000  C
  H26      1.0000 0.18540  0.30180  0.28800  Biso   1.000  H
  O21      1.0000 0.66150  0.45090  0.77280  Biso   1.000  O
  C56      1.0000 0.60960  0.31460  0.00270  Biso   1.000  C
  H27      1.0000 0.57870  0.29110  0.94440  Biso   1.000  H
  C57      1.0000 0.35010  0.39570  0.27050  Biso   1.000  C
  H28      1.0000 0.38850  0.42030  0.26560  Biso   1.000  H
  O22      1.0000 0.73940  0.27870  0.62600  Biso   1.000  O
  C58      1.0000 0.33320  0.32520  0.36370  Biso   1.000  C
  H29      1.0000 0.36230  0.30110  0.41930  Biso   1.000  H
  C59      1.0000 0.60610  0.38700  0.08530  Biso   1.000  C
  H30      1.0000 0.56910  0.41200  0.08820  Biso   1.000  H
  O23      1.0000 0.90310  0.43750  0.48290  Biso   1.000  O
  H31      1.0000 0.88390  0.46370  0.52090  Biso   1.000  H
  H32      1.0000 0.83720  0.42770  0.50510  Biso   1.000  H
  N17      1.0000 0.36860  0.32580  0.88970  Biso   1.000  N
  H33      1.0000 0.37860  0.30130  0.93400  Biso   1.000  H
  N18      1.0000 0.40260  0.38970  0.81750  Biso   1.000  N
  C60      1.0000 0.17560  0.31310  0.77270  Biso   1.000  C
  Cl6      1.0000 0.45780  0.51276  0.48880  Biso   1.000  Cl
  O24      1.0000 0.19560  0.27670  0.83260  Biso   1.000  O
  O25      1.0000 0.85120  0.33120  0.69910  Biso   1.000  O
  O26      1.0000 0.08680  0.32600  0.70480  Biso   1.000  O
  O27      1.0000 0.28180  0.44590  0.60820  Biso   1.000  O
  Tb4      1.0000 0.47132  0.88499  0.68995  Biso   1.000  Tb
  O28      1.0000 0.63160  0.90840  0.59690  Biso   1.000  O
  O29      1.0000 0.31470  0.91610  0.77600  Biso   1.000  O
  Cd7      1.0000 0.97213  0.94944  0.68983  Biso   1.000  Cd
  N19      1.0000 0.04840  0.89790  0.53780  Biso   1.000  N
  Cd8      1.0000 0.57574  0.73761  0.94372  Biso   1.000  Cd
  N20      1.0000 0.07530  0.83110  0.48300  Biso   1.000  N
  Cl7      1.0000 0.47250  0.76681  0.16430  Biso   1.000  Cl
  C61      1.0000 0.79630  0.88050  0.75370  Biso   1.000  C
  C62      1.0000 0.15000  0.88810  0.61570  Biso   1.000  C
  C63      1.0000 0.77350  0.84030  0.79690  Biso   1.000  C
  C64      1.0000 0.21010  0.88320  0.16670  Biso   1.000  C
  H34      1.0000 0.24590  0.90680  0.21520  Biso   1.000  H
  C65      1.0000 0.16720  0.84640  0.58140  Biso   1.000  C
  C66      1.0000 0.94330  0.85560  0.90050  Biso   1.000  C
  C67      1.0000 0.74320  0.89190  0.18420  Biso   1.000  C
  H35      1.0000 0.71230  0.91440  0.11890  Biso   1.000  H
  C68      1.0000 0.00680  0.86290  0.46050  Biso   1.000  C
  C69      1.0000 0.25820  0.81700  0.63900  Biso   1.000  C
  C70      1.0000 0.21480  0.91920  0.72780  Biso   1.000  C
  N21      1.0000 0.26320  0.84720  0.18020  Biso   1.000  N
  N22      1.0000 0.68350  0.85810  0.19010  Biso   1.000  N
  C71      1.0000 0.73030  0.91400  0.64470  Biso   1.000  C
  C72      1.0000 0.21350  0.81350  0.10150  Biso   1.000  C
  H36      1.0000 0.24990  0.78830  0.11340  Biso   1.000  H
  C73      1.0000 0.89750  0.86060  0.36560  Biso   1.000  C
  C74      1.0000 0.05510  0.85180  0.99530  Biso   1.000  C
  C75      1.0000 0.72750  0.82540  0.28060  Biso   1.000  C
  H37      1.0000 0.68540  0.80180  0.28800  Biso   1.000  H
  O30      1.0000 0.16150  0.95090  0.77280  Biso   1.000  O
  C76      1.0000 0.10960  0.81460  0.00270  Biso   1.000  C
  H38      1.0000 0.07870  0.79110  0.94440  Biso   1.000  H
  C77      1.0000 0.85010  0.89570  0.27050  Biso   1.000  C
  H39      1.0000 0.88850  0.92030  0.26560  Biso   1.000  H
  O31      1.0000 0.23940  0.77870  0.62600  Biso   1.000  O
  C78      1.0000 0.83320  0.82520  0.36370  Biso   1.000  C
  H40      1.0000 0.86230  0.80110  0.41930  Biso   1.000  H
  C79      1.0000 0.10610  0.88700  0.08530  Biso   1.000  C
  H41      1.0000 0.06910  0.91200  0.08820  Biso   1.000  H
  O32      1.0000 0.40310  0.93750  0.48290  Biso   1.000  O
  H42      1.0000 0.38390  0.96370  0.52090  Biso   1.000  H
  H43      1.0000 0.33720  0.92770  0.50510  Biso   1.000  H
  N23      1.0000 0.86860  0.82580  0.88970  Biso   1.000  N
  H44      1.0000 0.87860  0.80130  0.93400  Biso   1.000  H
  N24      1.0000 0.90260  0.88970  0.81750  Biso   1.000  N
  C80      1.0000 0.67560  0.81310  0.77270  Biso   1.000  C
  Cl8      1.0000 0.95780  0.01276  0.48880  Biso   1.000  Cl
  O33      1.0000 0.69560  0.77670  0.83260  Biso   1.000  O
  O34      1.0000 0.35120  0.83120  0.69910  Biso   1.000  O
  O35      1.0000 0.58680  0.82600  0.70480  Biso   1.000  O
  O36      1.0000 0.78180  0.94590  0.60820  Biso   1.000  O
