data_image0
_cell_length_a       36.768
_cell_length_b       21.228
_cell_length_c       19.238
_cell_angle_alpha    90
_cell_angle_beta     90
_cell_angle_gamma    90

_symmetry_space_group_name_H-M    "P 1"
_symmetry_int_tables_number       1

loop_
  _symmetry_equiv_pos_as_xyz
  'x, y, z'

loop_
  _atom_site_label
  _atom_site_occupancy
  _atom_site_fract_x
  _atom_site_fract_y
  _atom_site_fract_z
  _atom_site_thermal_displace_type
  _atom_site_B_iso_or_equiv
  _atom_site_type_symbol
  C1       1.0000 0.97283  0.14770  0.33000  Biso   1.000  C
  C2       1.0000 0.00176  0.18490  0.34870  Biso   1.000  C
  H1       1.0000 0.99910  0.22850  0.34980  Biso   1.000  H
  C3       1.0000 0.03490  0.15810  0.36570  Biso   1.000  C
  H2       1.0000 0.05410  0.18380  0.37910  Biso   1.000  H
  C4       1.0000 0.03966  0.09494  0.36310  Biso   1.000  C
  C5       1.0000 0.01115  0.05750  0.34330  Biso   1.000  C
  H3       1.0000 0.01430  0.01410  0.34040  Biso   1.000  H
  C6       1.0000 0.97749  0.08390  0.32740  Biso   1.000  C
  H4       1.0000 0.95810  0.05810  0.31510  Biso   1.000  H
  C7       1.0000 0.07615  0.06444  0.37490  Biso   1.000  C
  C8       1.0000 0.93820  0.18110  0.30900  Biso   1.000  C
  C9       1.0000 0.13456  0.08122  0.43647  Biso   1.000  C
  C10      1.0000 0.15635  0.13029  0.46105  Biso   1.000  C
  H5       1.0000 0.14700  0.17090  0.46340  Biso   1.000  H
  C11      1.0000 0.19158  0.11914  0.48183  Biso   1.000  C
  C12      1.0000 0.20571  0.05839  0.47934  Biso   1.000  C
  H6       1.0000 0.22940  0.05050  0.49390  Biso   1.000  H
  C13      1.0000 0.18413  0.00976  0.45503  Biso   1.000  C
  C14      1.0000 0.14860  0.02057  0.43289  Biso   1.000  C
  H7       1.0000 0.13450  0.98760  0.41590  Biso   1.000  H
  C15      1.0000 0.21466  0.17326  0.50710  Biso   1.000  C
  C16      1.0000 0.19846  0.94362  0.45318  Biso   1.000  C
  C17      1.0000 0.87404  0.17762  0.29300  Biso   1.000  C
  C18      1.0000 0.84918  0.17841  0.34685  Biso   1.000  C
  H8       1.0000 0.85430  0.15810  0.38850  Biso   1.000  H
  C19      1.0000 0.81659  0.20984  0.33799  Biso   1.000  C
  C20      1.0000 0.80936  0.24050  0.27565  Biso   1.000  C
  H9       1.0000 0.78770  0.26260  0.27030  Biso   1.000  H
  C21      1.0000 0.83369  0.23859  0.22226  Biso   1.000  C
  C22      1.0000 0.86661  0.20720  0.23101  Biso   1.000  C
  H10      1.0000 0.88350  0.20610  0.19510  Biso   1.000  H
  C23      1.0000 0.82560  0.27150  0.15460  Biso   1.000  C
  C24      1.0000 0.79057  0.21372  0.39700  Biso   1.000  C
  C25      1.0000 0.46545  0.85240  0.72130  Biso   1.000  C
  C26      1.0000 0.48261  0.79940  0.73580  Biso   1.000  C
  H11      1.0000 0.47120  0.76120  0.72690  Biso   1.000  H
  C27      1.0000 0.48204  0.90520  0.73630  Biso   1.000  C
  H12      1.0000 0.47020  0.94330  0.72890  Biso   1.000  H
  C28      1.0000 0.42739  0.84800  0.69150  Biso   1.000  C
  C29      1.0000 0.37969  0.90765  0.63040  Biso   1.000  C
  C30      1.0000 0.35896  0.85714  0.60830  Biso   1.000  C
  H13      1.0000 0.36640  0.81620  0.61780  Biso   1.000  H
  C31      1.0000 0.32686  0.86785  0.57192  Biso   1.000  C
  C32      1.0000 0.31531  0.92829  0.55722  Biso   1.000  C
  H14      1.0000 0.29390  0.93480  0.53260  Biso   1.000  H
  C33      1.0000 0.33598  0.97940  0.57954  Biso   1.000  C
  C34      1.0000 0.36811  0.96881  0.61670  Biso   1.000  C
  H15      1.0000 0.38180  0.00280  0.63230  Biso   1.000  H
  C35      1.0000 0.30490  0.81126  0.54944  Biso   1.000  C
  C36      1.0000 0.32500  0.04575  0.56363  Biso   1.000  C
  N1       1.0000 0.90822  0.14741  0.30486  Biso   1.000  N
  H16      1.0000 0.90930  0.10520  0.30930  Biso   1.000  H
  N2       1.0000 0.09845  0.09652  0.41728  Biso   1.000  N
  H17      1.0000 0.08930  0.13200  0.43590  Biso   1.000  H
  N3       1.0000 0.41341  0.90019  0.66550  Biso   1.000  N
  H18      1.0000 0.42690  0.93530  0.67060  Biso   1.000  H
  O1       1.0000 0.20185  0.22720  0.50300  Biso   1.000  O
  O2       1.0000 0.24508  0.16067  0.53117  Biso   1.000  O
  O3       1.0000 0.22876  0.93293  0.47955  Biso   1.000  O
  O4       1.0000 0.17981  0.90077  0.42546  Biso   1.000  O
  O5       1.0000 0.84890  0.27338  0.10844  Biso   1.000  O
  O6       1.0000 0.79473  0.29573  0.14629  Biso   1.000  O
  O7       1.0000 0.76283  0.24686  0.38653  Biso   1.000  O
  O8       1.0000 0.79810  0.18412  0.45114  Biso   1.000  O
  O9       1.0000 0.93914  0.23750  0.29670  Biso   1.000  O
  O10      1.0000 0.08360  0.01519  0.34660  Biso   1.000  O
  O11      1.0000 0.30060  0.05573  0.52049  Biso   1.000  O
  O12      1.0000 0.34076  0.08984  0.59267  Biso   1.000  O
  O13      1.0000 0.27927  0.82043  0.50788  Biso   1.000  O
  O14      1.0000 0.31369  0.75900  0.57361  Biso   1.000  O
  O15      1.0000 0.41175  0.79821  0.69250  Biso   1.000  O
  Tb1      1.0000 0.22853  0.82431  0.43886  Biso   1.000  Tb
  Tb2      1.0000 0.19320  0.32968  0.46965  Biso   1.000  Tb
  C37      1.0000 0.47283  0.64770  0.33000  Biso   1.000  C
  C38      1.0000 0.50176  0.68490  0.34870  Biso   1.000  C
  H19      1.0000 0.49910  0.72850  0.34980  Biso   1.000  H
  C39      1.0000 0.53490  0.65810  0.36570  Biso   1.000  C
  H20      1.0000 0.55410  0.68380  0.37910  Biso   1.000  H
  C40      1.0000 0.53966  0.59494  0.36310  Biso   1.000  C
  C41      1.0000 0.51115  0.55750  0.34330  Biso   1.000  C
  H21      1.0000 0.51430  0.51410  0.34040  Biso   1.000  H
  C42      1.0000 0.47749  0.58390  0.32740  Biso   1.000  C
  H22      1.0000 0.45810  0.55810  0.31510  Biso   1.000  H
  C43      1.0000 0.57615  0.56444  0.37490  Biso   1.000  C
  C44      1.0000 0.43820  0.68110  0.30900  Biso   1.000  C
  C45      1.0000 0.63456  0.58122  0.43647  Biso   1.000  C
  C46      1.0000 0.65635  0.63029  0.46105  Biso   1.000  C
  H23      1.0000 0.64700  0.67090  0.46340  Biso   1.000  H
  C47      1.0000 0.69158  0.61914  0.48183  Biso   1.000  C
  C48      1.0000 0.70571  0.55839  0.47934  Biso   1.000  C
  H24      1.0000 0.72940  0.55050  0.49390  Biso   1.000  H
  C49      1.0000 0.68413  0.50976  0.45503  Biso   1.000  C
  C50      1.0000 0.64860  0.52057  0.43289  Biso   1.000  C
  H25      1.0000 0.63450  0.48760  0.41590  Biso   1.000  H
  C51      1.0000 0.71466  0.67326  0.50710  Biso   1.000  C
  C52      1.0000 0.69846  0.44362  0.45318  Biso   1.000  C
  C53      1.0000 0.37404  0.67762  0.29300  Biso   1.000  C
  C54      1.0000 0.34918  0.67841  0.34685  Biso   1.000  C
  H26      1.0000 0.35430  0.65810  0.38850  Biso   1.000  H
  C55      1.0000 0.31659  0.70984  0.33799  Biso   1.000  C
  C56      1.0000 0.30936  0.74050  0.27565  Biso   1.000  C
  H27      1.0000 0.28770  0.76260  0.27030  Biso   1.000  H
  C57      1.0000 0.33369  0.73859  0.22226  Biso   1.000  C
  C58      1.0000 0.36661  0.70720  0.23101  Biso   1.000  C
  H28      1.0000 0.38350  0.70610  0.19510  Biso   1.000  H
  C59      1.0000 0.32560  0.77150  0.15460  Biso   1.000  C
  C60      1.0000 0.29057  0.71372  0.39700  Biso   1.000  C
  C61      1.0000 0.96545  0.35240  0.72130  Biso   1.000  C
  C62      1.0000 0.98261  0.29940  0.73580  Biso   1.000  C
  H29      1.0000 0.97120  0.26120  0.72690  Biso   1.000  H
  C63      1.0000 0.98204  0.40520  0.73630  Biso   1.000  C
  H30      1.0000 0.97020  0.44330  0.72890  Biso   1.000  H
  C64      1.0000 0.92739  0.34800  0.69150  Biso   1.000  C
  C65      1.0000 0.87969  0.40765  0.63040  Biso   1.000  C
  C66      1.0000 0.85896  0.35714  0.60830  Biso   1.000  C
  H31      1.0000 0.86640  0.31620  0.61780  Biso   1.000  H
  C67      1.0000 0.82686  0.36785  0.57192  Biso   1.000  C
  C68      1.0000 0.81531  0.42829  0.55722  Biso   1.000  C
  H32      1.0000 0.79390  0.43480  0.53260  Biso   1.000  H
  C69      1.0000 0.83598  0.47940  0.57954  Biso   1.000  C
  C70      1.0000 0.86811  0.46881  0.61670  Biso   1.000  C
  H33      1.0000 0.88180  0.50280  0.63230  Biso   1.000  H
  C71      1.0000 0.80490  0.31126  0.54944  Biso   1.000  C
  C72      1.0000 0.82500  0.54575  0.56363  Biso   1.000  C
  N4       1.0000 0.40822  0.64741  0.30486  Biso   1.000  N
  H34      1.0000 0.40930  0.60520  0.30930  Biso   1.000  H
  N5       1.0000 0.59845  0.59652  0.41728  Biso   1.000  N
  H35      1.0000 0.58930  0.63200  0.43590  Biso   1.000  H
  N6       1.0000 0.91341  0.40019  0.66550  Biso   1.000  N
  H36      1.0000 0.92690  0.43530  0.67060  Biso   1.000  H
  O16      1.0000 0.70185  0.72720  0.50300  Biso   1.000  O
  O17      1.0000 0.74508  0.66067  0.53117  Biso   1.000  O
  O18      1.0000 0.72876  0.43293  0.47955  Biso   1.000  O
  O19      1.0000 0.67981  0.40077  0.42546  Biso   1.000  O
  O20      1.0000 0.34890  0.77338  0.10844  Biso   1.000  O
  O21      1.0000 0.29473  0.79573  0.14629  Biso   1.000  O
  O22      1.0000 0.26283  0.74686  0.38653  Biso   1.000  O
  O23      1.0000 0.29810  0.68412  0.45114  Biso   1.000  O
  O24      1.0000 0.43914  0.73750  0.29670  Biso   1.000  O
  O25      1.0000 0.58360  0.51519  0.34660  Biso   1.000  O
  O26      1.0000 0.80060  0.55573  0.52049  Biso   1.000  O
  O27      1.0000 0.84076  0.58984  0.59267  Biso   1.000  O
  O28      1.0000 0.77927  0.32043  0.50788  Biso   1.000  O
  O29      1.0000 0.81369  0.25900  0.57361  Biso   1.000  O
  O30      1.0000 0.91175  0.29821  0.69250  Biso   1.000  O
  Tb3      1.0000 0.72853  0.32431  0.43886  Biso   1.000  Tb
  Tb4      1.0000 0.69320  0.82968  0.46965  Biso   1.000  Tb
  C73      1.0000 0.02717  0.14770  0.17000  Biso   1.000  C
  C74      1.0000 0.99824  0.18490  0.15130  Biso   1.000  C
  H37      1.0000 0.00090  0.22850  0.15020  Biso   1.000  H
  C75      1.0000 0.96510  0.15810  0.13430  Biso   1.000  C
  H38      1.0000 0.94590  0.18380  0.12090  Biso   1.000  H
  C76      1.0000 0.96034  0.09494  0.13690  Biso   1.000  C
  C77      1.0000 0.98885  0.05750  0.15670  Biso   1.000  C
  H39      1.0000 0.98570  0.01410  0.15960  Biso   1.000  H
  C78      1.0000 0.02251  0.08390  0.17260  Biso   1.000  C
  H40      1.0000 0.04190  0.05810  0.18490  Biso   1.000  H
  C79      1.0000 0.92385  0.06444  0.12510  Biso   1.000  C
  C80      1.0000 0.06180  0.18110  0.19100  Biso   1.000  C
  C81      1.0000 0.86544  0.08122  0.06353  Biso   1.000  C
  C82      1.0000 0.84365  0.13029  0.03895  Biso   1.000  C
  H41      1.0000 0.85300  0.17090  0.03660  Biso   1.000  H
  C83      1.0000 0.80842  0.11914  0.01817  Biso   1.000  C
  C84      1.0000 0.79429  0.05839  0.02066  Biso   1.000  C
  H42      1.0000 0.77060  0.05050  0.00610  Biso   1.000  H
  C85      1.0000 0.81587  0.00976  0.04497  Biso   1.000  C
  C86      1.0000 0.85140  0.02057  0.06711  Biso   1.000  C
  H43      1.0000 0.86550  0.98760  0.08410  Biso   1.000  H
  C87      1.0000 0.78534  0.17326  0.99290  Biso   1.000  C
  C88      1.0000 0.80154  0.94362  0.04682  Biso   1.000  C
  C89      1.0000 0.12596  0.17762  0.20700  Biso   1.000  C
  C90      1.0000 0.15082  0.17841  0.15315  Biso   1.000  C
  H44      1.0000 0.14570  0.15810  0.11150  Biso   1.000  H
  C91      1.0000 0.18341  0.20984  0.16201  Biso   1.000  C
  C92      1.0000 0.19064  0.24050  0.22435  Biso   1.000  C
  H45      1.0000 0.21230  0.26260  0.22970  Biso   1.000  H
  C93      1.0000 0.16631  0.23859  0.27774  Biso   1.000  C
  C94      1.0000 0.13339  0.20720  0.26899  Biso   1.000  C
  H46      1.0000 0.11650  0.20610  0.30490  Biso   1.000  H
  C95      1.0000 0.17440  0.27150  0.34540  Biso   1.000  C
  C96      1.0000 0.20943  0.21372  0.10300  Biso   1.000  C
  C97      1.0000 0.53455  0.85240  0.77870  Biso   1.000  C
  C98      1.0000 0.51739  0.79940  0.76420  Biso   1.000  C
  H47      1.0000 0.52880  0.76120  0.77310  Biso   1.000  H
  C99      1.0000 0.51796  0.90520  0.76370  Biso   1.000  C
  H48      1.0000 0.52980  0.94330  0.77110  Biso   1.000  H
  C100     1.0000 0.57261  0.84800  0.80850  Biso   1.000  C
  C101     1.0000 0.62031  0.90765  0.86960  Biso   1.000  C
  C102     1.0000 0.64104  0.85714  0.89170  Biso   1.000  C
  H49      1.0000 0.63360  0.81620  0.88220  Biso   1.000  H
  C103     1.0000 0.67314  0.86785  0.92808  Biso   1.000  C
  C104     1.0000 0.68469  0.92829  0.94278  Biso   1.000  C
  H50      1.0000 0.70610  0.93480  0.96740  Biso   1.000  H
  C105     1.0000 0.66402  0.97940  0.92046  Biso   1.000  C
  C106     1.0000 0.63189  0.96881  0.88330  Biso   1.000  C
  H51      1.0000 0.61820  0.00280  0.86770  Biso   1.000  H
  C107     1.0000 0.69510  0.81126  0.95056  Biso   1.000  C
  C108     1.0000 0.67500  0.04575  0.93637  Biso   1.000  C
  N7       1.0000 0.09178  0.14741  0.19514  Biso   1.000  N
  H52      1.0000 0.09070  0.10520  0.19070  Biso   1.000  H
  N8       1.0000 0.90155  0.09652  0.08272  Biso   1.000  N
  H53      1.0000 0.91070  0.13200  0.06410  Biso   1.000  H
  N9       1.0000 0.58659  0.90019  0.83450  Biso   1.000  N
  H54      1.0000 0.57310  0.93530  0.82940  Biso   1.000  H
  O31      1.0000 0.79815  0.22720  0.99700  Biso   1.000  O
  O32      1.0000 0.75492  0.16067  0.96883  Biso   1.000  O
  O33      1.0000 0.77124  0.93293  0.02045  Biso   1.000  O
  O34      1.0000 0.82019  0.90077  0.07454  Biso   1.000  O
  O35      1.0000 0.15110  0.27338  0.39156  Biso   1.000  O
  O36      1.0000 0.20527  0.29573  0.35371  Biso   1.000  O
  O37      1.0000 0.23717  0.24686  0.11347  Biso   1.000  O
  O38      1.0000 0.20190  0.18412  0.04886  Biso   1.000  O
  O39      1.0000 0.06086  0.23750  0.20330  Biso   1.000  O
  O40      1.0000 0.91640  0.01519  0.15340  Biso   1.000  O
  O41      1.0000 0.69940  0.05573  0.97951  Biso   1.000  O
  O42      1.0000 0.65924  0.08984  0.90733  Biso   1.000  O
  O43      1.0000 0.72073  0.82043  0.99212  Biso   1.000  O
  O44      1.0000 0.68631  0.75900  0.92639  Biso   1.000  O
  O45      1.0000 0.58825  0.79821  0.80750  Biso   1.000  O
  Tb5      1.0000 0.77147  0.82431  0.06114  Biso   1.000  Tb
  Tb6      1.0000 0.80680  0.32968  0.03035  Biso   1.000  Tb
  C109     1.0000 0.52717  0.64770  0.17000  Biso   1.000  C
  C110     1.0000 0.49824  0.68490  0.15130  Biso   1.000  C
  H55      1.0000 0.50090  0.72850  0.15020  Biso   1.000  H
  C111     1.0000 0.46510  0.65810  0.13430  Biso   1.000  C
  H56      1.0000 0.44590  0.68380  0.12090  Biso   1.000  H
  C112     1.0000 0.46034  0.59494  0.13690  Biso   1.000  C
  C113     1.0000 0.48885  0.55750  0.15670  Biso   1.000  C
  H57      1.0000 0.48570  0.51410  0.15960  Biso   1.000  H
  C114     1.0000 0.52251  0.58390  0.17260  Biso   1.000  C
  H58      1.0000 0.54190  0.55810  0.18490  Biso   1.000  H
  C115     1.0000 0.42385  0.56444  0.12510  Biso   1.000  C
  C116     1.0000 0.56180  0.68110  0.19100  Biso   1.000  C
  C117     1.0000 0.36544  0.58122  0.06353  Biso   1.000  C
  C118     1.0000 0.34365  0.63029  0.03895  Biso   1.000  C
  H59      1.0000 0.35300  0.67090  0.03660  Biso   1.000  H
  C119     1.0000 0.30842  0.61914  0.01817  Biso   1.000  C
  C120     1.0000 0.29429  0.55839  0.02066  Biso   1.000  C
  H60      1.0000 0.27060  0.55050  0.00610  Biso   1.000  H
  C121     1.0000 0.31587  0.50976  0.04497  Biso   1.000  C
  C122     1.0000 0.35140  0.52057  0.06711  Biso   1.000  C
  H61      1.0000 0.36550  0.48760  0.08410  Biso   1.000  H
  C123     1.0000 0.28534  0.67326  0.99290  Biso   1.000  C
  C124     1.0000 0.30154  0.44362  0.04682  Biso   1.000  C
  C125     1.0000 0.62596  0.67762  0.20700  Biso   1.000  C
  C126     1.0000 0.65082  0.67841  0.15315  Biso   1.000  C
  H62      1.0000 0.64570  0.65810  0.11150  Biso   1.000  H
  C127     1.0000 0.68341  0.70984  0.16201  Biso   1.000  C
  C128     1.0000 0.69064  0.74050  0.22435  Biso   1.000  C
  H63      1.0000 0.71230  0.76260  0.22970  Biso   1.000  H
  C129     1.0000 0.66631  0.73859  0.27774  Biso   1.000  C
  C130     1.0000 0.63339  0.70720  0.26899  Biso   1.000  C
  H64      1.0000 0.61650  0.70610  0.30490  Biso   1.000  H
  C131     1.0000 0.67440  0.77150  0.34540  Biso   1.000  C
  C132     1.0000 0.70943  0.71372  0.10300  Biso   1.000  C
  C133     1.0000 0.03455  0.35240  0.77870  Biso   1.000  C
  C134     1.0000 0.01739  0.29940  0.76420  Biso   1.000  C
  H65      1.0000 0.02880  0.26120  0.77310  Biso   1.000  H
  C135     1.0000 0.01796  0.40520  0.76370  Biso   1.000  C
  H66      1.0000 0.02980  0.44330  0.77110  Biso   1.000  H
  C136     1.0000 0.07261  0.34800  0.80850  Biso   1.000  C
  C137     1.0000 0.12031  0.40765  0.86960  Biso   1.000  C
  C138     1.0000 0.14104  0.35714  0.89170  Biso   1.000  C
  H67      1.0000 0.13360  0.31620  0.88220  Biso   1.000  H
  C139     1.0000 0.17314  0.36785  0.92808  Biso   1.000  C
  C140     1.0000 0.18469  0.42829  0.94278  Biso   1.000  C
  H68      1.0000 0.20610  0.43480  0.96740  Biso   1.000  H
  C141     1.0000 0.16402  0.47940  0.92046  Biso   1.000  C
  C142     1.0000 0.13189  0.46881  0.88330  Biso   1.000  C
  H69      1.0000 0.11820  0.50280  0.86770  Biso   1.000  H
  C143     1.0000 0.19510  0.31126  0.95056  Biso   1.000  C
  C144     1.0000 0.17500  0.54575  0.93637  Biso   1.000  C
  N10      1.0000 0.59178  0.64741  0.19514  Biso   1.000  N
  H70      1.0000 0.59070  0.60520  0.19070  Biso   1.000  H
  N11      1.0000 0.40155  0.59652  0.08272  Biso   1.000  N
  H71      1.0000 0.41070  0.63200  0.06410  Biso   1.000  H
  N12      1.0000 0.08659  0.40019  0.83450  Biso   1.000  N
  H72      1.0000 0.07310  0.43530  0.82940  Biso   1.000  H
  O46      1.0000 0.29815  0.72720  0.99700  Biso   1.000  O
  O47      1.0000 0.25492  0.66067  0.96883  Biso   1.000  O
  O48      1.0000 0.27124  0.43293  0.02045  Biso   1.000  O
  O49      1.0000 0.32019  0.40077  0.07454  Biso   1.000  O
  O50      1.0000 0.65110  0.77338  0.39156  Biso   1.000  O
  O51      1.0000 0.70527  0.79573  0.35371  Biso   1.000  O
  O52      1.0000 0.73717  0.74686  0.11347  Biso   1.000  O
  O53      1.0000 0.70190  0.68412  0.04886  Biso   1.000  O
  O54      1.0000 0.56086  0.73750  0.20330  Biso   1.000  O
  O55      1.0000 0.41640  0.51519  0.15340  Biso   1.000  O
  O56      1.0000 0.19940  0.55573  0.97951  Biso   1.000  O
  O57      1.0000 0.15924  0.58984  0.90733  Biso   1.000  O
  O58      1.0000 0.22073  0.32043  0.99212  Biso   1.000  O
  O59      1.0000 0.18631  0.25900  0.92639  Biso   1.000  O
  O60      1.0000 0.08825  0.29821  0.80750  Biso   1.000  O
  Tb7      1.0000 0.27147  0.32431  0.06114  Biso   1.000  Tb
  Tb8      1.0000 0.30680  0.82968  0.03035  Biso   1.000  Tb
  C145     1.0000 0.02717  0.85230  0.67000  Biso   1.000  C
  C146     1.0000 0.99824  0.81510  0.65130  Biso   1.000  C
  H73      1.0000 0.00090  0.77150  0.65020  Biso   1.000  H
  C147     1.0000 0.96510  0.84190  0.63430  Biso   1.000  C
  H74      1.0000 0.94590  0.81620  0.62090  Biso   1.000  H
  C148     1.0000 0.96034  0.90506  0.63690  Biso   1.000  C
  C149     1.0000 0.98885  0.94250  0.65670  Biso   1.000  C
  H75      1.0000 0.98570  0.98590  0.65960  Biso   1.000  H
  C150     1.0000 0.02251  0.91610  0.67260  Biso   1.000  C
  H76      1.0000 0.04190  0.94190  0.68490  Biso   1.000  H
  C151     1.0000 0.92385  0.93556  0.62510  Biso   1.000  C
  C152     1.0000 0.06180  0.81890  0.69100  Biso   1.000  C
  C153     1.0000 0.86544  0.91878  0.56353  Biso   1.000  C
  C154     1.0000 0.84365  0.86971  0.53895  Biso   1.000  C
  H77      1.0000 0.85300  0.82910  0.53660  Biso   1.000  H
  C155     1.0000 0.80842  0.88086  0.51817  Biso   1.000  C
  C156     1.0000 0.79429  0.94161  0.52066  Biso   1.000  C
  H78      1.0000 0.77060  0.94950  0.50610  Biso   1.000  H
  C157     1.0000 0.81587  0.99024  0.54497  Biso   1.000  C
  C158     1.0000 0.85140  0.97943  0.56711  Biso   1.000  C
  H79      1.0000 0.86550  0.01240  0.58410  Biso   1.000  H
  C159     1.0000 0.78534  0.82674  0.49290  Biso   1.000  C
  C160     1.0000 0.80154  0.05638  0.54682  Biso   1.000  C
  C161     1.0000 0.12596  0.82238  0.70700  Biso   1.000  C
  C162     1.0000 0.15082  0.82159  0.65315  Biso   1.000  C
  H80      1.0000 0.14570  0.84190  0.61150  Biso   1.000  H
  C163     1.0000 0.18341  0.79016  0.66201  Biso   1.000  C
  C164     1.0000 0.19064  0.75950  0.72435  Biso   1.000  C
  H81      1.0000 0.21230  0.73740  0.72970  Biso   1.000  H
  C165     1.0000 0.16631  0.76141  0.77774  Biso   1.000  C
  C166     1.0000 0.13339  0.79280  0.76899  Biso   1.000  C
  H82      1.0000 0.11650  0.79390  0.80490  Biso   1.000  H
  C167     1.0000 0.17440  0.72850  0.84540  Biso   1.000  C
  C168     1.0000 0.20943  0.78628  0.60300  Biso   1.000  C
  C169     1.0000 0.53455  0.14760  0.27870  Biso   1.000  C
  C170     1.0000 0.51739  0.20060  0.26420  Biso   1.000  C
  H83      1.0000 0.52880  0.23880  0.27310  Biso   1.000  H
  C171     1.0000 0.51796  0.09480  0.26370  Biso   1.000  C
  H84      1.0000 0.52980  0.05670  0.27110  Biso   1.000  H
  C172     1.0000 0.57261  0.15200  0.30850  Biso   1.000  C
  C173     1.0000 0.62031  0.09235  0.36960  Biso   1.000  C
  C174     1.0000 0.64104  0.14286  0.39170  Biso   1.000  C
  H85      1.0000 0.63360  0.18380  0.38220  Biso   1.000  H
  C175     1.0000 0.67314  0.13215  0.42808  Biso   1.000  C
  C176     1.0000 0.68469  0.07171  0.44278  Biso   1.000  C
  H86      1.0000 0.70610  0.06520  0.46740  Biso   1.000  H
  C177     1.0000 0.66402  0.02060  0.42046  Biso   1.000  C
  C178     1.0000 0.63189  0.03119  0.38330  Biso   1.000  C
  H87      1.0000 0.61820  0.99720  0.36770  Biso   1.000  H
  C179     1.0000 0.69510  0.18874  0.45056  Biso   1.000  C
  C180     1.0000 0.67500  0.95425  0.43637  Biso   1.000  C
  N13      1.0000 0.09178  0.85259  0.69514  Biso   1.000  N
  H88      1.0000 0.09070  0.89480  0.69070  Biso   1.000  H
  N14      1.0000 0.90155  0.90348  0.58272  Biso   1.000  N
  H89      1.0000 0.91070  0.86800  0.56410  Biso   1.000  H
  N15      1.0000 0.58659  0.09981  0.33450  Biso   1.000  N
  H90      1.0000 0.57310  0.06470  0.32940  Biso   1.000  H
  O61      1.0000 0.79815  0.77280  0.49700  Biso   1.000  O
  O62      1.0000 0.75492  0.83933  0.46883  Biso   1.000  O
  O63      1.0000 0.77124  0.06707  0.52045  Biso   1.000  O
  O64      1.0000 0.82019  0.09923  0.57454  Biso   1.000  O
  O65      1.0000 0.15110  0.72662  0.89156  Biso   1.000  O
  O66      1.0000 0.20527  0.70427  0.85371  Biso   1.000  O
  O67      1.0000 0.23717  0.75314  0.61347  Biso   1.000  O
  O68      1.0000 0.20190  0.81588  0.54886  Biso   1.000  O
  O69      1.0000 0.06086  0.76250  0.70330  Biso   1.000  O
  O70      1.0000 0.91640  0.98481  0.65340  Biso   1.000  O
  O71      1.0000 0.69940  0.94427  0.47951  Biso   1.000  O
  O72      1.0000 0.65924  0.91016  0.40733  Biso   1.000  O
  O73      1.0000 0.72073  0.17957  0.49212  Biso   1.000  O
  O74      1.0000 0.68631  0.24100  0.42639  Biso   1.000  O
  O75      1.0000 0.58825  0.20179  0.30750  Biso   1.000  O
  Tb9      1.0000 0.77147  0.17569  0.56114  Biso   1.000  Tb
  Tb10     1.0000 0.80680  0.67032  0.53035  Biso   1.000  Tb
  C181     1.0000 0.52717  0.35230  0.67000  Biso   1.000  C
  C182     1.0000 0.49824  0.31510  0.65130  Biso   1.000  C
  H91      1.0000 0.50090  0.27150  0.65020  Biso   1.000  H
  C183     1.0000 0.46510  0.34190  0.63430  Biso   1.000  C
  H92      1.0000 0.44590  0.31620  0.62090  Biso   1.000  H
  C184     1.0000 0.46034  0.40506  0.63690  Biso   1.000  C
  C185     1.0000 0.48885  0.44250  0.65670  Biso   1.000  C
  H93      1.0000 0.48570  0.48590  0.65960  Biso   1.000  H
  C186     1.0000 0.52251  0.41610  0.67260  Biso   1.000  C
  H94      1.0000 0.54190  0.44190  0.68490  Biso   1.000  H
  C187     1.0000 0.42385  0.43556  0.62510  Biso   1.000  C
  C188     1.0000 0.56180  0.31890  0.69100  Biso   1.000  C
  C189     1.0000 0.36544  0.41878  0.56353  Biso   1.000  C
  C190     1.0000 0.34365  0.36971  0.53895  Biso   1.000  C
  H95      1.0000 0.35300  0.32910  0.53660  Biso   1.000  H
  C191     1.0000 0.30842  0.38086  0.51817  Biso   1.000  C
  C192     1.0000 0.29429  0.44161  0.52066  Biso   1.000  C
  H96      1.0000 0.27060  0.44950  0.50610  Biso   1.000  H
  C193     1.0000 0.31587  0.49024  0.54497  Biso   1.000  C
  C194     1.0000 0.35140  0.47943  0.56711  Biso   1.000  C
  H97      1.0000 0.36550  0.51240  0.58410  Biso   1.000  H
  C195     1.0000 0.28534  0.32674  0.49290  Biso   1.000  C
  C196     1.0000 0.30154  0.55638  0.54682  Biso   1.000  C
  C197     1.0000 0.62596  0.32238  0.70700  Biso   1.000  C
  C198     1.0000 0.65082  0.32159  0.65315  Biso   1.000  C
  H98      1.0000 0.64570  0.34190  0.61150  Biso   1.000  H
  C199     1.0000 0.68341  0.29016  0.66201  Biso   1.000  C
  C200     1.0000 0.69064  0.25950  0.72435  Biso   1.000  C
  H99      1.0000 0.71230  0.23740  0.72970  Biso   1.000  H
  C201     1.0000 0.66631  0.26141  0.77774  Biso   1.000  C
  C202     1.0000 0.63339  0.29280  0.76899  Biso   1.000  C
  H100     1.0000 0.61650  0.29390  0.80490  Biso   1.000  H
  C203     1.0000 0.67440  0.22850  0.84540  Biso   1.000  C
  C204     1.0000 0.70943  0.28628  0.60300  Biso   1.000  C
  C205     1.0000 0.03455  0.64760  0.27870  Biso   1.000  C
  C206     1.0000 0.01739  0.70060  0.26420  Biso   1.000  C
  H101     1.0000 0.02880  0.73880  0.27310  Biso   1.000  H
  C207     1.0000 0.01796  0.59480  0.26370  Biso   1.000  C
  H102     1.0000 0.02980  0.55670  0.27110  Biso   1.000  H
  C208     1.0000 0.07261  0.65200  0.30850  Biso   1.000  C
  C209     1.0000 0.12031  0.59235  0.36960  Biso   1.000  C
  C210     1.0000 0.14104  0.64286  0.39170  Biso   1.000  C
  H103     1.0000 0.13360  0.68380  0.38220  Biso   1.000  H
  C211     1.0000 0.17314  0.63215  0.42808  Biso   1.000  C
  C212     1.0000 0.18469  0.57171  0.44278  Biso   1.000  C
  H104     1.0000 0.20610  0.56520  0.46740  Biso   1.000  H
  C213     1.0000 0.16402  0.52060  0.42046  Biso   1.000  C
  C214     1.0000 0.13189  0.53119  0.38330  Biso   1.000  C
  H105     1.0000 0.11820  0.49720  0.36770  Biso   1.000  H
  C215     1.0000 0.19510  0.68874  0.45056  Biso   1.000  C
  C216     1.0000 0.17500  0.45425  0.43637  Biso   1.000  C
  N16      1.0000 0.59178  0.35259  0.69514  Biso   1.000  N
  H106     1.0000 0.59070  0.39480  0.69070  Biso   1.000  H
  N17      1.0000 0.40155  0.40348  0.58272  Biso   1.000  N
  H107     1.0000 0.41070  0.36800  0.56410  Biso   1.000  H
  N18      1.0000 0.08659  0.59981  0.33450  Biso   1.000  N
  H108     1.0000 0.07310  0.56470  0.32940  Biso   1.000  H
  O76      1.0000 0.29815  0.27280  0.49700  Biso   1.000  O
  O77      1.0000 0.25492  0.33933  0.46883  Biso   1.000  O
  O78      1.0000 0.27124  0.56707  0.52045  Biso   1.000  O
  O79      1.0000 0.32019  0.59923  0.57454  Biso   1.000  O
  O80      1.0000 0.65110  0.22662  0.89156  Biso   1.000  O
  O81      1.0000 0.70527  0.20427  0.85371  Biso   1.000  O
  O82      1.0000 0.73717  0.25314  0.61347  Biso   1.000  O
  O83      1.0000 0.70190  0.31588  0.54886  Biso   1.000  O
  O84      1.0000 0.56086  0.26250  0.70330  Biso   1.000  O
  O85      1.0000 0.41640  0.48481  0.65340  Biso   1.000  O
  O86      1.0000 0.19940  0.44427  0.47951  Biso   1.000  O
  O87      1.0000 0.15924  0.41016  0.40733  Biso   1.000  O
  O88      1.0000 0.22073  0.67957  0.49212  Biso   1.000  O
  O89      1.0000 0.18631  0.74100  0.42639  Biso   1.000  O
  O90      1.0000 0.08825  0.70179  0.30750  Biso   1.000  O
  Tb11     1.0000 0.27147  0.67569  0.56114  Biso   1.000  Tb
  Tb12     1.0000 0.30680  0.17032  0.53035  Biso   1.000  Tb
  C217     1.0000 0.97283  0.85230  0.83000  Biso   1.000  C
  C218     1.0000 0.00176  0.81510  0.84870  Biso   1.000  C
  H109     1.0000 0.99910  0.77150  0.84980  Biso   1.000  H
  C219     1.0000 0.03490  0.84190  0.86570  Biso   1.000  C
  H110     1.0000 0.05410  0.81620  0.87910  Biso   1.000  H
  C220     1.0000 0.03966  0.90506  0.86310  Biso   1.000  C
  C221     1.0000 0.01115  0.94250  0.84330  Biso   1.000  C
  H111     1.0000 0.01430  0.98590  0.84040  Biso   1.000  H
  C222     1.0000 0.97749  0.91610  0.82740  Biso   1.000  C
  H112     1.0000 0.95810  0.94190  0.81510  Biso   1.000  H
  C223     1.0000 0.07615  0.93556  0.87490  Biso   1.000  C
  C224     1.0000 0.93820  0.81890  0.80900  Biso   1.000  C
  C225     1.0000 0.13456  0.91878  0.93647  Biso   1.000  C
  C226     1.0000 0.15635  0.86971  0.96105  Biso   1.000  C
  H113     1.0000 0.14700  0.82910  0.96340  Biso   1.000  H
  C227     1.0000 0.19158  0.88086  0.98183  Biso   1.000  C
  C228     1.0000 0.20571  0.94161  0.97934  Biso   1.000  C
  H114     1.0000 0.22940  0.94950  0.99390  Biso   1.000  H
  C229     1.0000 0.18413  0.99024  0.95503  Biso   1.000  C
  C230     1.0000 0.14860  0.97943  0.93289  Biso   1.000  C
  H115     1.0000 0.13450  0.01240  0.91590  Biso   1.000  H
  C231     1.0000 0.21466  0.82674  0.00710  Biso   1.000  C
  C232     1.0000 0.19846  0.05638  0.95318  Biso   1.000  C
  C233     1.0000 0.87404  0.82238  0.79300  Biso   1.000  C
  C234     1.0000 0.84918  0.82159  0.84685  Biso   1.000  C
  H116     1.0000 0.85430  0.84190  0.88850  Biso   1.000  H
  C235     1.0000 0.81659  0.79016  0.83799  Biso   1.000  C
  C236     1.0000 0.80936  0.75950  0.77565  Biso   1.000  C
  H117     1.0000 0.78770  0.73740  0.77030  Biso   1.000  H
  C237     1.0000 0.83369  0.76141  0.72226  Biso   1.000  C
  C238     1.0000 0.86661  0.79280  0.73101  Biso   1.000  C
  H118     1.0000 0.88350  0.79390  0.69510  Biso   1.000  H
  C239     1.0000 0.82560  0.72850  0.65460  Biso   1.000  C
  C240     1.0000 0.79057  0.78628  0.89700  Biso   1.000  C
  C241     1.0000 0.46545  0.14760  0.22130  Biso   1.000  C
  C242     1.0000 0.48261  0.20060  0.23580  Biso   1.000  C
  H119     1.0000 0.47120  0.23880  0.22690  Biso   1.000  H
  C243     1.0000 0.48204  0.09480  0.23630  Biso   1.000  C
  H120     1.0000 0.47020  0.05670  0.22890  Biso   1.000  H
  C244     1.0000 0.42739  0.15200  0.19150  Biso   1.000  C
  C245     1.0000 0.37969  0.09235  0.13040  Biso   1.000  C
  C246     1.0000 0.35896  0.14286  0.10830  Biso   1.000  C
  H121     1.0000 0.36640  0.18380  0.11780  Biso   1.000  H
  C247     1.0000 0.32686  0.13215  0.07192  Biso   1.000  C
  C248     1.0000 0.31531  0.07171  0.05722  Biso   1.000  C
  H122     1.0000 0.29390  0.06520  0.03260  Biso   1.000  H
  C249     1.0000 0.33598  0.02060  0.07954  Biso   1.000  C
  C250     1.0000 0.36811  0.03119  0.11670  Biso   1.000  C
  H123     1.0000 0.38180  0.99720  0.13230  Biso   1.000  H
  C251     1.0000 0.30490  0.18874  0.04944  Biso   1.000  C
  C252     1.0000 0.32500  0.95425  0.06363  Biso   1.000  C
  N19      1.0000 0.90822  0.85259  0.80486  Biso   1.000  N
  H124     1.0000 0.90930  0.89480  0.80930  Biso   1.000  H
  N20      1.0000 0.09845  0.90348  0.91728  Biso   1.000  N
  H125     1.0000 0.08930  0.86800  0.93590  Biso   1.000  H
  N21      1.0000 0.41341  0.09981  0.16550  Biso   1.000  N
  H126     1.0000 0.42690  0.06470  0.17060  Biso   1.000  H
  O91      1.0000 0.20185  0.77280  0.00300  Biso   1.000  O
  O92      1.0000 0.24508  0.83933  0.03117  Biso   1.000  O
  O93      1.0000 0.22876  0.06707  0.97955  Biso   1.000  O
  O94      1.0000 0.17981  0.09923  0.92546  Biso   1.000  O
  O95      1.0000 0.84890  0.72662  0.60844  Biso   1.000  O
  O96      1.0000 0.79473  0.70427  0.64629  Biso   1.000  O
  O97      1.0000 0.76283  0.75314  0.88653  Biso   1.000  O
  O98      1.0000 0.79810  0.81588  0.95114  Biso   1.000  O
  O99      1.0000 0.93914  0.76250  0.79670  Biso   1.000  O
  O100     1.0000 0.08360  0.98481  0.84660  Biso   1.000  O
  O101     1.0000 0.30060  0.94427  0.02049  Biso   1.000  O
  O102     1.0000 0.34076  0.91016  0.09267  Biso   1.000  O
  O103     1.0000 0.27927  0.17957  0.00788  Biso   1.000  O
  O104     1.0000 0.31369  0.24100  0.07361  Biso   1.000  O
  O105     1.0000 0.41175  0.20179  0.19250  Biso   1.000  O
  Tb13     1.0000 0.22853  0.17569  0.93886  Biso   1.000  Tb
  Tb14     1.0000 0.19320  0.67032  0.96965  Biso   1.000  Tb
  C253     1.0000 0.47283  0.35230  0.83000  Biso   1.000  C
  C254     1.0000 0.50176  0.31510  0.84870  Biso   1.000  C
  H127     1.0000 0.49910  0.27150  0.84980  Biso   1.000  H
  C255     1.0000 0.53490  0.34190  0.86570  Biso   1.000  C
  H128     1.0000 0.55410  0.31620  0.87910  Biso   1.000  H
  C256     1.0000 0.53966  0.40506  0.86310  Biso   1.000  C
  C257     1.0000 0.51115  0.44250  0.84330  Biso   1.000  C
  H129     1.0000 0.51430  0.48590  0.84040  Biso   1.000  H
  C258     1.0000 0.47749  0.41610  0.82740  Biso   1.000  C
  H130     1.0000 0.45810  0.44190  0.81510  Biso   1.000  H
  C259     1.0000 0.57615  0.43556  0.87490  Biso   1.000  C
  C260     1.0000 0.43820  0.31890  0.80900  Biso   1.000  C
  C261     1.0000 0.63456  0.41878  0.93647  Biso   1.000  C
  C262     1.0000 0.65635  0.36971  0.96105  Biso   1.000  C
  H131     1.0000 0.64700  0.32910  0.96340  Biso   1.000  H
  C263     1.0000 0.69158  0.38086  0.98183  Biso   1.000  C
  C264     1.0000 0.70571  0.44161  0.97934  Biso   1.000  C
  H132     1.0000 0.72940  0.44950  0.99390  Biso   1.000  H
  C265     1.0000 0.68413  0.49024  0.95503  Biso   1.000  C
  C266     1.0000 0.64860  0.47943  0.93289  Biso   1.000  C
  H133     1.0000 0.63450  0.51240  0.91590  Biso   1.000  H
  C267     1.0000 0.71466  0.32674  0.00710  Biso   1.000  C
  C268     1.0000 0.69846  0.55638  0.95318  Biso   1.000  C
  C269     1.0000 0.37404  0.32238  0.79300  Biso   1.000  C
  C270     1.0000 0.34918  0.32159  0.84685  Biso   1.000  C
  H134     1.0000 0.35430  0.34190  0.88850  Biso   1.000  H
  C271     1.0000 0.31659  0.29016  0.83799  Biso   1.000  C
  C272     1.0000 0.30936  0.25950  0.77565  Biso   1.000  C
  H135     1.0000 0.28770  0.23740  0.77030  Biso   1.000  H
  C273     1.0000 0.33369  0.26141  0.72226  Biso   1.000  C
  C274     1.0000 0.36661  0.29280  0.73101  Biso   1.000  C
  H136     1.0000 0.38350  0.29390  0.69510  Biso   1.000  H
  C275     1.0000 0.32560  0.22850  0.65460  Biso   1.000  C
  C276     1.0000 0.29057  0.28628  0.89700  Biso   1.000  C
  C277     1.0000 0.96545  0.64760  0.22130  Biso   1.000  C
  C278     1.0000 0.98261  0.70060  0.23580  Biso   1.000  C
  H137     1.0000 0.97120  0.73880  0.22690  Biso   1.000  H
  C279     1.0000 0.98204  0.59480  0.23630  Biso   1.000  C
  H138     1.0000 0.97020  0.55670  0.22890  Biso   1.000  H
  C280     1.0000 0.92739  0.65200  0.19150  Biso   1.000  C
  C281     1.0000 0.87969  0.59235  0.13040  Biso   1.000  C
  C282     1.0000 0.85896  0.64286  0.10830  Biso   1.000  C
  H139     1.0000 0.86640  0.68380  0.11780  Biso   1.000  H
  C283     1.0000 0.82686  0.63215  0.07192  Biso   1.000  C
  C284     1.0000 0.81531  0.57171  0.05722  Biso   1.000  C
  H140     1.0000 0.79390  0.56520  0.03260  Biso   1.000  H
  C285     1.0000 0.83598  0.52060  0.07954  Biso   1.000  C
  C286     1.0000 0.86811  0.53119  0.11670  Biso   1.000  C
  H141     1.0000 0.88180  0.49720  0.13230  Biso   1.000  H
  C287     1.0000 0.80490  0.68874  0.04944  Biso   1.000  C
  C288     1.0000 0.82500  0.45425  0.06363  Biso   1.000  C
  N22      1.0000 0.40822  0.35259  0.80486  Biso   1.000  N
  H142     1.0000 0.40930  0.39480  0.80930  Biso   1.000  H
  N23      1.0000 0.59845  0.40348  0.91728  Biso   1.000  N
  H143     1.0000 0.58930  0.36800  0.93590  Biso   1.000  H
  N24      1.0000 0.91341  0.59981  0.16550  Biso   1.000  N
  H144     1.0000 0.92690  0.56470  0.17060  Biso   1.000  H
  O106     1.0000 0.70185  0.27280  0.00300  Biso   1.000  O
  O107     1.0000 0.74508  0.33933  0.03117  Biso   1.000  O
  O108     1.0000 0.72876  0.56707  0.97955  Biso   1.000  O
  O109     1.0000 0.67981  0.59923  0.92546  Biso   1.000  O
  O110     1.0000 0.34890  0.22662  0.60844  Biso   1.000  O
  O111     1.0000 0.29473  0.20427  0.64629  Biso   1.000  O
  O112     1.0000 0.26283  0.25314  0.88653  Biso   1.000  O
  O113     1.0000 0.29810  0.31588  0.95114  Biso   1.000  O
  O114     1.0000 0.43914  0.26250  0.79670  Biso   1.000  O
  O115     1.0000 0.58360  0.48481  0.84660  Biso   1.000  O
  O116     1.0000 0.80060  0.44427  0.02049  Biso   1.000  O
  O117     1.0000 0.84076  0.41016  0.09267  Biso   1.000  O
  O118     1.0000 0.77927  0.67957  0.00788  Biso   1.000  O
  O119     1.0000 0.81369  0.74100  0.07361  Biso   1.000  O
  O120     1.0000 0.91175  0.70179  0.19250  Biso   1.000  O
  Tb15     1.0000 0.72853  0.67569  0.93886  Biso   1.000  Tb
  Tb16     1.0000 0.69320  0.17032  0.96965  Biso   1.000  Tb
