data_image0
_cell_length_a       12.5087
_cell_length_b       32.165
_cell_length_c       7.6022
_cell_angle_alpha    90
_cell_angle_beta     98.833
_cell_angle_gamma    90

_symmetry_space_group_name_H-M    "P 1"
_symmetry_int_tables_number       1

loop_
  _symmetry_equiv_pos_as_xyz
  'x, y, z'

loop_
  _atom_site_label
  _atom_site_occupancy
  _atom_site_fract_x
  _atom_site_fract_y
  _atom_site_fract_z
  _atom_site_thermal_displace_type
  _atom_site_B_iso_or_equiv
  _atom_site_type_symbol
  Dy1      1.0000 0.97101  0.61496  0.19016  Biso   1.000  Dy
  O1       1.0000 0.13290  0.59130  0.09880  Biso   1.000  O
  O2       1.0000 0.81600  0.58418  0.27560  Biso   1.000  O
  Cd1      1.0000 0.47282  0.55070  0.18975  Biso   1.000  Cd
  N1       1.0000 0.54900  0.60190  0.03580  Biso   1.000  N
  Cd2      1.0000 0.07617  0.76236  0.44249  Biso   1.000  Cd
  N2       1.0000 0.57680  0.66849  0.98170  Biso   1.000  N
  Cl1      1.0000 0.97405  0.73334  0.66360  Biso   1.000  Cl
  C1       1.0000 0.29670  0.61980  0.25260  Biso   1.000  C
  C2       1.0000 0.65140  0.61180  0.11330  Biso   1.000  C
  C3       1.0000 0.27300  0.65880  0.29650  Biso   1.000  C
  C4       1.0000 0.71200  0.61680  0.67070  Biso   1.000  C
  H1       1.0000 0.74690  0.59330  0.72270  Biso   1.000  H
  C5       1.0000 0.66850  0.65420  0.07950  Biso   1.000  C
  C6       1.0000 0.44500  0.64400  0.40030  Biso   1.000  C
  C7       1.0000 0.24390  0.60740  0.68690  Biso   1.000  C
  H2       1.0000 0.21340  0.58440  0.62380  Biso   1.000  H
  C8       1.0000 0.50720  0.63760  0.95720  Biso   1.000  C
  C9       1.0000 0.76130  0.68320  0.13800  Biso   1.000  C
  C10      1.0000 0.71580  0.58050  0.22870  Biso   1.000  C
  N3       1.0000 0.76570  0.65410  0.68350  Biso   1.000  N
  N4       1.0000 0.18220  0.64150  0.69280  Biso   1.000  N
  C11      1.0000 0.23250  0.58630  0.14850  Biso   1.000  C
  C12      1.0000 0.71680  0.68590  0.60160  Biso   1.000  C
  H3       1.0000 0.75450  0.71090  0.60620  Biso   1.000  H
  C13      1.0000 0.39650  0.63950  0.86570  Biso   1.000  C
  C14      1.0000 0.55630  0.64840  0.49600  Biso   1.000  C
  C15      1.0000 0.22870  0.67490  0.77950  Biso   1.000  C
  H4       1.0000 0.18770  0.69900  0.78020  Biso   1.000  H
  O3       1.0000 0.66190  0.54928  0.27320  Biso   1.000  O
  C16      1.0000 0.61180  0.68530  0.50730  Biso   1.000  C
  H5       1.0000 0.58040  0.70930  0.45360  Biso   1.000  H
  C17      1.0000 0.34980  0.60460  0.76940  Biso   1.000  C
  H6       1.0000 0.38960  0.58040  0.76210  Biso   1.000  H
  O4       1.0000 0.74080  0.72135  0.12680  Biso   1.000  O
  C18      1.0000 0.33460  0.67550  0.86830  Biso   1.000  C
  H7       1.0000 0.36320  0.69920  0.92780  Biso   1.000  H
  C19      1.0000 0.60660  0.61330  0.58140  Biso   1.000  C
  H8       1.0000 0.57000  0.58800  0.57840  Biso   1.000  H
  O5       1.0000 0.90420  0.56201  0.98540  Biso   1.000  O
  H9       1.0000 0.88500  0.53590  0.02330  Biso   1.000  H
  H10      1.0000 0.83820  0.57190  0.00750  Biso   1.000  H
  N5       1.0000 0.37010  0.67490  0.39140  Biso   1.000  N
  H11      1.0000 0.37990  0.69950  0.43520  Biso   1.000  H
  N6       1.0000 0.40360  0.61010  0.31720  Biso   1.000  N
  C20      1.0000 0.17860  0.68710  0.27540  Biso   1.000  C
  Cl2      1.0000 0.45875  0.48745  0.98860  Biso   1.000  Cl
  O6       1.0000 0.19610  0.72295  0.33430  Biso   1.000  O
  O7       1.0000 0.85290  0.66850  0.19450  Biso   1.000  O
  O8       1.0000 0.08760  0.67335  0.20800  Biso   1.000  O
  O9       1.0000 0.28300  0.55400  0.11240  Biso   1.000  O
  Dy2      1.0000 0.47101  0.11496  0.19016  Biso   1.000  Dy
  O10      1.0000 0.63290  0.09130  0.09880  Biso   1.000  O
  O11      1.0000 0.31600  0.08418  0.27560  Biso   1.000  O
  Cd3      1.0000 0.97282  0.05070  0.18975  Biso   1.000  Cd
  N7       1.0000 0.04900  0.10190  0.03580  Biso   1.000  N
  Cd4      1.0000 0.57617  0.26236  0.44249  Biso   1.000  Cd
  N8       1.0000 0.07680  0.16849  0.98170  Biso   1.000  N
  Cl3      1.0000 0.47405  0.23334  0.66360  Biso   1.000  Cl
  C21      1.0000 0.79670  0.11980  0.25260  Biso   1.000  C
  C22      1.0000 0.15140  0.11180  0.11330  Biso   1.000  C
  C23      1.0000 0.77300  0.15880  0.29650  Biso   1.000  C
  C24      1.0000 0.21200  0.11680  0.67070  Biso   1.000  C
  H12      1.0000 0.24690  0.09330  0.72270  Biso   1.000  H
  C25      1.0000 0.16850  0.15420  0.07950  Biso   1.000  C
  C26      1.0000 0.94500  0.14400  0.40030  Biso   1.000  C
  C27      1.0000 0.74390  0.10740  0.68690  Biso   1.000  C
  H13      1.0000 0.71340  0.08440  0.62380  Biso   1.000  H
  C28      1.0000 0.00720  0.13760  0.95720  Biso   1.000  C
  C29      1.0000 0.26130  0.18320  0.13800  Biso   1.000  C
  C30      1.0000 0.21580  0.08050  0.22870  Biso   1.000  C
  N9       1.0000 0.26570  0.15410  0.68350  Biso   1.000  N
  N10      1.0000 0.68220  0.14150  0.69280  Biso   1.000  N
  C31      1.0000 0.73250  0.08630  0.14850  Biso   1.000  C
  C32      1.0000 0.21680  0.18590  0.60160  Biso   1.000  C
  H14      1.0000 0.25450  0.21090  0.60620  Biso   1.000  H
  C33      1.0000 0.89650  0.13950  0.86570  Biso   1.000  C
  C34      1.0000 0.05630  0.14840  0.49600  Biso   1.000  C
  C35      1.0000 0.72870  0.17490  0.77950  Biso   1.000  C
  H15      1.0000 0.68770  0.19900  0.78020  Biso   1.000  H
  O12      1.0000 0.16190  0.04928  0.27320  Biso   1.000  O
  C36      1.0000 0.11180  0.18530  0.50730  Biso   1.000  C
  H16      1.0000 0.08040  0.20930  0.45360  Biso   1.000  H
  C37      1.0000 0.84980  0.10460  0.76940  Biso   1.000  C
  H17      1.0000 0.88960  0.08040  0.76210  Biso   1.000  H
  O13      1.0000 0.24080  0.22135  0.12680  Biso   1.000  O
  C38      1.0000 0.83460  0.17550  0.86830  Biso   1.000  C
  H18      1.0000 0.86320  0.19920  0.92780  Biso   1.000  H
  C39      1.0000 0.10660  0.11330  0.58140  Biso   1.000  C
  H19      1.0000 0.07000  0.08800  0.57840  Biso   1.000  H
  O14      1.0000 0.40420  0.06201  0.98540  Biso   1.000  O
  H20      1.0000 0.38500  0.03590  0.02330  Biso   1.000  H
  H21      1.0000 0.33820  0.07190  0.00750  Biso   1.000  H
  N11      1.0000 0.87010  0.17490  0.39140  Biso   1.000  N
  H22      1.0000 0.87990  0.19950  0.43520  Biso   1.000  H
  N12      1.0000 0.90360  0.11010  0.31720  Biso   1.000  N
  C40      1.0000 0.67860  0.18710  0.27540  Biso   1.000  C
  Cl4      1.0000 0.95875  0.98745  0.98860  Biso   1.000  Cl
  O15      1.0000 0.69610  0.22295  0.33430  Biso   1.000  O
  O16      1.0000 0.35290  0.16850  0.19450  Biso   1.000  O
  O17      1.0000 0.58760  0.17335  0.20800  Biso   1.000  O
  O18      1.0000 0.78300  0.05400  0.11240  Biso   1.000  O
  Dy3      1.0000 0.97101  0.38504  0.69016  Biso   1.000  Dy
  O19      1.0000 0.13290  0.40870  0.59880  Biso   1.000  O
  O20      1.0000 0.81600  0.41582  0.77560  Biso   1.000  O
  Cd5      1.0000 0.47282  0.44930  0.68975  Biso   1.000  Cd
  N13      1.0000 0.54900  0.39810  0.53580  Biso   1.000  N
  Cd6      1.0000 0.07617  0.23764  0.94249  Biso   1.000  Cd
  N14      1.0000 0.57680  0.33151  0.48170  Biso   1.000  N
  Cl5      1.0000 0.97405  0.26666  0.16360  Biso   1.000  Cl
  C41      1.0000 0.29670  0.38020  0.75260  Biso   1.000  C
  C42      1.0000 0.65140  0.38820  0.61330  Biso   1.000  C
  C43      1.0000 0.27300  0.34120  0.79650  Biso   1.000  C
  C44      1.0000 0.71200  0.38320  0.17070  Biso   1.000  C
  H23      1.0000 0.74690  0.40670  0.22270  Biso   1.000  H
  C45      1.0000 0.66850  0.34580  0.57950  Biso   1.000  C
  C46      1.0000 0.44500  0.35600  0.90030  Biso   1.000  C
  C47      1.0000 0.24390  0.39260  0.18690  Biso   1.000  C
  H24      1.0000 0.21340  0.41560  0.12380  Biso   1.000  H
  C48      1.0000 0.50720  0.36240  0.45720  Biso   1.000  C
  C49      1.0000 0.76130  0.31680  0.63800  Biso   1.000  C
  C50      1.0000 0.71580  0.41950  0.72870  Biso   1.000  C
  N15      1.0000 0.76570  0.34590  0.18350  Biso   1.000  N
  N16      1.0000 0.18220  0.35850  0.19280  Biso   1.000  N
  C51      1.0000 0.23250  0.41370  0.64850  Biso   1.000  C
  C52      1.0000 0.71680  0.31410  0.10160  Biso   1.000  C
  H25      1.0000 0.75450  0.28910  0.10620  Biso   1.000  H
  C53      1.0000 0.39650  0.36050  0.36570  Biso   1.000  C
  C54      1.0000 0.55630  0.35160  0.99600  Biso   1.000  C
  C55      1.0000 0.22870  0.32510  0.27950  Biso   1.000  C
  H26      1.0000 0.18770  0.30100  0.28020  Biso   1.000  H
  O21      1.0000 0.66190  0.45072  0.77320  Biso   1.000  O
  C56      1.0000 0.61180  0.31470  0.00730  Biso   1.000  C
  H27      1.0000 0.58040  0.29070  0.95360  Biso   1.000  H
  C57      1.0000 0.34980  0.39540  0.26940  Biso   1.000  C
  H28      1.0000 0.38960  0.41960  0.26210  Biso   1.000  H
  O22      1.0000 0.74080  0.27865  0.62680  Biso   1.000  O
  C58      1.0000 0.33460  0.32450  0.36830  Biso   1.000  C
  H29      1.0000 0.36320  0.30080  0.42780  Biso   1.000  H
  C59      1.0000 0.60660  0.38670  0.08140  Biso   1.000  C
  H30      1.0000 0.57000  0.41200  0.07840  Biso   1.000  H
  O23      1.0000 0.90420  0.43799  0.48540  Biso   1.000  O
  H31      1.0000 0.88500  0.46410  0.52330  Biso   1.000  H
  H32      1.0000 0.83820  0.42810  0.50750  Biso   1.000  H
  N17      1.0000 0.37010  0.32510  0.89140  Biso   1.000  N
  H33      1.0000 0.37990  0.30050  0.93520  Biso   1.000  H
  N18      1.0000 0.40360  0.38990  0.81720  Biso   1.000  N
  C60      1.0000 0.17860  0.31290  0.77540  Biso   1.000  C
  Cl6      1.0000 0.45875  0.51255  0.48860  Biso   1.000  Cl
  O24      1.0000 0.19610  0.27705  0.83430  Biso   1.000  O
  O25      1.0000 0.85290  0.33150  0.69450  Biso   1.000  O
  O26      1.0000 0.08760  0.32665  0.70800  Biso   1.000  O
  O27      1.0000 0.28300  0.44600  0.61240  Biso   1.000  O
  Dy4      1.0000 0.47101  0.88504  0.69016  Biso   1.000  Dy
  O28      1.0000 0.63290  0.90870  0.59880  Biso   1.000  O
  O29      1.0000 0.31600  0.91582  0.77560  Biso   1.000  O
  Cd7      1.0000 0.97282  0.94930  0.68975  Biso   1.000  Cd
  N19      1.0000 0.04900  0.89810  0.53580  Biso   1.000  N
  Cd8      1.0000 0.57617  0.73763  0.94249  Biso   1.000  Cd
  N20      1.0000 0.07680  0.83151  0.48170  Biso   1.000  N
  Cl7      1.0000 0.47405  0.76666  0.16360  Biso   1.000  Cl
  C61      1.0000 0.79670  0.88020  0.75260  Biso   1.000  C
  C62      1.0000 0.15140  0.88820  0.61330  Biso   1.000  C
  C63      1.0000 0.77300  0.84120  0.79650  Biso   1.000  C
  C64      1.0000 0.21200  0.88320  0.17070  Biso   1.000  C
  H34      1.0000 0.24690  0.90670  0.22270  Biso   1.000  H
  C65      1.0000 0.16850  0.84580  0.57950  Biso   1.000  C
  C66      1.0000 0.94500  0.85600  0.90030  Biso   1.000  C
  C67      1.0000 0.74390  0.89260  0.18690  Biso   1.000  C
  H35      1.0000 0.71340  0.91560  0.12380  Biso   1.000  H
  C68      1.0000 0.00720  0.86240  0.45720  Biso   1.000  C
  C69      1.0000 0.26130  0.81680  0.63800  Biso   1.000  C
  C70      1.0000 0.21580  0.91950  0.72870  Biso   1.000  C
  N21      1.0000 0.26570  0.84590  0.18350  Biso   1.000  N
  N22      1.0000 0.68220  0.85850  0.19280  Biso   1.000  N
  C71      1.0000 0.73250  0.91370  0.64850  Biso   1.000  C
  C72      1.0000 0.21680  0.81410  0.10160  Biso   1.000  C
  H36      1.0000 0.25450  0.78910  0.10620  Biso   1.000  H
  C73      1.0000 0.89650  0.86050  0.36570  Biso   1.000  C
  C74      1.0000 0.05630  0.85160  0.99600  Biso   1.000  C
  C75      1.0000 0.72870  0.82510  0.27950  Biso   1.000  C
  H37      1.0000 0.68770  0.80100  0.28020  Biso   1.000  H
  O30      1.0000 0.16190  0.95072  0.77320  Biso   1.000  O
  C76      1.0000 0.11180  0.81470  0.00730  Biso   1.000  C
  H38      1.0000 0.08040  0.79070  0.95360  Biso   1.000  H
  C77      1.0000 0.84980  0.89540  0.26940  Biso   1.000  C
  H39      1.0000 0.88960  0.91960  0.26210  Biso   1.000  H
  O31      1.0000 0.24080  0.77865  0.62680  Biso   1.000  O
  C78      1.0000 0.83460  0.82450  0.36830  Biso   1.000  C
  H40      1.0000 0.86320  0.80080  0.42780  Biso   1.000  H
  C79      1.0000 0.10660  0.88670  0.08140  Biso   1.000  C
  H41      1.0000 0.07000  0.91200  0.07840  Biso   1.000  H
  O32      1.0000 0.40420  0.93799  0.48540  Biso   1.000  O
  H42      1.0000 0.38500  0.96410  0.52330  Biso   1.000  H
  H43      1.0000 0.33820  0.92810  0.50750  Biso   1.000  H
  N23      1.0000 0.87010  0.82510  0.89140  Biso   1.000  N
  H44      1.0000 0.87990  0.80050  0.93520  Biso   1.000  H
  N24      1.0000 0.90360  0.88990  0.81720  Biso   1.000  N
  C80      1.0000 0.67860  0.81290  0.77540  Biso   1.000  C
  Cl8      1.0000 0.95875  0.01255  0.48860  Biso   1.000  Cl
  O33      1.0000 0.69610  0.77705  0.83430  Biso   1.000  O
  O34      1.0000 0.35290  0.83150  0.69450  Biso   1.000  O
  O35      1.0000 0.58760  0.82665  0.70800  Biso   1.000  O
  O36      1.0000 0.78300  0.94600  0.61240  Biso   1.000  O
