data_image0
_cell_length_a       10.8471
_cell_length_b       6.3389
_cell_length_c       16.8839
_cell_angle_alpha    90
_cell_angle_beta     105.592
_cell_angle_gamma    90

_symmetry_space_group_name_H-M    "P 1"
_symmetry_int_tables_number       1

loop_
  _symmetry_equiv_pos_as_xyz
  'x, y, z'

loop_
  _atom_site_label
  _atom_site_occupancy
  _atom_site_fract_x
  _atom_site_fract_y
  _atom_site_fract_z
  _atom_site_thermal_displace_type
  _atom_site_B_iso_or_equiv
  _atom_site_type_symbol
  Co1      1.0000 0.03419  0.50306  0.41605  Biso   1.000  Co
  O1       1.0000 0.94460  0.68970  0.48330  Biso   1.000  O
  O2       1.0000 0.85990  0.37400  0.34520  Biso   1.000  O
  C1       1.0000 0.67790  0.25800  0.19880  Biso   1.000  C
  H1       1.0000 0.71510  0.39040  0.19970  Biso   1.000  H
  C2       1.0000 0.83100  0.18580  0.33600  Biso   1.000  C
  C3       1.0000 0.53660  0.34680  0.06190  Biso   1.000  C
  C4       1.0000 0.41360  0.43210  0.04080  Biso   1.000  C
  H2       1.0000 0.35480  0.38510  0.06800  Biso   1.000  H
  C5       1.0000 0.57750  0.19970  0.13190  Biso   1.000  C
  C6       1.0000 0.66660  0.92340  0.26060  Biso   1.000  C
  H3       1.0000 0.69780  0.82670  0.30260  Biso   1.000  H
  C7       1.0000 0.72320  0.11940  0.26450  Biso   1.000  C
  C8       1.0000 0.56490  0.86820  0.19570  Biso   1.000  C
  H4       1.0000 0.52650  0.73680  0.19510  Biso   1.000  H
  C9       1.0000 0.52000  0.00560  0.13210  Biso   1.000  C
  H5       1.0000 0.45040  0.96810  0.08880  Biso   1.000  H
  O3       1.0000 0.88490  0.03720  0.38190  Biso   1.000  O
  C10      1.0000 0.37700  0.58310  0.98110  Biso   1.000  C
  C11      1.0000 0.24280  0.67210  0.96440  Biso   1.000  C
  O4       1.0000 0.15630  0.53340  0.95230  Biso   1.000  O
  O5       1.0000 0.22450  0.86180  0.96580  Biso   1.000  O
  H6       1.0000 0.88000  0.68400  0.46100  Biso   1.000  H
  Co2      1.0000 0.96581  0.00306  0.08395  Biso   1.000  Co
  O6       1.0000 0.05540  0.18970  0.01670  Biso   1.000  O
  O7       1.0000 0.14010  0.87400  0.15480  Biso   1.000  O
  C12      1.0000 0.32210  0.75800  0.30120  Biso   1.000  C
  H7       1.0000 0.28490  0.89040  0.30030  Biso   1.000  H
  C13      1.0000 0.16900  0.68580  0.16400  Biso   1.000  C
  C14      1.0000 0.46340  0.84680  0.43810  Biso   1.000  C
  C15      1.0000 0.58640  0.93210  0.45920  Biso   1.000  C
  H8       1.0000 0.64520  0.88510  0.43200  Biso   1.000  H
  C16      1.0000 0.42250  0.69970  0.36810  Biso   1.000  C
  C17      1.0000 0.33340  0.42340  0.23940  Biso   1.000  C
  H9       1.0000 0.30220  0.32670  0.19740  Biso   1.000  H
  C18      1.0000 0.27680  0.61940  0.23550  Biso   1.000  C
  C19      1.0000 0.43510  0.36820  0.30430  Biso   1.000  C
  H10      1.0000 0.47350  0.23680  0.30490  Biso   1.000  H
  C20      1.0000 0.48000  0.50560  0.36790  Biso   1.000  C
  H11      1.0000 0.54960  0.46810  0.41120  Biso   1.000  H
  O8       1.0000 0.11510  0.53720  0.11810  Biso   1.000  O
  C21      1.0000 0.62300  0.08310  0.51890  Biso   1.000  C
  C22      1.0000 0.75720  0.17210  0.53560  Biso   1.000  C
  O9       1.0000 0.84370  0.03340  0.54770  Biso   1.000  O
  O10      1.0000 0.77550  0.36180  0.53420  Biso   1.000  O
  H12      1.0000 0.12000  0.18400  0.03900  Biso   1.000  H
  Co3      1.0000 0.96581  0.49694  0.58395  Biso   1.000  Co
  O11      1.0000 0.05540  0.31030  0.51670  Biso   1.000  O
  O12      1.0000 0.14010  0.62600  0.65480  Biso   1.000  O
  C23      1.0000 0.32210  0.74200  0.80120  Biso   1.000  C
  H13      1.0000 0.28490  0.60960  0.80030  Biso   1.000  H
  C24      1.0000 0.16900  0.81420  0.66400  Biso   1.000  C
  C25      1.0000 0.46340  0.65320  0.93810  Biso   1.000  C
  C26      1.0000 0.58640  0.56790  0.95920  Biso   1.000  C
  H14      1.0000 0.64520  0.61490  0.93200  Biso   1.000  H
  C27      1.0000 0.42250  0.80030  0.86810  Biso   1.000  C
  C28      1.0000 0.33340  0.07660  0.73940  Biso   1.000  C
  H15      1.0000 0.30220  0.17330  0.69740  Biso   1.000  H
  C29      1.0000 0.27680  0.88060  0.73550  Biso   1.000  C
  C30      1.0000 0.43510  0.13180  0.80430  Biso   1.000  C
  H16      1.0000 0.47350  0.26320  0.80490  Biso   1.000  H
  C31      1.0000 0.48000  0.99440  0.86790  Biso   1.000  C
  H17      1.0000 0.54960  0.03190  0.91120  Biso   1.000  H
  O13      1.0000 0.11510  0.96280  0.61810  Biso   1.000  O
  C32      1.0000 0.62300  0.41690  0.01890  Biso   1.000  C
  C33      1.0000 0.75720  0.32790  0.03560  Biso   1.000  C
  O14      1.0000 0.84370  0.46660  0.04770  Biso   1.000  O
  O15      1.0000 0.77550  0.13820  0.03420  Biso   1.000  O
  H18      1.0000 0.12000  0.31600  0.53900  Biso   1.000  H
  Co4      1.0000 0.03419  0.99694  0.91605  Biso   1.000  Co
  O16      1.0000 0.94460  0.81030  0.98330  Biso   1.000  O
  O17      1.0000 0.85990  0.12600  0.84520  Biso   1.000  O
  C34      1.0000 0.67790  0.24200  0.69880  Biso   1.000  C
  H19      1.0000 0.71510  0.10960  0.69970  Biso   1.000  H
  C35      1.0000 0.83100  0.31420  0.83600  Biso   1.000  C
  C36      1.0000 0.53660  0.15320  0.56190  Biso   1.000  C
  C37      1.0000 0.41360  0.06790  0.54080  Biso   1.000  C
  H20      1.0000 0.35480  0.11490  0.56800  Biso   1.000  H
  C38      1.0000 0.57750  0.30030  0.63190  Biso   1.000  C
  C39      1.0000 0.66660  0.57660  0.76060  Biso   1.000  C
  H21      1.0000 0.69780  0.67330  0.80260  Biso   1.000  H
  C40      1.0000 0.72320  0.38060  0.76450  Biso   1.000  C
  C41      1.0000 0.56490  0.63180  0.69570  Biso   1.000  C
  H22      1.0000 0.52650  0.76320  0.69510  Biso   1.000  H
  C42      1.0000 0.52000  0.49440  0.63210  Biso   1.000  C
  H23      1.0000 0.45040  0.53190  0.58880  Biso   1.000  H
  O18      1.0000 0.88490  0.46280  0.88190  Biso   1.000  O
  C43      1.0000 0.37700  0.91690  0.48110  Biso   1.000  C
  C44      1.0000 0.24280  0.82790  0.46440  Biso   1.000  C
  O19      1.0000 0.15630  0.96660  0.45230  Biso   1.000  O
  O20      1.0000 0.22450  0.63820  0.46580  Biso   1.000  O
  H24      1.0000 0.88000  0.81600  0.96100  Biso   1.000  H
  Co5      1.0000 0.00000  0.00000  0.50000  Biso   1.000  Co
  Co6      1.0000 0.00000  0.50000  0.00000  Biso   1.000  Co
