data_image0
_cell_length_a       8.8017
_cell_length_b       10.6674
_cell_length_c       10.9422
_cell_angle_alpha    103.157
_cell_angle_beta     108.193
_cell_angle_gamma    97.41

_symmetry_space_group_name_H-M    "P 1"
_symmetry_int_tables_number       1

loop_
  _symmetry_equiv_pos_as_xyz
  'x, y, z'

loop_
  _atom_site_label
  _atom_site_occupancy
  _atom_site_fract_x
  _atom_site_fract_y
  _atom_site_fract_z
  _atom_site_thermal_displace_type
  _atom_site_B_iso_or_equiv
  _atom_site_type_symbol
  Zn1      1.0000 0.79882  0.83672  0.24555  Biso   1.000  Zn
  O1       1.0000 0.05310  0.94310  0.35960  Biso   1.000  O
  O2       1.0000 0.19860  0.09450  0.55450  Biso   1.000  O
  N1       1.0000 0.54760  0.75040  0.16860  Biso   1.000  N
  N2       1.0000 0.10460  0.54510  0.80340  Biso   1.000  N
  N3       1.0000 0.29110  0.69670  0.02580  Biso   1.000  N
  N4       1.0000 0.19150  0.78540  0.82770  Biso   1.000  N
  C1       1.0000 0.07260  0.01050  0.47420  Biso   1.000  C
  N5       1.0000 0.99790  0.71840  0.93850  Biso   1.000  N
  C2       1.0000 0.44080  0.77350  0.06520  Biso   1.000  C
  H1       1.0000 0.46670  0.83630  0.02410  Biso   1.000  H
  C3       1.0000 0.28140  0.77160  0.74550  Biso   1.000  C
  H2       1.0000 0.31500  0.69570  0.71300  Biso   1.000  H
  C4       1.0000 0.17460  0.91130  0.84930  Biso   1.000  C
  H3       1.0000 0.11910  0.94790  0.90340  Biso   1.000  H
  C5       1.0000 0.31260  0.88890  0.72010  Biso   1.000  C
  H4       1.0000 0.37110  0.90680  0.66620  Biso   1.000  H
  C6       1.0000 0.19280  0.45290  0.81790  Biso   1.000  C
  H5       1.0000 0.28860  0.46580  0.89070  Biso   1.000  H
  C7       1.0000 0.99490  0.75960  0.06310  Biso   1.000  C
  H6       1.0000 0.08300  0.76740  0.14040  Biso   1.000  H
  C8       1.0000 0.46090  0.65270  0.19940  Biso   1.000  C
  H7       1.0000 0.50310  0.61550  0.26840  Biso   1.000  H
  C9       1.0000 0.76040  0.76520  0.93280  Biso   1.000  C
  H8       1.0000 0.65340  0.77640  0.90140  Biso   1.000  H
  C10      1.0000 0.30460  0.61990  0.11300  Biso   1.000  C
  H9       1.0000 0.22080  0.55670  0.11230  Biso   1.000  H
  C11      1.0000 0.97530  0.48610  0.68510  Biso   1.000  C
  H10      1.0000 0.89010  0.52390  0.64590  Biso   1.000  H
  C12      1.0000 0.84750  0.72410  0.85560  Biso   1.000  C
  H11      1.0000 0.81180  0.70330  0.76250  Biso   1.000  H
  C13      1.0000 0.99440  0.36380  0.63610  Biso   1.000  C
  H12      1.0000 0.92380  0.30300  0.55660  Biso   1.000  H
  B1       1.0000 0.14430  0.68570  0.89820  Biso   1.000  B
  N6       1.0000 0.13210  0.34270  0.72030  Biso   1.000  N
  N7       1.0000 0.85380  0.78760  0.06400  Biso   1.000  N
  N8       1.0000 0.24440  0.97700  0.78610  Biso   1.000  N
  Zn2      1.0000 0.20118  0.16328  0.75445  Biso   1.000  Zn
  O3       1.0000 0.94690  0.05690  0.64040  Biso   1.000  O
  O4       1.0000 0.80140  0.90550  0.44550  Biso   1.000  O
  N9       1.0000 0.45240  0.24960  0.83140  Biso   1.000  N
  N10      1.0000 0.89540  0.45490  0.19660  Biso   1.000  N
  N11      1.0000 0.70890  0.30330  0.97420  Biso   1.000  N
  N12      1.0000 0.80850  0.21460  0.17230  Biso   1.000  N
  C14      1.0000 0.92740  0.98950  0.52580  Biso   1.000  C
  N13      1.0000 0.00210  0.28160  0.06150  Biso   1.000  N
  C15      1.0000 0.55920  0.22650  0.93480  Biso   1.000  C
  H13      1.0000 0.53330  0.16370  0.97590  Biso   1.000  H
  C16      1.0000 0.71860  0.22840  0.25450  Biso   1.000  C
  H14      1.0000 0.68500  0.30430  0.28700  Biso   1.000  H
  C17      1.0000 0.82540  0.08870  0.15070  Biso   1.000  C
  H15      1.0000 0.88090  0.05210  0.09660  Biso   1.000  H
  C18      1.0000 0.68740  0.11110  0.27990  Biso   1.000  C
  H16      1.0000 0.62890  0.09320  0.33380  Biso   1.000  H
  C19      1.0000 0.80720  0.54710  0.18210  Biso   1.000  C
  H17      1.0000 0.71140  0.53420  0.10930  Biso   1.000  H
  C20      1.0000 0.00510  0.24040  0.93690  Biso   1.000  C
  H18      1.0000 0.91700  0.23260  0.85960  Biso   1.000  H
  C21      1.0000 0.53910  0.34730  0.80060  Biso   1.000  C
  H19      1.0000 0.49690  0.38450  0.73160  Biso   1.000  H
  C22      1.0000 0.23960  0.23480  0.06720  Biso   1.000  C
  H20      1.0000 0.34660  0.22360  0.09860  Biso   1.000  H
  C23      1.0000 0.69540  0.38010  0.88700  Biso   1.000  C
  H21      1.0000 0.77920  0.44330  0.88770  Biso   1.000  H
  C24      1.0000 0.02470  0.51390  0.31490  Biso   1.000  C
  H22      1.0000 0.10990  0.47610  0.35410  Biso   1.000  H
  C25      1.0000 0.15250  0.27590  0.14440  Biso   1.000  C
  H23      1.0000 0.18820  0.29670  0.23750  Biso   1.000  H
  C26      1.0000 0.00560  0.63620  0.36390  Biso   1.000  C
  H24      1.0000 0.07620  0.69700  0.44340  Biso   1.000  H
  B2       1.0000 0.85570  0.31430  0.10180  Biso   1.000  B
  N14      1.0000 0.86790  0.65730  0.27970  Biso   1.000  N
  N15      1.0000 0.14620  0.21240  0.93600  Biso   1.000  N
  N16      1.0000 0.75560  0.02300  0.21390  Biso   1.000  N
