data_image0
_cell_length_a       9.0162
_cell_length_b       10.7479
_cell_length_c       10.8068
_cell_angle_alpha    97.57
_cell_angle_beta     97.708
_cell_angle_gamma    110.1

_symmetry_space_group_name_H-M    "P 1"
_symmetry_int_tables_number       1

loop_
  _symmetry_equiv_pos_as_xyz
  'x, y, z'

loop_
  _atom_site_label
  _atom_site_occupancy
  _atom_site_fract_x
  _atom_site_fract_y
  _atom_site_fract_z
  _atom_site_thermal_displace_type
  _atom_site_B_iso_or_equiv
  _atom_site_type_symbol
  Cd1      1.0000 0.70569  0.24814  0.68775  Biso   1.000  Cd
  O1       1.0000 0.68020  0.02930  0.60450  Biso   1.000  O
  O2       1.0000 0.55510  0.86870  0.43350  Biso   1.000  O
  N1       1.0000 0.97320  0.32710  0.77770  Biso   1.000  N
  N2       1.0000 0.21990  0.47920  0.81670  Biso   1.000  N
  N3       1.0000 0.30740  0.67230  0.70360  Biso   1.000  N
  N4       1.0000 0.40870  0.70350  0.93860  Biso   1.000  N
  C1       1.0000 0.05810  0.30720  0.88330  Biso   1.000  C
  H1       1.0000 0.01780  0.24160  0.93090  Biso   1.000  H
  C2       1.0000 0.20940  0.39840  0.90660  Biso   1.000  C
  H2       1.0000 0.29220  0.40570  0.97190  Biso   1.000  H
  C3       1.0000 0.07380  0.43020  0.74150  Biso   1.000  C
  H3       1.0000 0.04670  0.46550  0.67150  Biso   1.000  H
  C4       1.0000 0.21890  0.75370  0.71240  Biso   1.000  C
  H4       1.0000 0.19440  0.79060  0.78610  Biso   1.000  H
  C5       1.0000 0.31210  0.64450  0.57960  Biso   1.000  C
  H5       1.0000 0.36490  0.59060  0.54730  Biso   1.000  H
  C6       1.0000 0.51410  0.44550  0.75820  Biso   1.000  C
  H6       1.0000 0.43350  0.36840  0.76930  Biso   1.000  H
  C7       1.0000 0.54970  0.80910  0.99380  Biso   1.000  C
  H7       1.0000 0.64220  0.83750  0.95930  Biso   1.000  H
  C8       1.0000 0.56790  0.97100  0.51160  Biso   1.000  C
  B1       1.0000 0.36300  0.60710  0.80860  Biso   1.000  B
  C9       1.0000 0.17400  0.76970  0.59170  Biso   1.000  C
  H8       1.0000 0.11160  0.81940  0.56930  Biso   1.000  H
  C10      1.0000 0.64640  0.65170  0.74960  Biso   1.000  C
  H9       1.0000 0.67710  0.74400  0.75210  Biso   1.000  H
  N5       1.0000 0.50500  0.56900  0.77630  Biso   1.000  N
  C11      1.0000 0.31290  0.70160  0.02350  Biso   1.000  C
  H10      1.0000 0.20840  0.63910  0.01120  Biso   1.000  H
  C12      1.0000 0.73300  0.57610  0.71920  Biso   1.000  C
  H11      1.0000 0.83450  0.60810  0.69860  Biso   1.000  H
  C13      1.0000 0.52990  0.86380  0.10660  Biso   1.000  C
  N6       1.0000 0.23430  0.70160  0.50830  Biso   1.000  N
  N7       1.0000 0.64740  0.44450  0.72350  Biso   1.000  N
  N8       1.0000 0.38040  0.79640  0.12590  Biso   1.000  N
  H12      1.0000 0.59900  0.93200  0.16000  Biso   1.000  H
  Cd2      1.0000 0.29431  0.75186  0.31225  Biso   1.000  Cd
  O3       1.0000 0.31980  0.97070  0.39550  Biso   1.000  O
  O4       1.0000 0.44490  0.13130  0.56650  Biso   1.000  O
  N9       1.0000 0.02680  0.67290  0.22230  Biso   1.000  N
  N10      1.0000 0.78010  0.52080  0.18330  Biso   1.000  N
  N11      1.0000 0.69260  0.32770  0.29640  Biso   1.000  N
  N12      1.0000 0.59130  0.29650  0.06140  Biso   1.000  N
  C14      1.0000 0.94190  0.69280  0.11670  Biso   1.000  C
  H13      1.0000 0.98220  0.75840  0.06910  Biso   1.000  H
  C15      1.0000 0.79060  0.60160  0.09340  Biso   1.000  C
  H14      1.0000 0.70780  0.59430  0.02810  Biso   1.000  H
  C16      1.0000 0.92620  0.56980  0.25850  Biso   1.000  C
  H15      1.0000 0.95330  0.53450  0.32850  Biso   1.000  H
  C17      1.0000 0.78110  0.24630  0.28760  Biso   1.000  C
  H16      1.0000 0.80560  0.20940  0.21390  Biso   1.000  H
  C18      1.0000 0.68790  0.35550  0.42040  Biso   1.000  C
  H17      1.0000 0.63510  0.40940  0.45270  Biso   1.000  H
  C19      1.0000 0.48590  0.55450  0.24180  Biso   1.000  C
  H18      1.0000 0.56650  0.63160  0.23070  Biso   1.000  H
  C20      1.0000 0.45030  0.19090  0.00620  Biso   1.000  C
  H19      1.0000 0.35780  0.16250  0.04070  Biso   1.000  H
  C21      1.0000 0.43210  0.02900  0.48840  Biso   1.000  C
  B2       1.0000 0.63700  0.39290  0.19140  Biso   1.000  B
  C22      1.0000 0.82600  0.23030  0.40830  Biso   1.000  C
  H20      1.0000 0.88840  0.18060  0.43070  Biso   1.000  H
  C23      1.0000 0.35360  0.34830  0.25040  Biso   1.000  C
  H21      1.0000 0.32290  0.25600  0.24790  Biso   1.000  H
  N13      1.0000 0.49500  0.43100  0.22370  Biso   1.000  N
  C24      1.0000 0.68710  0.29840  0.97650  Biso   1.000  C
  H22      1.0000 0.79160  0.36090  0.98880  Biso   1.000  H
  C25      1.0000 0.26700  0.42390  0.28080  Biso   1.000  C
  H23      1.0000 0.16550  0.39190  0.30140  Biso   1.000  H
  C26      1.0000 0.47010  0.13620  0.89340  Biso   1.000  C
  N14      1.0000 0.76570  0.29840  0.49170  Biso   1.000  N
  N15      1.0000 0.35260  0.55550  0.27650  Biso   1.000  N
  N16      1.0000 0.61960  0.20360  0.87410  Biso   1.000  N
  H24      1.0000 0.40100  0.06800  0.84000  Biso   1.000  H
