data_CUGLTM01_clean
_audit_creation_date              2014-07-02
_audit_creation_method            'Materials Studio'
_symmetry_space_group_name_H-M    'P1'
_symmetry_Int_Tables_number       1
_symmetry_cell_setting            triclinic
loop_
_symmetry_equiv_pos_as_xyz
  x,y,z
_cell_length_a                    7.2255
_cell_length_b                    10.3053
_cell_length_c                    11.0499
_cell_angle_alpha                 90.0000
_cell_angle_beta                  90.0000
_cell_angle_gamma                 90.0000
loop_
_atom_site_label
_atom_site_type_symbol
_atom_site_fract_x
_atom_site_fract_y
_atom_site_fract_z
_atom_site_U_iso_or_equiv
_atom_site_adp_type
_atom_site_occupancy
Cu1    Cu    0.10066   0.93320   0.52934   0.01267  Uiso   1.00
Cu2    Cu    0.39934   0.06680   0.02934   0.01267  Uiso   1.00
H1     H     0.16200   0.72800   0.27880   0.01267  Uiso   1.00
H2     H     0.21460   0.94950   0.30210   0.01267  Uiso   1.00
H3     H     0.30060   0.85010   0.37350   0.01267  Uiso   1.00
H4     H     0.90080   0.76010   0.16950   0.01267  Uiso   1.00
H5     H     0.00860   0.87920   0.15410   0.01267  Uiso   1.00
H6     H     0.71230   0.86880   0.31130   0.01267  Uiso   1.00
H7     H     0.83550   0.00570   0.30630   0.01267  Uiso   1.00
H8     H     0.33800   0.27200   0.77880   0.01267  Uiso   1.00
H9     H     0.28540   0.05050   0.80210   0.01267  Uiso   1.00
H10    H     0.19940   0.14990   0.87350   0.01267  Uiso   1.00
H11    H     0.59920   0.23990   0.66950   0.01267  Uiso   1.00
H12    H     0.49140   0.12080   0.65410   0.01267  Uiso   1.00
H13    H     0.78770   0.13120   0.81130   0.01267  Uiso   1.00
H14    H     0.66450   0.99430   0.80630   0.01267  Uiso   1.00
C1     C     0.97190   0.71530   0.40980   0.01267  Uiso   1.00
C2     C     0.07890   0.78430   0.31100   0.01267  Uiso   1.00
C3     C     0.94910   0.83120   0.21330   0.01267  Uiso   1.00
C4     C     0.79320   0.91860   0.25690   0.01267  Uiso   1.00
C5     C     0.67260   0.96910   0.15490   0.01267  Uiso   1.00
C6     C     0.52810   0.28470   0.90980   0.01267  Uiso   1.00
C7     C     0.42110   0.21570   0.81100   0.01267  Uiso   1.00
C8     C     0.55090   0.16880   0.71330   0.01267  Uiso   1.00
C9     C     0.70680   0.08140   0.75690   0.01267  Uiso   1.00
C10    C     0.82740   0.03090   0.65490   0.01267  Uiso   1.00
N1     N     0.19000   0.89160   0.36250   0.01267  Uiso   1.00
N2     N     0.31000   0.10840   0.86250   0.01267  Uiso   1.00
O1     O     0.98010   0.76210   0.51700   0.01267  Uiso   1.00
O2     O     0.87590   0.62060   0.38050   0.01267  Uiso   1.00
O3     O     0.52530   0.02900   0.18460   0.01267  Uiso   1.00
O4     O     0.71380   0.94910   0.04710   0.01267  Uiso   1.00
O5     O     0.51990   0.23790   0.01700   0.01267  Uiso   1.00
O6     O     0.62410   0.37940   0.88050   0.01267  Uiso   1.00
O7     O     0.97470   0.97100   0.68460   0.01267  Uiso   1.00
O8     O     0.78620   0.05090   0.54710   0.01267  Uiso   1.00
Cu3    Cu    0.89934   0.43320   0.97066   0.01267  Uiso   1.00
Cu4    Cu    0.60066   0.56680   0.47066   0.01267  Uiso   1.00
H15    H     0.83800   0.22800   0.22120   0.01267  Uiso   1.00
H16    H     0.78540   0.44950   0.19790   0.01267  Uiso   1.00
H17    H     0.69940   0.35010   0.12650   0.01267  Uiso   1.00
H18    H     0.09920   0.26010   0.33050   0.01267  Uiso   1.00
H19    H     0.99140   0.37920   0.34590   0.01267  Uiso   1.00
H20    H     0.28770   0.36880   0.18870   0.01267  Uiso   1.00
H21    H     0.16450   0.50570   0.19370   0.01267  Uiso   1.00
H22    H     0.66200   0.77200   0.72120   0.01267  Uiso   1.00
H23    H     0.71460   0.55050   0.69790   0.01267  Uiso   1.00
H24    H     0.80060   0.64990   0.62650   0.01267  Uiso   1.00
H25    H     0.40080   0.73990   0.83050   0.01267  Uiso   1.00
H26    H     0.50860   0.62080   0.84590   0.01267  Uiso   1.00
H27    H     0.21230   0.63120   0.68870   0.01267  Uiso   1.00
H28    H     0.33550   0.49430   0.69370   0.01267  Uiso   1.00
C11    C     0.02810   0.21530   0.09020   0.01267  Uiso   1.00
C12    C     0.92110   0.28430   0.18900   0.01267  Uiso   1.00
C13    C     0.05090   0.33120   0.28670   0.01267  Uiso   1.00
C14    C     0.20680   0.41860   0.24310   0.01267  Uiso   1.00
C15    C     0.32740   0.46910   0.34510   0.01267  Uiso   1.00
C16    C     0.47190   0.78470   0.59020   0.01267  Uiso   1.00
C17    C     0.57890   0.71570   0.68900   0.01267  Uiso   1.00
C18    C     0.44910   0.66880   0.78670   0.01267  Uiso   1.00
C19    C     0.29320   0.58140   0.74310   0.01267  Uiso   1.00
C20    C     0.17260   0.53090   0.84510   0.01267  Uiso   1.00
N3     N     0.81000   0.39160   0.13750   0.01267  Uiso   1.00
N4     N     0.69000   0.60840   0.63750   0.01267  Uiso   1.00
O9     O     0.01990   0.26210   0.98300   0.01267  Uiso   1.00
O10    O     0.12410   0.12060   0.11950   0.01267  Uiso   1.00
O11    O     0.47470   0.52900   0.31540   0.01267  Uiso   1.00
O12    O     0.28620   0.44910   0.45290   0.01267  Uiso   1.00
O13    O     0.48010   0.73790   0.48300   0.01267  Uiso   1.00
O14    O     0.37590   0.87940   0.61950   0.01267  Uiso   1.00
O15    O     0.02530   0.47100   0.81540   0.01267  Uiso   1.00
O16    O     0.21380   0.55090   0.95290   0.01267  Uiso   1.00
