data_CUGLTM_clean
_audit_creation_date              2014-07-02
_audit_creation_method            'Materials Studio'
_symmetry_space_group_name_H-M    'P1'
_symmetry_Int_Tables_number       1
_symmetry_cell_setting            triclinic
loop_
_symmetry_equiv_pos_as_xyz
  x,y,z
_cell_length_a                    7.2380
_cell_length_b                    10.3500
_cell_length_c                    11.0840
_cell_angle_alpha                 90.0000
_cell_angle_beta                  90.0000
_cell_angle_gamma                 90.0000
loop_
_atom_site_label
_atom_site_type_symbol
_atom_site_fract_x
_atom_site_fract_y
_atom_site_fract_z
_atom_site_U_iso_or_equiv
_atom_site_adp_type
_atom_site_occupancy
Cu1    Cu    0.64970   0.81668   0.72067   0.01267  Uiso   1.00
Cu2    Cu    0.35030   0.68332   0.22067   0.01267  Uiso   1.00
H1     H     0.58300   0.02200   0.97200   0.01267  Uiso   1.00
H2     H     0.83900   0.98100   0.08100   0.01267  Uiso   1.00
H3     H     0.74100   0.86200   0.10300   0.01267  Uiso   1.00
H4     H     0.03900   0.89300   0.93700   0.01267  Uiso   1.00
H5     H     0.90800   0.74100   0.95400   0.01267  Uiso   1.00
H6     H     0.47600   0.86100   0.86500   0.01267  Uiso   1.00
H7     H     0.57400   0.78200   0.94600   0.01267  Uiso   1.00
H8     H     0.41700   0.47800   0.47200   0.01267  Uiso   1.00
H9     H     0.16100   0.51900   0.58100   0.01267  Uiso   1.00
H10    H     0.25900   0.63800   0.60300   0.01267  Uiso   1.00
H11    H     0.96100   0.60700   0.43700   0.01267  Uiso   1.00
H12    H     0.09200   0.75900   0.45400   0.01267  Uiso   1.00
H13    H     0.52400   0.63900   0.36500   0.01267  Uiso   1.00
H14    H     0.42600   0.71800   0.44600   0.01267  Uiso   1.00
C1     C     0.77800   0.03400   0.84050   0.01267  Uiso   1.00
C2     C     0.66990   0.96610   0.93890   0.01267  Uiso   1.00
C3     C     0.80150   0.91760   0.03700   0.01267  Uiso   1.00
C4     C     0.95730   0.83260   0.99330   0.01267  Uiso   1.00
C5     C     0.07560   0.78290   0.09540   0.01267  Uiso   1.00
C6     C     0.22200   0.46600   0.34050   0.01267  Uiso   1.00
C7     C     0.33010   0.53390   0.43890   0.01267  Uiso   1.00
C8     C     0.19850   0.58240   0.53700   0.01267  Uiso   1.00
C9     C     0.04270   0.66740   0.49330   0.01267  Uiso   1.00
C10    C     0.92440   0.71710   0.59540   0.01267  Uiso   1.00
N1     N     0.56020   0.85830   0.88670   0.01267  Uiso   1.00
N2     N     0.43980   0.64170   0.38670   0.01267  Uiso   1.00
O1     O     0.76830   0.98720   0.73340   0.01267  Uiso   1.00
O2     O     0.87410   0.12860   0.86900   0.01267  Uiso   1.00
O3     O     0.22490   0.72140   0.06590   0.01267  Uiso   1.00
O4     O     0.03560   0.80060   0.20310   0.01267  Uiso   1.00
O5     O     0.23170   0.51280   0.23340   0.01267  Uiso   1.00
O6     O     0.12590   0.37140   0.36900   0.01267  Uiso   1.00
O7     O     0.77510   0.77860   0.56590   0.01267  Uiso   1.00
O8     O     0.96440   0.69940   0.70310   0.01267  Uiso   1.00
Cu3    Cu    0.14970   0.18332   0.77933   0.01267  Uiso   1.00
Cu4    Cu    0.85030   0.31668   0.27933   0.01267  Uiso   1.00
H15    H     0.08300   0.97800   0.52800   0.01267  Uiso   1.00
H16    H     0.33900   0.01900   0.41900   0.01267  Uiso   1.00
H17    H     0.24100   0.13800   0.39700   0.01267  Uiso   1.00
H18    H     0.53900   0.10700   0.56300   0.01267  Uiso   1.00
H19    H     0.40800   0.25900   0.54600   0.01267  Uiso   1.00
H20    H     0.97600   0.13900   0.63500   0.01267  Uiso   1.00
H21    H     0.07400   0.21800   0.55400   0.01267  Uiso   1.00
H22    H     0.91700   0.52200   0.02800   0.01267  Uiso   1.00
H23    H     0.66100   0.48100   0.91900   0.01267  Uiso   1.00
H24    H     0.75900   0.36200   0.89700   0.01267  Uiso   1.00
H25    H     0.46100   0.39300   0.06300   0.01267  Uiso   1.00
H26    H     0.59200   0.24100   0.04600   0.01267  Uiso   1.00
H27    H     0.02400   0.36100   0.13500   0.01267  Uiso   1.00
H28    H     0.92600   0.28200   0.05400   0.01267  Uiso   1.00
C11    C     0.27800   0.96600   0.65950   0.01267  Uiso   1.00
C12    C     0.16990   0.03390   0.56110   0.01267  Uiso   1.00
C13    C     0.30150   0.08240   0.46300   0.01267  Uiso   1.00
C14    C     0.45730   0.16740   0.50670   0.01267  Uiso   1.00
C15    C     0.57560   0.21710   0.40460   0.01267  Uiso   1.00
C16    C     0.72200   0.53400   0.15950   0.01267  Uiso   1.00
C17    C     0.83010   0.46610   0.06110   0.01267  Uiso   1.00
C18    C     0.69850   0.41760   0.96300   0.01267  Uiso   1.00
C19    C     0.54270   0.33260   0.00670   0.01267  Uiso   1.00
C20    C     0.42440   0.28290   0.90460   0.01267  Uiso   1.00
N3     N     0.06020   0.14170   0.61330   0.01267  Uiso   1.00
N4     N     0.93980   0.35830   0.11330   0.01267  Uiso   1.00
O9     O     0.26830   0.01280   0.76660   0.01267  Uiso   1.00
O10    O     0.37410   0.87140   0.63100   0.01267  Uiso   1.00
O11    O     0.72490   0.27860   0.43410   0.01267  Uiso   1.00
O12    O     0.53560   0.19940   0.29690   0.01267  Uiso   1.00
O13    O     0.73170   0.48720   0.26660   0.01267  Uiso   1.00
O14    O     0.62590   0.62860   0.13100   0.01267  Uiso   1.00
O15    O     0.27510   0.22140   0.93410   0.01267  Uiso   1.00
O16    O     0.46440   0.30060   0.79690   0.01267  Uiso   1.00
