data_image0
_cell_length_a       10.772
_cell_length_b       21.7524
_cell_length_c       9.8578
_cell_angle_alpha    90
_cell_angle_beta     111.728
_cell_angle_gamma    90

_symmetry_space_group_name_H-M    "P 1"
_symmetry_int_tables_number       1

loop_
  _symmetry_equiv_pos_as_xyz
  'x, y, z'

loop_
  _atom_site_label
  _atom_site_occupancy
  _atom_site_fract_x
  _atom_site_fract_y
  _atom_site_fract_z
  _atom_site_thermal_displace_type
  _atom_site_B_iso_or_equiv
  _atom_site_type_symbol
  Cu1      1.0000 0.96344  0.11005  0.56382  Biso   1.000  Cu
  Cu2      1.0000 0.50815  0.86588  0.00403  Biso   1.000  Cu
  O1       1.0000 0.78966  0.08348  0.55450  Biso   1.000  O
  O2       1.0000 0.66691  0.16845  0.47920  Biso   1.000  O
  O3       1.0000 0.15527  0.10078  0.62115  Biso   1.000  O
  O4       1.0000 0.19420  0.15644  0.45080  Biso   1.000  O
  O5       1.0000 0.47750  0.93373  0.86820  Biso   1.000  O
  O6       1.0000 0.68310  0.93968  0.86250  Biso   1.000  O
  O7       1.0000 0.79962  0.16548  0.86510  Biso   1.000  O
  N1       1.0000 0.92050  0.08320  0.35630  Biso   1.000  N
  N2       1.0000 0.67850  0.13408  0.00390  Biso   1.000  N
  N3       1.0000 0.47390  0.19894  0.84630  Biso   1.000  N
  N4       1.0000 0.48510  0.28784  0.65240  Biso   1.000  N
  C1       1.0000 0.81780  0.11053  0.25210  Biso   1.000  C
  H1       1.0000 0.76560  0.13790  0.28030  Biso   1.000  H
  C2       1.0000 0.78550  0.10015  0.10430  Biso   1.000  C
  C3       1.0000 0.96360  0.02704  0.17240  Biso   1.000  C
  H2       1.0000 0.01380  0.99750  0.14750  Biso   1.000  H
  C4       1.0000 0.99250  0.04189  0.31580  Biso   1.000  C
  H3       1.0000 0.06430  0.02270  0.38740  Biso   1.000  H
  C5       1.0000 0.85870  0.05643  0.06420  Biso   1.000  C
  H4       1.0000 0.83810  0.04690  0.96630  Biso   1.000  H
  C6       1.0000 0.37100  0.23664  0.78410  Biso   1.000  C
  H5       1.0000 0.29400  0.23260  0.80500  Biso   1.000  H
  C7       1.0000 0.37850  0.28164  0.68870  Biso   1.000  C
  H6       1.0000 0.30690  0.30840  0.64860  Biso   1.000  H
  C8       1.0000 0.58650  0.24901  0.71350  Biso   1.000  C
  H7       1.0000 0.66150  0.25160  0.68840  Biso   1.000  H
  C9       1.0000 0.58260  0.20486  0.81370  Biso   1.000  C
  C10      1.0000 0.69890  0.16427  0.89710  Biso   1.000  C
  C11      1.0000 0.68520  0.11602  0.53080  Biso   1.000  C
  C12      1.0000 0.58040  0.08639  0.57660  Biso   1.000  C
  C13      1.0000 0.61310  0.03508  0.66730  Biso   1.000  C
  H8       1.0000 0.69710  0.01720  0.69220  Biso   1.000  H
  C14      1.0000 0.45430  0.11195  0.53720  Biso   1.000  C
  H9       1.0000 0.43150  0.14580  0.47540  Biso   1.000  H
  C15      1.0000 0.22700  0.11780  0.54780  Biso   1.000  C
  C16      1.0000 0.36080  0.08726  0.58960  Biso   1.000  C
  C17      1.0000 0.39540  0.03640  0.68230  Biso   1.000  C
  H10      1.0000 0.33380  0.02000  0.71810  Biso   1.000  H
  C18      1.0000 0.52140  0.01021  0.72130  Biso   1.000  C
  C19      1.0000 0.56520  0.95686  0.82480  Biso   1.000  C
  Cu3      1.0000 0.03656  0.61005  0.93618  Biso   1.000  Cu
  Cu4      1.0000 0.49185  0.36588  0.49597  Biso   1.000  Cu
  O8       1.0000 0.21034  0.58348  0.94550  Biso   1.000  O
  O9       1.0000 0.33309  0.66845  0.02080  Biso   1.000  O
  O10      1.0000 0.84473  0.60078  0.87885  Biso   1.000  O
  O11      1.0000 0.80580  0.65644  0.04920  Biso   1.000  O
  O12      1.0000 0.52250  0.43373  0.63180  Biso   1.000  O
  O13      1.0000 0.31690  0.43968  0.63750  Biso   1.000  O
  O14      1.0000 0.20038  0.66548  0.63490  Biso   1.000  O
  N5       1.0000 0.07950  0.58320  0.14370  Biso   1.000  N
  N6       1.0000 0.32150  0.63408  0.49610  Biso   1.000  N
  N7       1.0000 0.52610  0.69894  0.65370  Biso   1.000  N
  N8       1.0000 0.51490  0.78784  0.84760  Biso   1.000  N
  C20      1.0000 0.18220  0.61053  0.24790  Biso   1.000  C
  H11      1.0000 0.23440  0.63790  0.21970  Biso   1.000  H
  C21      1.0000 0.21450  0.60015  0.39570  Biso   1.000  C
  C22      1.0000 0.03640  0.52704  0.32760  Biso   1.000  C
  H12      1.0000 0.98620  0.49750  0.35250  Biso   1.000  H
  C23      1.0000 0.00750  0.54189  0.18420  Biso   1.000  C
  H13      1.0000 0.93570  0.52270  0.11260  Biso   1.000  H
  C24      1.0000 0.14130  0.55643  0.43580  Biso   1.000  C
  H14      1.0000 0.16190  0.54690  0.53370  Biso   1.000  H
  C25      1.0000 0.62900  0.73664  0.71590  Biso   1.000  C
  H15      1.0000 0.70600  0.73260  0.69500  Biso   1.000  H
  C26      1.0000 0.62150  0.78164  0.81130  Biso   1.000  C
  H16      1.0000 0.69310  0.80840  0.85140  Biso   1.000  H
  C27      1.0000 0.41350  0.74901  0.78650  Biso   1.000  C
  H17      1.0000 0.33850  0.75160  0.81160  Biso   1.000  H
  C28      1.0000 0.41740  0.70486  0.68630  Biso   1.000  C
  C29      1.0000 0.30110  0.66427  0.60290  Biso   1.000  C
  C30      1.0000 0.31480  0.61602  0.96920  Biso   1.000  C
  C31      1.0000 0.41960  0.58639  0.92340  Biso   1.000  C
  C32      1.0000 0.38690  0.53508  0.83270  Biso   1.000  C
  H18      1.0000 0.30290  0.51720  0.80780  Biso   1.000  H
  C33      1.0000 0.54570  0.61195  0.96280  Biso   1.000  C
  H19      1.0000 0.56850  0.64580  0.02460  Biso   1.000  H
  C34      1.0000 0.77300  0.61780  0.95220  Biso   1.000  C
  C35      1.0000 0.63920  0.58726  0.91040  Biso   1.000  C
  C36      1.0000 0.60460  0.53640  0.81770  Biso   1.000  C
  H20      1.0000 0.66620  0.52000  0.78190  Biso   1.000  H
  C37      1.0000 0.47860  0.51021  0.77870  Biso   1.000  C
  C38      1.0000 0.43480  0.45686  0.67520  Biso   1.000  C
  Cu5      1.0000 0.03656  0.88995  0.43618  Biso   1.000  Cu
  Cu6      1.0000 0.49185  0.13412  0.99597  Biso   1.000  Cu
  O15      1.0000 0.21034  0.91652  0.44550  Biso   1.000  O
  O16      1.0000 0.33309  0.83155  0.52080  Biso   1.000  O
  O17      1.0000 0.84473  0.89922  0.37885  Biso   1.000  O
  O18      1.0000 0.80580  0.84356  0.54920  Biso   1.000  O
  O19      1.0000 0.52250  0.06627  0.13180  Biso   1.000  O
  O20      1.0000 0.31690  0.06032  0.13750  Biso   1.000  O
  O21      1.0000 0.20038  0.83452  0.13490  Biso   1.000  O
  N9       1.0000 0.07950  0.91680  0.64370  Biso   1.000  N
  N10      1.0000 0.32150  0.86592  0.99610  Biso   1.000  N
  N11      1.0000 0.52610  0.80106  0.15370  Biso   1.000  N
  N12      1.0000 0.51490  0.71216  0.34760  Biso   1.000  N
  C39      1.0000 0.18220  0.88947  0.74790  Biso   1.000  C
  H21      1.0000 0.23440  0.86210  0.71970  Biso   1.000  H
  C40      1.0000 0.21450  0.89985  0.89570  Biso   1.000  C
  C41      1.0000 0.03640  0.97296  0.82760  Biso   1.000  C
  H22      1.0000 0.98620  0.00250  0.85250  Biso   1.000  H
  C42      1.0000 0.00750  0.95811  0.68420  Biso   1.000  C
  H23      1.0000 0.93570  0.97730  0.61260  Biso   1.000  H
  C43      1.0000 0.14130  0.94357  0.93580  Biso   1.000  C
  H24      1.0000 0.16190  0.95310  0.03370  Biso   1.000  H
  C44      1.0000 0.62900  0.76336  0.21590  Biso   1.000  C
  H25      1.0000 0.70600  0.76740  0.19500  Biso   1.000  H
  C45      1.0000 0.62150  0.71836  0.31130  Biso   1.000  C
  H26      1.0000 0.69310  0.69160  0.35140  Biso   1.000  H
  C46      1.0000 0.41350  0.75099  0.28650  Biso   1.000  C
  H27      1.0000 0.33850  0.74840  0.31160  Biso   1.000  H
  C47      1.0000 0.41740  0.79514  0.18630  Biso   1.000  C
  C48      1.0000 0.30110  0.83573  0.10290  Biso   1.000  C
  C49      1.0000 0.31480  0.88398  0.46920  Biso   1.000  C
  C50      1.0000 0.41960  0.91361  0.42340  Biso   1.000  C
  C51      1.0000 0.38690  0.96492  0.33270  Biso   1.000  C
  H28      1.0000 0.30290  0.98280  0.30780  Biso   1.000  H
  C52      1.0000 0.54570  0.88805  0.46280  Biso   1.000  C
  H29      1.0000 0.56850  0.85420  0.52460  Biso   1.000  H
  C53      1.0000 0.77300  0.88220  0.45220  Biso   1.000  C
  C54      1.0000 0.63920  0.91274  0.41040  Biso   1.000  C
  C55      1.0000 0.60460  0.96360  0.31770  Biso   1.000  C
  H30      1.0000 0.66620  0.98000  0.28190  Biso   1.000  H
  C56      1.0000 0.47860  0.98979  0.27870  Biso   1.000  C
  C57      1.0000 0.43480  0.04314  0.17520  Biso   1.000  C
  Cu7      1.0000 0.96344  0.38995  0.06382  Biso   1.000  Cu
  Cu8      1.0000 0.50815  0.63412  0.50403  Biso   1.000  Cu
  O22      1.0000 0.78966  0.41652  0.05450  Biso   1.000  O
  O23      1.0000 0.66691  0.33155  0.97920  Biso   1.000  O
  O24      1.0000 0.15527  0.39922  0.12115  Biso   1.000  O
  O25      1.0000 0.19420  0.34356  0.95080  Biso   1.000  O
  O26      1.0000 0.47750  0.56627  0.36820  Biso   1.000  O
  O27      1.0000 0.68310  0.56032  0.36250  Biso   1.000  O
  O28      1.0000 0.79962  0.33452  0.36510  Biso   1.000  O
  N13      1.0000 0.92050  0.41680  0.85630  Biso   1.000  N
  N14      1.0000 0.67850  0.36592  0.50390  Biso   1.000  N
  N15      1.0000 0.47390  0.30106  0.34630  Biso   1.000  N
  N16      1.0000 0.48510  0.21216  0.15240  Biso   1.000  N
  C58      1.0000 0.81780  0.38947  0.75210  Biso   1.000  C
  H31      1.0000 0.76560  0.36210  0.78030  Biso   1.000  H
  C59      1.0000 0.78550  0.39985  0.60430  Biso   1.000  C
  C60      1.0000 0.96360  0.47296  0.67240  Biso   1.000  C
  H32      1.0000 0.01380  0.50250  0.64750  Biso   1.000  H
  C61      1.0000 0.99250  0.45811  0.81580  Biso   1.000  C
  H33      1.0000 0.06430  0.47730  0.88740  Biso   1.000  H
  C62      1.0000 0.85870  0.44357  0.56420  Biso   1.000  C
  H34      1.0000 0.83810  0.45310  0.46630  Biso   1.000  H
  C63      1.0000 0.37100  0.26336  0.28410  Biso   1.000  C
  H35      1.0000 0.29400  0.26740  0.30500  Biso   1.000  H
  C64      1.0000 0.37850  0.21836  0.18870  Biso   1.000  C
  H36      1.0000 0.30690  0.19160  0.14860  Biso   1.000  H
  C65      1.0000 0.58650  0.25099  0.21350  Biso   1.000  C
  H37      1.0000 0.66150  0.24840  0.18840  Biso   1.000  H
  C66      1.0000 0.58260  0.29514  0.31370  Biso   1.000  C
  C67      1.0000 0.69890  0.33573  0.39710  Biso   1.000  C
  C68      1.0000 0.68520  0.38398  0.03080  Biso   1.000  C
  C69      1.0000 0.58040  0.41361  0.07660  Biso   1.000  C
  C70      1.0000 0.61310  0.46492  0.16730  Biso   1.000  C
  H38      1.0000 0.69710  0.48280  0.19220  Biso   1.000  H
  C71      1.0000 0.45430  0.38805  0.03720  Biso   1.000  C
  H39      1.0000 0.43150  0.35420  0.97540  Biso   1.000  H
  C72      1.0000 0.22700  0.38220  0.04780  Biso   1.000  C
  C73      1.0000 0.36080  0.41274  0.08960  Biso   1.000  C
  C74      1.0000 0.39540  0.46360  0.18230  Biso   1.000  C
  H40      1.0000 0.33380  0.48000  0.21810  Biso   1.000  H
  C75      1.0000 0.52140  0.48979  0.22130  Biso   1.000  C
  C76      1.0000 0.56520  0.54314  0.32480  Biso   1.000  C
