data_image0
_cell_length_a       19.455
_cell_length_b       19.455
_cell_length_c       3.5339
_cell_angle_alpha    90
_cell_angle_beta     90
_cell_angle_gamma    90

_symmetry_space_group_name_H-M    "P 1"
_symmetry_int_tables_number       1

loop_
  _symmetry_equiv_pos_as_xyz
  'x, y, z'

loop_
  _atom_site_label
  _atom_site_occupancy
  _atom_site_fract_x
  _atom_site_fract_y
  _atom_site_fract_z
  _atom_site_thermal_displace_type
  _atom_site_B_iso_or_equiv
  _atom_site_type_symbol
  Ag1      1.0000 0.37507  0.45533  0.99760  Biso   1.000  Ag
  N1       1.0000 0.32460  0.54110  0.21200  Biso   1.000  N
  N2       1.0000 0.35410  0.60580  0.19300  Biso   1.000  N
  N3       1.0000 0.24980  0.61970  0.45800  Biso   1.000  N
  N4       1.0000 0.21200  0.50100  0.40000  Biso   1.000  N
  H1       1.0000 0.17310  0.50960  0.50920  Biso   1.000  H
  H2       1.0000 0.22150  0.46040  0.32680  Biso   1.000  H
  C1       1.0000 0.26040  0.55520  0.35000  Biso   1.000  C
  C2       1.0000 0.30550  0.65010  0.37000  Biso   1.000  C
  N5       1.0000 0.32600  0.72200  0.38500  Biso   1.000  N
  H3       1.0000 0.29750  0.75250  0.46630  Biso   1.000  H
  H4       1.0000 0.36630  0.73410  0.31280  Biso   1.000  H
  H5       1.0000 0.22640  0.52180  0.36770  Biso   1.000  H
  H6       1.0000 0.31360  0.69640  0.41600  Biso   1.000  H
  Ag2      1.0000 0.62493  0.54467  0.99760  Biso   1.000  Ag
  N6       1.0000 0.67540  0.45890  0.21200  Biso   1.000  N
  N7       1.0000 0.64590  0.39420  0.19300  Biso   1.000  N
  N8       1.0000 0.75020  0.38030  0.45800  Biso   1.000  N
  N9       1.0000 0.78800  0.49900  0.40000  Biso   1.000  N
  H7       1.0000 0.82690  0.49040  0.50920  Biso   1.000  H
  H8       1.0000 0.77850  0.53960  0.32680  Biso   1.000  H
  C3       1.0000 0.73960  0.44480  0.35000  Biso   1.000  C
  C4       1.0000 0.69450  0.34990  0.37000  Biso   1.000  C
  N10      1.0000 0.67400  0.27800  0.38500  Biso   1.000  N
  H9       1.0000 0.70250  0.24750  0.46630  Biso   1.000  H
  H10      1.0000 0.63370  0.26590  0.31280  Biso   1.000  H
  H11      1.0000 0.77360  0.47820  0.36770  Biso   1.000  H
  H12      1.0000 0.68640  0.30360  0.41600  Biso   1.000  H
  Ag3      1.0000 0.45533  0.62493  0.00240  Biso   1.000  Ag
  N11      1.0000 0.54110  0.67540  0.78800  Biso   1.000  N
  N12      1.0000 0.60580  0.64590  0.80700  Biso   1.000  N
  N13      1.0000 0.61970  0.75020  0.54200  Biso   1.000  N
  N14      1.0000 0.50100  0.78800  0.60000  Biso   1.000  N
  H13      1.0000 0.50960  0.82690  0.49080  Biso   1.000  H
  H14      1.0000 0.46040  0.77850  0.67320  Biso   1.000  H
  C5       1.0000 0.55520  0.73960  0.65000  Biso   1.000  C
  C6       1.0000 0.65010  0.69450  0.63000  Biso   1.000  C
  N15      1.0000 0.72200  0.67400  0.61500  Biso   1.000  N
  H15      1.0000 0.75250  0.70250  0.53370  Biso   1.000  H
  H16      1.0000 0.73410  0.63370  0.68720  Biso   1.000  H
  H17      1.0000 0.52180  0.77360  0.63230  Biso   1.000  H
  H18      1.0000 0.69640  0.68640  0.58400  Biso   1.000  H
  Ag4      1.0000 0.54467  0.37507  0.00240  Biso   1.000  Ag
  N16      1.0000 0.45890  0.32460  0.78800  Biso   1.000  N
  N17      1.0000 0.39420  0.35410  0.80700  Biso   1.000  N
  N18      1.0000 0.38030  0.24980  0.54200  Biso   1.000  N
  N19      1.0000 0.49900  0.21200  0.60000  Biso   1.000  N
  H19      1.0000 0.49040  0.17310  0.49080  Biso   1.000  H
  H20      1.0000 0.53960  0.22150  0.67320  Biso   1.000  H
  C7       1.0000 0.44480  0.26040  0.65000  Biso   1.000  C
  C8       1.0000 0.34990  0.30550  0.63000  Biso   1.000  C
  N20      1.0000 0.27800  0.32600  0.61500  Biso   1.000  N
  H21      1.0000 0.24750  0.29750  0.53370  Biso   1.000  H
  H22      1.0000 0.26590  0.36630  0.68720  Biso   1.000  H
  H23      1.0000 0.47820  0.22640  0.63230  Biso   1.000  H
  H24      1.0000 0.30360  0.31360  0.58400  Biso   1.000  H
  Ag5      1.0000 0.87507  0.04467  0.49760  Biso   1.000  Ag
  N21      1.0000 0.82460  0.95890  0.71200  Biso   1.000  N
  N22      1.0000 0.85410  0.89420  0.69300  Biso   1.000  N
  N23      1.0000 0.74980  0.88030  0.95800  Biso   1.000  N
  N24      1.0000 0.71200  0.99900  0.90000  Biso   1.000  N
  H25      1.0000 0.67310  0.99040  0.00920  Biso   1.000  H
  H26      1.0000 0.72150  0.03960  0.82680  Biso   1.000  H
  C9       1.0000 0.76040  0.94480  0.85000  Biso   1.000  C
  C10      1.0000 0.80550  0.84990  0.87000  Biso   1.000  C
  N25      1.0000 0.82600  0.77800  0.88500  Biso   1.000  N
  H27      1.0000 0.79750  0.74750  0.96630  Biso   1.000  H
  H28      1.0000 0.86630  0.76590  0.81280  Biso   1.000  H
  H29      1.0000 0.72640  0.97820  0.86770  Biso   1.000  H
  H30      1.0000 0.81360  0.80360  0.91600  Biso   1.000  H
  Ag6      1.0000 0.12493  0.95533  0.49760  Biso   1.000  Ag
  N26      1.0000 0.17540  0.04110  0.71200  Biso   1.000  N
  N27      1.0000 0.14590  0.10580  0.69300  Biso   1.000  N
  N28      1.0000 0.25020  0.11970  0.95800  Biso   1.000  N
  N29      1.0000 0.28800  0.00100  0.90000  Biso   1.000  N
  H31      1.0000 0.32690  0.00960  0.00920  Biso   1.000  H
  H32      1.0000 0.27850  0.96040  0.82680  Biso   1.000  H
  C11      1.0000 0.23960  0.05520  0.85000  Biso   1.000  C
  C12      1.0000 0.19450  0.15010  0.87000  Biso   1.000  C
  N30      1.0000 0.17400  0.22200  0.88500  Biso   1.000  N
  H33      1.0000 0.20250  0.25250  0.96630  Biso   1.000  H
  H34      1.0000 0.13370  0.23410  0.81280  Biso   1.000  H
  H35      1.0000 0.27360  0.02180  0.86770  Biso   1.000  H
  H36      1.0000 0.18640  0.19640  0.91600  Biso   1.000  H
  Ag7      1.0000 0.95533  0.87507  0.50240  Biso   1.000  Ag
  N31      1.0000 0.04110  0.82460  0.28800  Biso   1.000  N
  N32      1.0000 0.10580  0.85410  0.30700  Biso   1.000  N
  N33      1.0000 0.11970  0.74980  0.04200  Biso   1.000  N
  N34      1.0000 0.00100  0.71200  0.10000  Biso   1.000  N
  H37      1.0000 0.00960  0.67310  0.99080  Biso   1.000  H
  H38      1.0000 0.96040  0.72150  0.17320  Biso   1.000  H
  C13      1.0000 0.05520  0.76040  0.15000  Biso   1.000  C
  C14      1.0000 0.15010  0.80550  0.13000  Biso   1.000  C
  N35      1.0000 0.22200  0.82600  0.11500  Biso   1.000  N
  H39      1.0000 0.25250  0.79750  0.03370  Biso   1.000  H
  H40      1.0000 0.23410  0.86630  0.18720  Biso   1.000  H
  H41      1.0000 0.02180  0.72640  0.13230  Biso   1.000  H
  H42      1.0000 0.19640  0.81360  0.08400  Biso   1.000  H
  Ag8      1.0000 0.04467  0.12493  0.50240  Biso   1.000  Ag
  N36      1.0000 0.95890  0.17540  0.28800  Biso   1.000  N
  N37      1.0000 0.89420  0.14590  0.30700  Biso   1.000  N
  N38      1.0000 0.88030  0.25020  0.04200  Biso   1.000  N
  N39      1.0000 0.99900  0.28800  0.10000  Biso   1.000  N
  H43      1.0000 0.99040  0.32690  0.99080  Biso   1.000  H
  H44      1.0000 0.03960  0.27850  0.17320  Biso   1.000  H
  C15      1.0000 0.94480  0.23960  0.15000  Biso   1.000  C
  C16      1.0000 0.84990  0.19450  0.13000  Biso   1.000  C
  N40      1.0000 0.77800  0.17400  0.11500  Biso   1.000  N
  H45      1.0000 0.74750  0.20250  0.03370  Biso   1.000  H
  H46      1.0000 0.76590  0.13370  0.18720  Biso   1.000  H
  H47      1.0000 0.97820  0.27360  0.13230  Biso   1.000  H
  H48      1.0000 0.80360  0.18640  0.08400  Biso   1.000  H
  Ag9      1.0000 0.16610  0.66610  0.75000  Biso   1.000  Ag
  Ag10     1.0000 0.83390  0.33390  0.75000  Biso   1.000  Ag
  Ag11     1.0000 0.66610  0.83390  0.25000  Biso   1.000  Ag
  Ag12     1.0000 0.33390  0.16610  0.25000  Biso   1.000  Ag
