data_CUIMDZ01_clean_h
_audit_creation_date              2014-07-02
_audit_creation_method            'Materials Studio'
_symmetry_space_group_name_H-M    'P1'
_symmetry_Int_Tables_number       1
_symmetry_cell_setting            triclinic
loop_
_symmetry_equiv_pos_as_xyz
  x,y,z
_cell_length_a                    5.3870
_cell_length_b                    16.0121
_cell_length_c                    16.0121
_cell_angle_alpha                 61.2404
_cell_angle_beta                  83.5611
_cell_angle_gamma                 96.4389
loop_
_atom_site_label
_atom_site_type_symbol
_atom_site_fract_x
_atom_site_fract_y
_atom_site_fract_z
_atom_site_U_iso_or_equiv
_atom_site_adp_type
_atom_site_occupancy
Cu1    Cu    0.81654   0.21408   0.57226   0.01267  Uiso   1.00
Cu2    Cu    0.38880   0.57226   0.21366   0.01267  Uiso   1.00
Cu3    Cu    0.60246   0.21366   0.21408   0.01267  Uiso   1.00
Cu4    Cu    0.18346   0.78592   0.42774   0.01267  Uiso   1.00
Cu5    Cu    0.61120   0.42774   0.78634   0.01267  Uiso   1.00
Cu6    Cu    0.39754   0.78634   0.78592   0.01267  Uiso   1.00
C1     C     0.64726   0.00493   0.65135   0.01267  Uiso   1.00
C2     C     0.85377   0.02959   0.75098   0.01267  Uiso   1.00
C3     C     0.73590   0.93476   0.79796   0.01267  Uiso   1.00
C4     C     0.66559   0.21096   0.39889   0.01267  Uiso   1.00
C5     C     0.96020   0.12392   0.45192   0.01267  Uiso   1.00
C6     C     0.90937   0.12200   0.37149   0.01267  Uiso   1.00
C7     C     0.29861   0.65135   0.34372   0.01267  Uiso   1.00
C8     C     0.60475   0.75098   0.21943   0.01267  Uiso   1.00
C9     C     0.53386   0.79796   0.26728   0.01267  Uiso   1.00
C10    C     0.06448   0.39889   0.39015   0.01267  Uiso   1.00
C11    C     0.41212   0.45192   0.42416   0.01267  Uiso   1.00
C12    C     0.28086   0.37149   0.50651   0.01267  Uiso   1.00
C13    C     0.64233   0.34372   0.00493   0.01267  Uiso   1.00
C14    C     0.82418   0.21943   0.02959   0.01267  Uiso   1.00
C15    C     0.80114   0.26728   0.93476   0.01267  Uiso   1.00
C16    C     0.45463   0.39015   0.21096   0.01267  Uiso   1.00
C17    C     0.83628   0.42416   0.12392   0.01267  Uiso   1.00
C18    C     0.78737   0.50651   0.12200   0.01267  Uiso   1.00
C19    C     0.35274   0.99507   0.34865   0.01267  Uiso   1.00
C20    C     0.14623   0.97041   0.24902   0.01267  Uiso   1.00
C21    C     0.26410   0.06524   0.20204   0.01267  Uiso   1.00
C22    C     0.33441   0.78904   0.60111   0.01267  Uiso   1.00
C23    C     0.03980   0.87608   0.54808   0.01267  Uiso   1.00
C24    C     0.09063   0.87800   0.62851   0.01267  Uiso   1.00
C25    C     0.70139   0.34865   0.65628   0.01267  Uiso   1.00
C26    C     0.39525   0.24902   0.78057   0.01267  Uiso   1.00
C27    C     0.46614   0.20204   0.73272   0.01267  Uiso   1.00
C28    C     0.93552   0.60111   0.60985   0.01267  Uiso   1.00
C29    C     0.58788   0.54808   0.57584   0.01267  Uiso   1.00
C30    C     0.71914   0.62851   0.49349   0.01267  Uiso   1.00
C31    C     0.35767   0.65628   0.99507   0.01267  Uiso   1.00
C32    C     0.17582   0.78057   0.97041   0.01267  Uiso   1.00
C33    C     0.19886   0.73272   0.06524   0.01267  Uiso   1.00
C34    C     0.54537   0.60985   0.78904   0.01267  Uiso   1.00
C35    C     0.16372   0.57584   0.87608   0.01267  Uiso   1.00
C36    C     0.21263   0.49349   0.87800   0.01267  Uiso   1.00
N1     N     0.80223   0.07263   0.65974   0.01267  Uiso   1.00
N2     N     0.58732   0.92252   0.73976   0.01267  Uiso   1.00
N3     N     0.80871   0.17861   0.46908   0.01267  Uiso   1.00
N4     N     0.73778   0.18018   0.33574   0.01267  Uiso   1.00
N5     N     0.46197   0.65974   0.26763   0.01267  Uiso   1.00
N6     N     0.32708   0.73976   0.33772   0.01267  Uiso   1.00
N7     N     0.27779   0.46908   0.35231   0.01267  Uiso   1.00
N8     N     0.07352   0.33574   0.48408   0.01267  Uiso   1.00
N9     N     0.72960   0.26763   0.07263   0.01267  Uiso   1.00
N10    N     0.66480   0.33772   0.92252   0.01267  Uiso   1.00
N11    N     0.63010   0.35231   0.17861   0.01267  Uiso   1.00
N12    N     0.55760   0.48408   0.18018   0.01267  Uiso   1.00
N13    N     0.19777   0.92737   0.34026   0.01267  Uiso   1.00
N14    N     0.41268   0.07748   0.26024   0.01267  Uiso   1.00
N15    N     0.19129   0.82139   0.53092   0.01267  Uiso   1.00
N16    N     0.26222   0.81982   0.66426   0.01267  Uiso   1.00
N17    N     0.53803   0.34026   0.73237   0.01267  Uiso   1.00
N18    N     0.67292   0.26024   0.66228   0.01267  Uiso   1.00
N19    N     0.72221   0.53092   0.64769   0.01267  Uiso   1.00
N20    N     0.92648   0.66426   0.51592   0.01267  Uiso   1.00
N21    N     0.27040   0.73237   0.92737   0.01267  Uiso   1.00
N22    N     0.33520   0.66228   0.07748   0.01267  Uiso   1.00
N23    N     0.36990   0.64769   0.82139   0.01267  Uiso   1.00
N24    N     0.44240   0.51592   0.81982   0.01267  Uiso   1.00
H1     H     0.59193   0.02357   0.57856   0.01267  Uiso   1.00
H2     H     0.97010   0.05874   0.78986   0.01267  Uiso   1.00
H3     H     0.77230   0.88241   0.87278   0.01267  Uiso   1.00
H4     H     0.51697   0.25558   0.40116   0.01267  Uiso   1.00
H5     H     0.10906   0.08344   0.49146   0.01267  Uiso   1.00
H6     H     0.00708   0.07634   0.34617   0.01267  Uiso   1.00
H7     H     0.17048   0.57856   0.39787   0.01267  Uiso   1.00
H8     H     0.75996   0.78986   0.15140   0.01267  Uiso   1.00
H9     H     0.64508   0.87278   0.24480   0.01267  Uiso   1.00
H10    H     0.91813   0.40116   0.34325   0.01267  Uiso   1.00
H11    H     0.60053   0.49146   0.42509   0.01267  Uiso   1.00
H12    H     0.35326   0.34617   0.57749   0.01267  Uiso   1.00
H13    H     0.56835   0.39787   0.02357   0.01267  Uiso   1.00
H14    H     0.91136   0.15140   0.05874   0.01267  Uiso   1.00
H15    H     0.88988   0.24480   0.88241   0.01267  Uiso   1.00
H16    H     0.26139   0.34325   0.25558   0.01267  Uiso   1.00
H17    H     0.02562   0.42509   0.08344   0.01267  Uiso   1.00
H18    H     0.93074   0.57749   0.07634   0.01267  Uiso   1.00
H19    H     0.40807   0.97643   0.42144   0.01267  Uiso   1.00
H20    H     0.02990   0.94126   0.21014   0.01267  Uiso   1.00
H21    H     0.22770   0.11759   0.12722   0.01267  Uiso   1.00
H22    H     0.48303   0.74442   0.59884   0.01267  Uiso   1.00
H23    H     0.89094   0.91656   0.50854   0.01267  Uiso   1.00
H24    H     0.99292   0.92366   0.65383   0.01267  Uiso   1.00
H25    H     0.82952   0.42144   0.60213   0.01267  Uiso   1.00
H26    H     0.24004   0.21014   0.84860   0.01267  Uiso   1.00
H27    H     0.35492   0.12722   0.75520   0.01267  Uiso   1.00
H28    H     0.08187   0.59884   0.65675   0.01267  Uiso   1.00
H29    H     0.39947   0.50854   0.57491   0.01267  Uiso   1.00
H30    H     0.64674   0.65383   0.42251   0.01267  Uiso   1.00
H31    H     0.43165   0.60213   0.97643   0.01267  Uiso   1.00
H32    H     0.08864   0.84860   0.94126   0.01267  Uiso   1.00
H33    H     0.11012   0.75520   0.11759   0.01267  Uiso   1.00
H34    H     0.73861   0.65675   0.74442   0.01267  Uiso   1.00
H35    H     0.97438   0.57491   0.91656   0.01267  Uiso   1.00
H36    H     0.06926   0.42251   0.92366   0.01267  Uiso   1.00
