data_CUKVUA_clean
_audit_creation_date              2014-07-02
_audit_creation_method            'Materials Studio'
_symmetry_space_group_name_H-M    'P1'
_symmetry_Int_Tables_number       1
_symmetry_cell_setting            triclinic
loop_
_symmetry_equiv_pos_as_xyz
  x,y,z
_cell_length_a                    9.3521
_cell_length_b                    11.3471
_cell_length_c                    18.8078
_cell_angle_alpha                 79.4600
_cell_angle_beta                  79.4620
_cell_angle_gamma                 66.5120
loop_
_atom_site_label
_atom_site_type_symbol
_atom_site_fract_x
_atom_site_fract_y
_atom_site_fract_z
_atom_site_U_iso_or_equiv
_atom_site_adp_type
_atom_site_occupancy
Co1    Co    0.60536   0.81047   0.71808   0.01267  Uiso   1.00
Co2    Co    0.39464   0.18953   0.28192   0.01267  Uiso   1.00
Co3    Co    0.00000   0.00000   0.00000   0.01267  Uiso   1.00
H1     H     0.57520   0.56940   0.19420   0.01267  Uiso   1.00
H2     H     0.48220   0.54190   0.31740   0.01267  Uiso   1.00
H3     H     0.09950   0.85540   0.28630   0.01267  Uiso   1.00
H4     H     0.45080   0.74480   0.39240   0.01267  Uiso   1.00
H5     H     0.52450   0.76540   0.49950   0.01267  Uiso   1.00
H6     H     0.20600   0.63480   0.61660   0.01267  Uiso   1.00
H7     H     0.13360   0.61030   0.51100   0.01267  Uiso   1.00
H8     H     0.77330   0.86590   0.99820   0.01267  Uiso   1.00
H9     H     0.76800   0.66680   0.00050   0.01267  Uiso   1.00
H10    H     0.23140   0.51800   0.99560   0.01267  Uiso   1.00
H11    H     0.22360   0.72000   0.99560   0.01267  Uiso   1.00
H12    H     0.66240   0.88120   0.55160   0.01267  Uiso   1.00
H13    H     0.81960   0.95160   0.46280   0.01267  Uiso   1.00
H14    H     0.03440   0.98420   0.61610   0.01267  Uiso   1.00
H15    H     0.87170   0.91040   0.70130   0.01267  Uiso   1.00
H16    H     0.35030   0.00950   0.62510   0.01267  Uiso   1.00
H17    H     0.15160   0.20710   0.62230   0.01267  Uiso   1.00
H18    H     0.26860   0.25020   0.80640   0.01267  Uiso   1.00
H19    H     0.47230   0.05710   0.79930   0.01267  Uiso   1.00
H20    H     0.99240   0.37600   0.82540   0.01267  Uiso   1.00
H21    H     0.78470   0.57050   0.82440   0.01267  Uiso   1.00
H22    H     0.83680   0.62200   0.61360   0.01267  Uiso   1.00
H23    H     0.04800   0.43700   0.60800   0.01267  Uiso   1.00
H24    H     0.42480   0.43060   0.80580   0.01267  Uiso   1.00
H25    H     0.51780   0.45810   0.68260   0.01267  Uiso   1.00
H26    H     0.90050   0.14460   0.71370   0.01267  Uiso   1.00
H27    H     0.54920   0.25520   0.60760   0.01267  Uiso   1.00
H28    H     0.47550   0.23460   0.50050   0.01267  Uiso   1.00
H29    H     0.79400   0.36520   0.38340   0.01267  Uiso   1.00
H30    H     0.86640   0.38970   0.48900   0.01267  Uiso   1.00
H31    H     0.22670   0.13410   0.00180   0.01267  Uiso   1.00
H32    H     0.23200   0.33320   0.99950   0.01267  Uiso   1.00
H33    H     0.76860   0.48200   0.00440   0.01267  Uiso   1.00
H34    H     0.77640   0.28000   0.00440   0.01267  Uiso   1.00
H35    H     0.33760   0.11880   0.44840   0.01267  Uiso   1.00
H36    H     0.18040   0.04840   0.53720   0.01267  Uiso   1.00
H37    H     0.96560   0.01580   0.38390   0.01267  Uiso   1.00
H38    H     0.12830   0.08960   0.29870   0.01267  Uiso   1.00
H39    H     0.64970   0.99050   0.37490   0.01267  Uiso   1.00
H40    H     0.84840   0.79290   0.37770   0.01267  Uiso   1.00
H41    H     0.73140   0.74980   0.19360   0.01267  Uiso   1.00
H42    H     0.52770   0.94290   0.20070   0.01267  Uiso   1.00
H43    H     0.00760   0.62400   0.17460   0.01267  Uiso   1.00
H44    H     0.21530   0.42950   0.17560   0.01267  Uiso   1.00
H45    H     0.16320   0.37800   0.38640   0.01267  Uiso   1.00
H46    H     0.95200   0.56300   0.39200   0.01267  Uiso   1.00
C1     C     0.24410   0.81610   0.19280   0.01267  Uiso   1.00
C2     C     0.39070   0.72990   0.16520   0.01267  Uiso   1.00
C3     C     0.47830   0.62770   0.21220   0.01267  Uiso   1.00
C4     C     0.42330   0.61110   0.28630   0.01267  Uiso   1.00
C5     C     0.28400   0.69650   0.31180   0.01267  Uiso   1.00
C6     C     0.19510   0.79760   0.26690   0.01267  Uiso   1.00
C7     C     0.13100   0.92120   0.14500   0.01267  Uiso   1.00
C8     C     0.46100   0.74350   0.08630   0.01267  Uiso   1.00
C9     C     0.28300   0.67880   0.44240   0.01267  Uiso   1.00
C10    C     0.40090   0.72340   0.43750   0.01267  Uiso   1.00
C11    C     0.44400   0.73580   0.50200   0.01267  Uiso   1.00
C12    C     0.37160   0.70570   0.56920   0.01267  Uiso   1.00
C13    C     0.25510   0.65770   0.57170   0.01267  Uiso   1.00
C14    C     0.21090   0.64340   0.50870   0.01267  Uiso   1.00
C15    C     0.40590   0.73140   0.63880   0.01267  Uiso   1.00
C16    C     0.86750   0.79440   0.99840   0.01267  Uiso   1.00
C17    C     0.86370   0.67440   0.99960   0.01267  Uiso   1.00
C18    C     0.99880   0.56560   0.99930   0.01267  Uiso   1.00
C19    C     0.13500   0.58730   0.99690   0.01267  Uiso   1.00
C20    C     0.12950   0.70970   0.99660   0.01267  Uiso   1.00
C21    C     0.74040   0.90060   0.56540   0.01267  Uiso   1.00
C22    C     0.83400   0.94420   0.51130   0.01267  Uiso   1.00
C23    C     0.94790   0.97690   0.52820   0.01267  Uiso   1.00
C24    C     0.95950   0.96290   0.60100   0.01267  Uiso   1.00
C25    C     0.86080   0.91750   0.65240   0.01267  Uiso   1.00
C26    C     0.33410   0.05890   0.66240   0.01267  Uiso   1.00
C27    C     0.21270   0.17780   0.66050   0.01267  Uiso   1.00
C28    C     0.18140   0.25400   0.71530   0.01267  Uiso   1.00
C29    C     0.28270   0.20370   0.76810   0.01267  Uiso   1.00
C30    C     0.40370   0.08580   0.76410   0.01267  Uiso   1.00
C31    C     0.99740   0.45750   0.65360   0.01267  Uiso   1.00
C32    C     0.04830   0.38040   0.71730   0.01267  Uiso   1.00
C33    C     0.96460   0.42500   0.78110   0.01267  Uiso   1.00
C34    C     0.83890   0.54280   0.78000   0.01267  Uiso   1.00
C35    C     0.86990   0.57290   0.65710   0.01267  Uiso   1.00
C36    C     0.75590   0.18390   0.80720   0.01267  Uiso   1.00
C37    C     0.60930   0.27010   0.83480   0.01267  Uiso   1.00
C38    C     0.52170   0.37230   0.78780   0.01267  Uiso   1.00
C39    C     0.57670   0.38890   0.71370   0.01267  Uiso   1.00
C40    C     0.71600   0.30350   0.68820   0.01267  Uiso   1.00
C41    C     0.80490   0.20240   0.73310   0.01267  Uiso   1.00
C42    C     0.86900   0.07880   0.85500   0.01267  Uiso   1.00
C43    C     0.53900   0.25650   0.91370   0.01267  Uiso   1.00
C44    C     0.71700   0.32120   0.55760   0.01267  Uiso   1.00
C45    C     0.59910   0.27660   0.56250   0.01267  Uiso   1.00
C46    C     0.55600   0.26420   0.49800   0.01267  Uiso   1.00
C47    C     0.62840   0.29430   0.43080   0.01267  Uiso   1.00
C48    C     0.74490   0.34230   0.42830   0.01267  Uiso   1.00
C49    C     0.78910   0.35660   0.49130   0.01267  Uiso   1.00
C50    C     0.59410   0.26860   0.36120   0.01267  Uiso   1.00
C51    C     0.13250   0.20560   0.00160   0.01267  Uiso   1.00
C52    C     0.13630   0.32560   0.00040   0.01267  Uiso   1.00
C53    C     0.00120   0.43440   0.00070   0.01267  Uiso   1.00
C54    C     0.86500   0.41270   0.00310   0.01267  Uiso   1.00
C55    C     0.87050   0.29030   0.00340   0.01267  Uiso   1.00
C56    C     0.25960   0.09940   0.43460   0.01267  Uiso   1.00
C57    C     0.16600   0.05580   0.48870   0.01267  Uiso   1.00
C58    C     0.05210   0.02310   0.47180   0.01267  Uiso   1.00
C59    C     0.04050   0.03710   0.39900   0.01267  Uiso   1.00
C60    C     0.13920   0.08250   0.34760   0.01267  Uiso   1.00
C61    C     0.66590   0.94110   0.33760   0.01267  Uiso   1.00
C62    C     0.78730   0.82220   0.33950   0.01267  Uiso   1.00
C63    C     0.81860   0.74600   0.28470   0.01267  Uiso   1.00
C64    C     0.71730   0.79630   0.23190   0.01267  Uiso   1.00
C65    C     0.59630   0.91420   0.23590   0.01267  Uiso   1.00
C66    C     0.00260   0.54250   0.34640   0.01267  Uiso   1.00
C67    C     0.95170   0.61960   0.28270   0.01267  Uiso   1.00
C68    C     0.03540   0.57500   0.21890   0.01267  Uiso   1.00
C69    C     0.16110   0.45720   0.22000   0.01267  Uiso   1.00
C70    C     0.13010   0.42710   0.34290   0.01267  Uiso   1.00
N1     N     0.42960   0.00980   0.71345   0.01267  Uiso   1.00
N2     N     0.79130   0.61830   0.71942   0.01267  Uiso   1.00
N3     N     0.75340   0.88400   0.63602   0.01267  Uiso   1.00
N4     N     0.99910   0.81380   0.99765   0.01267  Uiso   1.00
N5     N     0.57040   0.99020   0.28655   0.01267  Uiso   1.00
N6     N     0.20870   0.38170   0.28058   0.01267  Uiso   1.00
N7     N     0.24660   0.11600   0.36398   0.01267  Uiso   1.00
N8     N     0.00090   0.18620   0.00235   0.01267  Uiso   1.00
O1     O     0.15500   0.91310   0.07906   0.01267  Uiso   1.00
O2     O     0.01350   0.00400   0.17683   0.01267  Uiso   1.00
O3     O     0.50010   0.83730   0.06470   0.01267  Uiso   1.00
O4     O     0.48350   0.65370   0.05086   0.01267  Uiso   1.00
O5     O     0.21630   0.67420   0.38371   0.01267  Uiso   1.00
O6     O     0.51630   0.77100   0.63463   0.01267  Uiso   1.00
O7     O     0.32140   0.71340   0.69610   0.01267  Uiso   1.00
O8     O     0.84500   0.08690   0.92094   0.01267  Uiso   1.00
O9     O     0.98650   0.99600   0.82317   0.01267  Uiso   1.00
O10    O     0.49990   0.16270   0.93530   0.01267  Uiso   1.00
O11    O     0.51650   0.34630   0.94914   0.01267  Uiso   1.00
O12    O     0.78370   0.32580   0.61629   0.01267  Uiso   1.00
O13    O     0.48370   0.22900   0.36537   0.01267  Uiso   1.00
O14    O     0.67860   0.28660   0.30390   0.01267  Uiso   1.00
