data_image0
_cell_length_a       19.1035
_cell_length_b       9.543
_cell_length_c       17.6708
_cell_angle_alpha    90
_cell_angle_beta     90
_cell_angle_gamma    90

_symmetry_space_group_name_H-M    "P 1"
_symmetry_int_tables_number       1

loop_
  _symmetry_equiv_pos_as_xyz
  'x, y, z'

loop_
  _atom_site_label
  _atom_site_occupancy
  _atom_site_fract_x
  _atom_site_fract_y
  _atom_site_fract_z
  _atom_site_thermal_displace_type
  _atom_site_B_iso_or_equiv
  _atom_site_type_symbol
  C1       1.0000 0.37477  0.25350  0.07669  Biso   1.000  C
  C2       1.0000 0.34175  0.18730  0.00768  Biso   1.000  C
  C3       1.0000 0.28901  0.08540  0.01035  Biso   1.000  C
  C4       1.0000 0.26442  0.02760  0.94290  Biso   1.000  C
  H1       1.0000 0.22990  0.95910  0.94490  Biso   1.000  H
  C5       1.0000 0.29006  0.06940  0.87250  Biso   1.000  C
  C6       1.0000 0.34352  0.17040  0.86970  Biso   1.000  C
  C7       1.0000 0.36787  0.22680  0.93715  Biso   1.000  C
  H2       1.0000 0.40310  0.29390  0.93520  Biso   1.000  H
  C8       1.0000 0.25631  0.03190  0.08304  Biso   1.000  C
  C9       1.0000 0.25915  0.99960  0.80274  Biso   1.000  C
  C10      1.0000 0.37772  0.21970  0.79724  Biso   1.000  C
  Mn1      1.0000 0.25721  0.26640  0.19574  Biso   1.000  Mn
  O1       1.0000 0.42326  0.33690  0.06595  Biso   1.000  O
  O2       1.0000 0.35284  0.21793  0.14150  Biso   1.000  O
  O3       1.0000 0.21327  0.10893  0.11678  Biso   1.000  O
  O4       1.0000 0.27194  0.90891  0.10158  Biso   1.000  O
  O5       1.0000 0.20892  0.06073  0.76984  Biso   1.000  O
  O6       1.0000 0.28375  0.88328  0.78531  Biso   1.000  O
  O7       1.0000 0.34686  0.20067  0.73516  Biso   1.000  O
  O8       1.0000 0.43643  0.27610  0.80432  Biso   1.000  O
  C11      1.0000 0.12523  0.24650  0.57669  Biso   1.000  C
  C12      1.0000 0.15825  0.31270  0.50768  Biso   1.000  C
  C13      1.0000 0.21099  0.41460  0.51035  Biso   1.000  C
  C14      1.0000 0.23558  0.47240  0.44290  Biso   1.000  C
  H3       1.0000 0.27010  0.54090  0.44490  Biso   1.000  H
  C15      1.0000 0.20994  0.43060  0.37250  Biso   1.000  C
  C16      1.0000 0.15648  0.32960  0.36970  Biso   1.000  C
  C17      1.0000 0.13213  0.27320  0.43715  Biso   1.000  C
  H4       1.0000 0.09690  0.20610  0.43520  Biso   1.000  H
  C18      1.0000 0.24369  0.46810  0.58304  Biso   1.000  C
  C19      1.0000 0.24085  0.50040  0.30274  Biso   1.000  C
  C20      1.0000 0.12228  0.28030  0.29724  Biso   1.000  C
  Mn2      1.0000 0.24279  0.23360  0.69574  Biso   1.000  Mn
  O9       1.0000 0.07674  0.16310  0.56595  Biso   1.000  O
  O10      1.0000 0.14716  0.28207  0.64150  Biso   1.000  O
  O11      1.0000 0.28673  0.39107  0.61678  Biso   1.000  O
  O12      1.0000 0.22806  0.59109  0.60158  Biso   1.000  O
  O13      1.0000 0.29108  0.43927  0.26984  Biso   1.000  O
  O14      1.0000 0.21625  0.61672  0.28531  Biso   1.000  O
  O15      1.0000 0.15314  0.29933  0.23516  Biso   1.000  O
  O16      1.0000 0.06357  0.22390  0.30432  Biso   1.000  O
  C21      1.0000 0.62523  0.25350  0.42331  Biso   1.000  C
  C22      1.0000 0.65825  0.18730  0.49232  Biso   1.000  C
  C23      1.0000 0.71099  0.08540  0.48965  Biso   1.000  C
  C24      1.0000 0.73558  0.02760  0.55710  Biso   1.000  C
  H5       1.0000 0.77010  0.95910  0.55510  Biso   1.000  H
  C25      1.0000 0.70994  0.06940  0.62750  Biso   1.000  C
  C26      1.0000 0.65648  0.17040  0.63030  Biso   1.000  C
  C27      1.0000 0.63213  0.22680  0.56285  Biso   1.000  C
  H6       1.0000 0.59690  0.29390  0.56480  Biso   1.000  H
  C28      1.0000 0.74369  0.03190  0.41696  Biso   1.000  C
  C29      1.0000 0.74085  0.99960  0.69726  Biso   1.000  C
  C30      1.0000 0.62228  0.21970  0.70276  Biso   1.000  C
  Mn3      1.0000 0.74279  0.26640  0.30426  Biso   1.000  Mn
  O17      1.0000 0.57674  0.33690  0.43405  Biso   1.000  O
  O18      1.0000 0.64716  0.21793  0.35850  Biso   1.000  O
  O19      1.0000 0.78673  0.10893  0.38322  Biso   1.000  O
  O20      1.0000 0.72806  0.90891  0.39842  Biso   1.000  O
  O21      1.0000 0.79108  0.06073  0.73016  Biso   1.000  O
  O22      1.0000 0.71625  0.88328  0.71469  Biso   1.000  O
  O23      1.0000 0.65314  0.20067  0.76484  Biso   1.000  O
  O24      1.0000 0.56357  0.27610  0.69568  Biso   1.000  O
  C31      1.0000 0.87477  0.24650  0.92331  Biso   1.000  C
  C32      1.0000 0.84175  0.31270  0.99232  Biso   1.000  C
  C33      1.0000 0.78901  0.41460  0.98965  Biso   1.000  C
  C34      1.0000 0.76442  0.47240  0.05710  Biso   1.000  C
  H7       1.0000 0.72990  0.54090  0.05510  Biso   1.000  H
  C35      1.0000 0.79006  0.43060  0.12750  Biso   1.000  C
  C36      1.0000 0.84352  0.32960  0.13030  Biso   1.000  C
  C37      1.0000 0.86787  0.27320  0.06285  Biso   1.000  C
  H8       1.0000 0.90310  0.20610  0.06480  Biso   1.000  H
  C38      1.0000 0.75631  0.46810  0.91696  Biso   1.000  C
  C39      1.0000 0.75915  0.50040  0.19726  Biso   1.000  C
  C40      1.0000 0.87772  0.28030  0.20276  Biso   1.000  C
  Mn4      1.0000 0.75721  0.23360  0.80426  Biso   1.000  Mn
  O25      1.0000 0.92326  0.16310  0.93405  Biso   1.000  O
  O26      1.0000 0.85284  0.28207  0.85850  Biso   1.000  O
  O27      1.0000 0.71327  0.39107  0.88322  Biso   1.000  O
  O28      1.0000 0.77194  0.59109  0.89842  Biso   1.000  O
  O29      1.0000 0.70892  0.43927  0.23016  Biso   1.000  O
  O30      1.0000 0.78375  0.61672  0.21469  Biso   1.000  O
  O31      1.0000 0.84686  0.29933  0.26484  Biso   1.000  O
  O32      1.0000 0.93643  0.22390  0.19568  Biso   1.000  O
  C41      1.0000 0.62523  0.74650  0.92331  Biso   1.000  C
  C42      1.0000 0.65825  0.81270  0.99232  Biso   1.000  C
  C43      1.0000 0.71099  0.91460  0.98965  Biso   1.000  C
  C44      1.0000 0.73558  0.97240  0.05710  Biso   1.000  C
  H9       1.0000 0.77010  0.04090  0.05510  Biso   1.000  H
  C45      1.0000 0.70994  0.93060  0.12750  Biso   1.000  C
  C46      1.0000 0.65648  0.82960  0.13030  Biso   1.000  C
  C47      1.0000 0.63213  0.77320  0.06285  Biso   1.000  C
  H10      1.0000 0.59690  0.70610  0.06480  Biso   1.000  H
  C48      1.0000 0.74369  0.96810  0.91696  Biso   1.000  C
  C49      1.0000 0.74085  0.00040  0.19726  Biso   1.000  C
  C50      1.0000 0.62228  0.78030  0.20276  Biso   1.000  C
  Mn5      1.0000 0.74279  0.73360  0.80426  Biso   1.000  Mn
  O33      1.0000 0.57674  0.66310  0.93405  Biso   1.000  O
  O34      1.0000 0.64716  0.78207  0.85850  Biso   1.000  O
  O35      1.0000 0.78673  0.89107  0.88322  Biso   1.000  O
  O36      1.0000 0.72806  0.09109  0.89842  Biso   1.000  O
  O37      1.0000 0.79108  0.93927  0.23016  Biso   1.000  O
  O38      1.0000 0.71625  0.11672  0.21469  Biso   1.000  O
  O39      1.0000 0.65314  0.79933  0.26484  Biso   1.000  O
  O40      1.0000 0.56357  0.72390  0.19568  Biso   1.000  O
  C51      1.0000 0.87477  0.75350  0.42331  Biso   1.000  C
  C52      1.0000 0.84175  0.68730  0.49232  Biso   1.000  C
  C53      1.0000 0.78901  0.58540  0.48965  Biso   1.000  C
  C54      1.0000 0.76442  0.52760  0.55710  Biso   1.000  C
  H11      1.0000 0.72990  0.45910  0.55510  Biso   1.000  H
  C55      1.0000 0.79006  0.56940  0.62750  Biso   1.000  C
  C56      1.0000 0.84352  0.67040  0.63030  Biso   1.000  C
  C57      1.0000 0.86787  0.72680  0.56285  Biso   1.000  C
  H12      1.0000 0.90310  0.79390  0.56480  Biso   1.000  H
  C58      1.0000 0.75631  0.53190  0.41696  Biso   1.000  C
  C59      1.0000 0.75915  0.49960  0.69726  Biso   1.000  C
  C60      1.0000 0.87772  0.71970  0.70276  Biso   1.000  C
  Mn6      1.0000 0.75721  0.76640  0.30426  Biso   1.000  Mn
  O41      1.0000 0.92326  0.83690  0.43405  Biso   1.000  O
  O42      1.0000 0.85284  0.71793  0.35850  Biso   1.000  O
  O43      1.0000 0.71327  0.60893  0.38322  Biso   1.000  O
  O44      1.0000 0.77194  0.40891  0.39842  Biso   1.000  O
  O45      1.0000 0.70892  0.56073  0.73016  Biso   1.000  O
  O46      1.0000 0.78375  0.38328  0.71469  Biso   1.000  O
  O47      1.0000 0.84686  0.70067  0.76484  Biso   1.000  O
  O48      1.0000 0.93643  0.77610  0.69568  Biso   1.000  O
  C61      1.0000 0.37477  0.74650  0.57669  Biso   1.000  C
  C62      1.0000 0.34175  0.81270  0.50768  Biso   1.000  C
  C63      1.0000 0.28901  0.91460  0.51035  Biso   1.000  C
  C64      1.0000 0.26442  0.97240  0.44290  Biso   1.000  C
  H13      1.0000 0.22990  0.04090  0.44490  Biso   1.000  H
  C65      1.0000 0.29006  0.93060  0.37250  Biso   1.000  C
  C66      1.0000 0.34352  0.82960  0.36970  Biso   1.000  C
  C67      1.0000 0.36787  0.77320  0.43715  Biso   1.000  C
  H14      1.0000 0.40310  0.70610  0.43520  Biso   1.000  H
  C68      1.0000 0.25631  0.96810  0.58304  Biso   1.000  C
  C69      1.0000 0.25915  0.00040  0.30274  Biso   1.000  C
  C70      1.0000 0.37772  0.78030  0.29724  Biso   1.000  C
  Mn7      1.0000 0.25721  0.73360  0.69574  Biso   1.000  Mn
  O49      1.0000 0.42326  0.66310  0.56595  Biso   1.000  O
  O50      1.0000 0.35284  0.78207  0.64150  Biso   1.000  O
  O51      1.0000 0.21327  0.89107  0.61678  Biso   1.000  O
  O52      1.0000 0.27194  0.09109  0.60158  Biso   1.000  O
  O53      1.0000 0.20892  0.93927  0.26984  Biso   1.000  O
  O54      1.0000 0.28375  0.11672  0.28531  Biso   1.000  O
  O55      1.0000 0.34686  0.79933  0.23516  Biso   1.000  O
  O56      1.0000 0.43643  0.72390  0.30432  Biso   1.000  O
  C71      1.0000 0.12523  0.75350  0.07669  Biso   1.000  C
  C72      1.0000 0.15825  0.68730  0.00768  Biso   1.000  C
  C73      1.0000 0.21099  0.58540  0.01035  Biso   1.000  C
  C74      1.0000 0.23558  0.52760  0.94290  Biso   1.000  C
  H15      1.0000 0.27010  0.45910  0.94490  Biso   1.000  H
  C75      1.0000 0.20994  0.56940  0.87250  Biso   1.000  C
  C76      1.0000 0.15648  0.67040  0.86970  Biso   1.000  C
  C77      1.0000 0.13213  0.72680  0.93715  Biso   1.000  C
  H16      1.0000 0.09690  0.79390  0.93520  Biso   1.000  H
  C78      1.0000 0.24369  0.53190  0.08304  Biso   1.000  C
  C79      1.0000 0.24085  0.49960  0.80274  Biso   1.000  C
  C80      1.0000 0.12228  0.71970  0.79724  Biso   1.000  C
  Mn8      1.0000 0.24279  0.76640  0.19574  Biso   1.000  Mn
  O57      1.0000 0.07674  0.83690  0.06595  Biso   1.000  O
  O58      1.0000 0.14716  0.71793  0.14150  Biso   1.000  O
  O59      1.0000 0.28673  0.60893  0.11678  Biso   1.000  O
  O60      1.0000 0.22806  0.40891  0.10158  Biso   1.000  O
  O61      1.0000 0.29108  0.56073  0.76984  Biso   1.000  O
  O62      1.0000 0.21625  0.38328  0.78531  Biso   1.000  O
  O63      1.0000 0.15314  0.70067  0.73516  Biso   1.000  O
  O64      1.0000 0.06357  0.77610  0.80432  Biso   1.000  O
  Mn9      1.0000 0.50000  0.42823  0.75000  Biso   1.000  Mn
  Mn10     1.0000 0.00000  0.07177  0.25000  Biso   1.000  Mn
  Mn11     1.0000 0.50000  0.57177  0.25000  Biso   1.000  Mn
  Mn12     1.0000 0.00000  0.92823  0.75000  Biso   1.000  Mn
