data_CUKXUC_clean
_audit_creation_date              2014-07-02
_audit_creation_method            'Materials Studio'
_symmetry_space_group_name_H-M    'P1'
_symmetry_Int_Tables_number       1
_symmetry_cell_setting            triclinic
loop_
_symmetry_equiv_pos_as_xyz
  x,y,z
_cell_length_a                    10.5751
_cell_length_b                    10.5751
_cell_length_c                    14.8013
_cell_angle_alpha                 90.6070
_cell_angle_beta                  90.6070
_cell_angle_gamma                 105.7730
loop_
_atom_site_label
_atom_site_type_symbol
_atom_site_fract_x
_atom_site_fract_y
_atom_site_fract_z
_atom_site_U_iso_or_equiv
_atom_site_adp_type
_atom_site_occupancy
Eu1    Eu    0.57287   0.67571   0.55728   0.01267  Uiso   1.00
Eu2    Eu    0.82429   0.92713   0.94272   0.01267  Uiso   1.00
Eu3    Eu    0.42713   0.32429   0.44272   0.01267  Uiso   1.00
Eu4    Eu    0.17571   0.07287   0.05728   0.01267  Uiso   1.00
H1     H     0.32650   0.96050   0.34010   0.01267  Uiso   1.00
H2     H     0.19900   0.84380   0.33130   0.01267  Uiso   1.00
H3     H     0.32280   0.61280   0.24850   0.01267  Uiso   1.00
H4     H     0.20670   0.64090   0.30230   0.01267  Uiso   1.00
H5     H     0.78590   0.55810   0.28700   0.01267  Uiso   1.00
H6     H     0.64250   0.55390   0.25600   0.01267  Uiso   1.00
H7     H     0.53950   0.17350   0.15990   0.01267  Uiso   1.00
H8     H     0.65620   0.30100   0.16870   0.01267  Uiso   1.00
H9     H     0.88720   0.17720   0.25150   0.01267  Uiso   1.00
H10    H     0.85910   0.29330   0.19770   0.01267  Uiso   1.00
H11    H     0.94190   0.71410   0.21300   0.01267  Uiso   1.00
H12    H     0.94610   0.85750   0.24400   0.01267  Uiso   1.00
H13    H     0.67350   0.03950   0.65990   0.01267  Uiso   1.00
H14    H     0.80100   0.15620   0.66870   0.01267  Uiso   1.00
H15    H     0.67720   0.38720   0.75150   0.01267  Uiso   1.00
H16    H     0.79330   0.35910   0.69770   0.01267  Uiso   1.00
H17    H     0.21410   0.44190   0.71300   0.01267  Uiso   1.00
H18    H     0.35750   0.44610   0.74400   0.01267  Uiso   1.00
H19    H     0.46050   0.82650   0.84010   0.01267  Uiso   1.00
H20    H     0.34380   0.69900   0.83130   0.01267  Uiso   1.00
H21    H     0.11280   0.82280   0.74850   0.01267  Uiso   1.00
H22    H     0.14090   0.70670   0.80230   0.01267  Uiso   1.00
H23    H     0.05810   0.28590   0.78700   0.01267  Uiso   1.00
H24    H     0.05390   0.14250   0.75600   0.01267  Uiso   1.00
C1     C     0.48620   0.84440   0.26910   0.01267  Uiso   1.00
C2     C     0.27920   0.88860   0.30090   0.01267  Uiso   1.00
C3     C     0.24270   0.94590   0.21380   0.01267  Uiso   1.00
C4     C     0.30150   0.65830   0.30100   0.01267  Uiso   1.00
C5     C     0.34630   0.59990   0.38560   0.01267  Uiso   1.00
C6     C     0.71850   0.60450   0.29030   0.01267  Uiso   1.00
C7     C     0.68050   0.61450   0.38870   0.01267  Uiso   1.00
C8     C     0.65560   0.01380   0.23090   0.01267  Uiso   1.00
C9     C     0.61140   0.22080   0.19910   0.01267  Uiso   1.00
C10    C     0.55410   0.25730   0.28620   0.01267  Uiso   1.00
C11    C     0.84170   0.19850   0.19900   0.01267  Uiso   1.00
C12    C     0.90010   0.15370   0.11440   0.01267  Uiso   1.00
C13    C     0.89550   0.78150   0.20970   0.01267  Uiso   1.00
C14    C     0.88550   0.81950   0.11130   0.01267  Uiso   1.00
C15    C     0.51380   0.15560   0.73090   0.01267  Uiso   1.00
C16    C     0.72080   0.11140   0.69910   0.01267  Uiso   1.00
C17    C     0.75730   0.05410   0.78620   0.01267  Uiso   1.00
C18    C     0.69850   0.34170   0.69900   0.01267  Uiso   1.00
C19    C     0.65370   0.40010   0.61440   0.01267  Uiso   1.00
C20    C     0.28150   0.39550   0.70970   0.01267  Uiso   1.00
C21    C     0.31950   0.38550   0.61130   0.01267  Uiso   1.00
C22    C     0.34440   0.98620   0.76910   0.01267  Uiso   1.00
C23    C     0.38860   0.77920   0.80090   0.01267  Uiso   1.00
C24    C     0.44590   0.74270   0.71380   0.01267  Uiso   1.00
C25    C     0.15830   0.80150   0.80100   0.01267  Uiso   1.00
C26    C     0.09990   0.84630   0.88560   0.01267  Uiso   1.00
C27    C     0.10450   0.21850   0.79030   0.01267  Uiso   1.00
C28    C     0.11450   0.18050   0.88870   0.01267  Uiso   1.00
C29    C     0.68570   0.81430   0.25000   0.01267  Uiso   1.00
C30    C     0.31430   0.18570   0.75000   0.01267  Uiso   1.00
N1     N     0.55880   0.75960   0.26920   0.01267  Uiso   1.00
N2     N     0.35800   0.79840   0.28970   0.01267  Uiso   1.00
N3     N     0.74040   0.94120   0.23080   0.01267  Uiso   1.00
N4     N     0.70160   0.14200   0.21030   0.01267  Uiso   1.00
N5     N     0.44120   0.24040   0.73080   0.01267  Uiso   1.00
N6     N     0.64200   0.20160   0.71030   0.01267  Uiso   1.00
N7     N     0.25960   0.05880   0.76920   0.01267  Uiso   1.00
N8     N     0.29840   0.85800   0.78970   0.01267  Uiso   1.00
N9     N     0.52790   0.97210   0.25000   0.01267  Uiso   1.00
N10    N     0.76710   0.73290   0.25000   0.01267  Uiso   1.00
N11    N     0.47210   0.02790   0.75000   0.01267  Uiso   1.00
N12    N     0.23290   0.26710   0.75000   0.01267  Uiso   1.00
O1     O     0.20500   0.05080   0.21990   0.01267  Uiso   1.00
O2     O     0.25050   0.89450   0.13770   0.01267  Uiso   1.00
O3     O     0.31730   0.47550   0.38470   0.01267  Uiso   1.00
O4     O     0.40700   0.67640   0.44580   0.01267  Uiso   1.00
O5     O     0.59010   0.52290   0.42100   0.01267  Uiso   1.00
O6     O     0.73780   0.71340   0.43530   0.01267  Uiso   1.00
O7     O     0.44920   0.29500   0.28010   0.01267  Uiso   1.00
O8     O     0.60550   0.24950   0.36230   0.01267  Uiso   1.00
O9     O     0.02450   0.18270   0.11530   0.01267  Uiso   1.00
O10    O     0.82360   0.09300   0.05420   0.01267  Uiso   1.00
O11    O     0.97710   0.90990   0.07900   0.01267  Uiso   1.00
O12    O     0.78660   0.76220   0.06470   0.01267  Uiso   1.00
O13    O     0.79500   0.94920   0.78010   0.01267  Uiso   1.00
O14    O     0.74950   0.10550   0.86230   0.01267  Uiso   1.00
O15    O     0.68270   0.52450   0.61530   0.01267  Uiso   1.00
O16    O     0.59300   0.32360   0.55420   0.01267  Uiso   1.00
O17    O     0.40990   0.47710   0.57900   0.01267  Uiso   1.00
O18    O     0.26220   0.28660   0.56470   0.01267  Uiso   1.00
O19    O     0.55080   0.70500   0.71990   0.01267  Uiso   1.00
O20    O     0.39450   0.75050   0.63770   0.01267  Uiso   1.00
O21    O     0.97550   0.81730   0.88470   0.01267  Uiso   1.00
O22    O     0.17640   0.90700   0.94580   0.01267  Uiso   1.00
O23    O     0.02290   0.09010   0.92100   0.01267  Uiso   1.00
O24    O     0.21340   0.23780   0.93530   0.01267  Uiso   1.00
