data_image0
_cell_length_a       20.745
_cell_length_b       8.3255
_cell_length_c       17.3435
_cell_angle_alpha    90
_cell_angle_beta     90
_cell_angle_gamma    90

_symmetry_space_group_name_H-M    "P 1"
_symmetry_int_tables_number       1

loop_
  _symmetry_equiv_pos_as_xyz
  'x, y, z'

loop_
  _atom_site_label
  _atom_site_occupancy
  _atom_site_fract_x
  _atom_site_fract_y
  _atom_site_fract_z
  _atom_site_thermal_displace_type
  _atom_site_B_iso_or_equiv
  _atom_site_type_symbol
  C1       1.0000 0.41090  0.10130  0.35990  Biso   1.000  C
  C2       1.0000 0.37649  0.16380  0.42980  Biso   1.000  C
  C3       1.0000 0.32246  0.26520  0.42960  Biso   1.000  C
  C4       1.0000 0.29444  0.32320  0.35460  Biso   1.000  C
  O1       1.0000 0.46004  0.17570  0.33823  Biso   1.000  O
  O2       1.0000 0.39283  0.96920  0.33070  Biso   1.000  O
  O3       1.0000 0.31363  0.26160  0.29301  Biso   1.000  O
  O4       1.0000 0.25446  0.43530  0.35786  Biso   1.000  O
  C5       1.0000 0.91090  0.60130  0.85990  Biso   1.000  C
  C6       1.0000 0.87649  0.66380  0.92980  Biso   1.000  C
  C7       1.0000 0.82246  0.76520  0.92960  Biso   1.000  C
  C8       1.0000 0.79444  0.82320  0.85460  Biso   1.000  C
  O5       1.0000 0.96004  0.67570  0.83823  Biso   1.000  O
  O6       1.0000 0.89283  0.46920  0.83070  Biso   1.000  O
  O7       1.0000 0.81363  0.76160  0.79301  Biso   1.000  O
  O8       1.0000 0.75446  0.93530  0.85786  Biso   1.000  O
  C9       1.0000 0.58910  0.89870  0.35990  Biso   1.000  C
  C10      1.0000 0.62351  0.83620  0.42980  Biso   1.000  C
  C11      1.0000 0.67754  0.73480  0.42960  Biso   1.000  C
  C12      1.0000 0.70556  0.67680  0.35460  Biso   1.000  C
  O9       1.0000 0.53996  0.82430  0.33823  Biso   1.000  O
  O10      1.0000 0.60717  0.03080  0.33070  Biso   1.000  O
  O11      1.0000 0.68637  0.73840  0.29301  Biso   1.000  O
  O12      1.0000 0.74554  0.56470  0.35786  Biso   1.000  O
  C13      1.0000 0.08910  0.39870  0.85990  Biso   1.000  C
  C14      1.0000 0.12351  0.33620  0.92980  Biso   1.000  C
  C15      1.0000 0.17754  0.23480  0.92960  Biso   1.000  C
  C16      1.0000 0.20556  0.17680  0.85460  Biso   1.000  C
  O13      1.0000 0.03996  0.32430  0.83823  Biso   1.000  O
  O14      1.0000 0.10717  0.53080  0.83070  Biso   1.000  O
  O15      1.0000 0.18637  0.23840  0.79301  Biso   1.000  O
  O16      1.0000 0.24554  0.06470  0.85786  Biso   1.000  O
  C17      1.0000 0.08910  0.60130  0.64010  Biso   1.000  C
  C18      1.0000 0.12351  0.66380  0.57020  Biso   1.000  C
  C19      1.0000 0.17754  0.76520  0.57040  Biso   1.000  C
  C20      1.0000 0.20556  0.82320  0.64540  Biso   1.000  C
  O17      1.0000 0.03996  0.67570  0.66177  Biso   1.000  O
  O18      1.0000 0.10717  0.46920  0.66930  Biso   1.000  O
  O19      1.0000 0.18637  0.76160  0.70699  Biso   1.000  O
  O20      1.0000 0.24554  0.93530  0.64214  Biso   1.000  O
  C21      1.0000 0.58910  0.10130  0.14010  Biso   1.000  C
  C22      1.0000 0.62351  0.16380  0.07020  Biso   1.000  C
  C23      1.0000 0.67754  0.26520  0.07040  Biso   1.000  C
  C24      1.0000 0.70556  0.32320  0.14540  Biso   1.000  C
  O21      1.0000 0.53996  0.17570  0.16177  Biso   1.000  O
  O22      1.0000 0.60717  0.96920  0.16930  Biso   1.000  O
  O23      1.0000 0.68637  0.26160  0.20699  Biso   1.000  O
  O24      1.0000 0.74554  0.43530  0.14214  Biso   1.000  O
  C25      1.0000 0.91090  0.39870  0.64010  Biso   1.000  C
  C26      1.0000 0.87649  0.33620  0.57020  Biso   1.000  C
  C27      1.0000 0.82246  0.23480  0.57040  Biso   1.000  C
  C28      1.0000 0.79444  0.17680  0.64540  Biso   1.000  C
  O25      1.0000 0.96004  0.32430  0.66177  Biso   1.000  O
  O26      1.0000 0.89283  0.53080  0.66930  Biso   1.000  O
  O27      1.0000 0.81363  0.23840  0.70699  Biso   1.000  O
  O28      1.0000 0.75446  0.06470  0.64214  Biso   1.000  O
  C29      1.0000 0.41090  0.89870  0.14010  Biso   1.000  C
  C30      1.0000 0.37649  0.83620  0.07020  Biso   1.000  C
  C31      1.0000 0.32246  0.73480  0.07040  Biso   1.000  C
  C32      1.0000 0.29444  0.67680  0.14540  Biso   1.000  C
  O29      1.0000 0.46004  0.82430  0.16177  Biso   1.000  O
  O30      1.0000 0.39283  0.03080  0.16930  Biso   1.000  O
  O31      1.0000 0.31363  0.73840  0.20699  Biso   1.000  O
  O32      1.0000 0.25446  0.56470  0.14214  Biso   1.000  O
  C33      1.0000 0.58910  0.89870  0.64010  Biso   1.000  C
  C34      1.0000 0.62351  0.83620  0.57020  Biso   1.000  C
  C35      1.0000 0.67754  0.73480  0.57040  Biso   1.000  C
  C36      1.0000 0.70556  0.67680  0.64540  Biso   1.000  C
  O33      1.0000 0.53996  0.82430  0.66177  Biso   1.000  O
  O34      1.0000 0.60717  0.03080  0.66930  Biso   1.000  O
  O35      1.0000 0.68637  0.73840  0.70699  Biso   1.000  O
  O36      1.0000 0.74554  0.56470  0.64214  Biso   1.000  O
  C37      1.0000 0.08910  0.39870  0.14010  Biso   1.000  C
  C38      1.0000 0.12351  0.33620  0.07020  Biso   1.000  C
  C39      1.0000 0.17754  0.23480  0.07040  Biso   1.000  C
  C40      1.0000 0.20556  0.17680  0.14540  Biso   1.000  C
  O37      1.0000 0.03996  0.32430  0.16177  Biso   1.000  O
  O38      1.0000 0.10717  0.53080  0.16930  Biso   1.000  O
  O39      1.0000 0.18637  0.23840  0.20699  Biso   1.000  O
  O40      1.0000 0.24554  0.06470  0.14214  Biso   1.000  O
  C41      1.0000 0.41090  0.10130  0.64010  Biso   1.000  C
  C42      1.0000 0.37649  0.16380  0.57020  Biso   1.000  C
  C43      1.0000 0.32246  0.26520  0.57040  Biso   1.000  C
  C44      1.0000 0.29444  0.32320  0.64540  Biso   1.000  C
  O41      1.0000 0.46004  0.17570  0.66177  Biso   1.000  O
  O42      1.0000 0.39283  0.96920  0.66930  Biso   1.000  O
  O43      1.0000 0.31363  0.26160  0.70699  Biso   1.000  O
  O44      1.0000 0.25446  0.43530  0.64214  Biso   1.000  O
  C45      1.0000 0.91090  0.60130  0.14010  Biso   1.000  C
  C46      1.0000 0.87649  0.66380  0.07020  Biso   1.000  C
  C47      1.0000 0.82246  0.76520  0.07040  Biso   1.000  C
  C48      1.0000 0.79444  0.82320  0.14540  Biso   1.000  C
  O45      1.0000 0.96004  0.67570  0.16177  Biso   1.000  O
  O46      1.0000 0.89283  0.46920  0.16930  Biso   1.000  O
  O47      1.0000 0.81363  0.76160  0.20699  Biso   1.000  O
  O48      1.0000 0.75446  0.93530  0.14214  Biso   1.000  O
  C49      1.0000 0.91090  0.39870  0.35990  Biso   1.000  C
  C50      1.0000 0.87649  0.33620  0.42980  Biso   1.000  C
  C51      1.0000 0.82246  0.23480  0.42960  Biso   1.000  C
  C52      1.0000 0.79444  0.17680  0.35460  Biso   1.000  C
  O49      1.0000 0.96004  0.32430  0.33823  Biso   1.000  O
  O50      1.0000 0.89283  0.53080  0.33070  Biso   1.000  O
  O51      1.0000 0.81363  0.23840  0.29301  Biso   1.000  O
  O52      1.0000 0.75446  0.06470  0.35786  Biso   1.000  O
  C53      1.0000 0.41090  0.89870  0.85990  Biso   1.000  C
  C54      1.0000 0.37649  0.83620  0.92980  Biso   1.000  C
  C55      1.0000 0.32246  0.73480  0.92960  Biso   1.000  C
  C56      1.0000 0.29444  0.67680  0.85460  Biso   1.000  C
  O53      1.0000 0.46004  0.82430  0.83823  Biso   1.000  O
  O54      1.0000 0.39283  0.03080  0.83070  Biso   1.000  O
  O55      1.0000 0.31363  0.73840  0.79301  Biso   1.000  O
  O56      1.0000 0.25446  0.56470  0.85786  Biso   1.000  O
  C57      1.0000 0.08910  0.60130  0.35990  Biso   1.000  C
  C58      1.0000 0.12351  0.66380  0.42980  Biso   1.000  C
  C59      1.0000 0.17754  0.76520  0.42960  Biso   1.000  C
  C60      1.0000 0.20556  0.82320  0.35460  Biso   1.000  C
  O57      1.0000 0.03996  0.67570  0.33823  Biso   1.000  O
  O58      1.0000 0.10717  0.46920  0.33070  Biso   1.000  O
  O59      1.0000 0.18637  0.76160  0.29301  Biso   1.000  O
  O60      1.0000 0.24554  0.93530  0.35786  Biso   1.000  O
  C61      1.0000 0.58910  0.10130  0.85990  Biso   1.000  C
  C62      1.0000 0.62351  0.16380  0.92980  Biso   1.000  C
  C63      1.0000 0.67754  0.26520  0.92960  Biso   1.000  C
  C64      1.0000 0.70556  0.32320  0.85460  Biso   1.000  C
  O61      1.0000 0.53996  0.17570  0.83823  Biso   1.000  O
  O62      1.0000 0.60717  0.96920  0.83070  Biso   1.000  O
  O63      1.0000 0.68637  0.26160  0.79301  Biso   1.000  O
  O64      1.0000 0.74554  0.43530  0.85786  Biso   1.000  O
  C65      1.0000 0.40320  0.11710  0.50000  Biso   1.000  C
  H1       1.0000 0.43990  0.05300  0.50000  Biso   1.000  H
  C66      1.0000 0.29740  0.31690  0.50000  Biso   1.000  C
  H2       1.0000 0.26280  0.38810  0.50000  Biso   1.000  H
  C67      1.0000 0.90320  0.61710  0.00000  Biso   1.000  C
  H3       1.0000 0.93990  0.55300  0.00000  Biso   1.000  H
  C68      1.0000 0.79740  0.81690  0.00000  Biso   1.000  C
  H4       1.0000 0.76280  0.88810  0.00000  Biso   1.000  H
  C69      1.0000 0.59680  0.88290  0.50000  Biso   1.000  C
  H5       1.0000 0.56010  0.94700  0.50000  Biso   1.000  H
  C70      1.0000 0.70260  0.68310  0.50000  Biso   1.000  C
  H6       1.0000 0.73720  0.61190  0.50000  Biso   1.000  H
  C71      1.0000 0.09680  0.38290  0.00000  Biso   1.000  C
  H7       1.0000 0.06010  0.44700  0.00000  Biso   1.000  H
  C72      1.0000 0.20260  0.18310  0.00000  Biso   1.000  C
  H8       1.0000 0.23720  0.11190  0.00000  Biso   1.000  H
  C73      1.0000 0.09680  0.61710  0.50000  Biso   1.000  C
  H9       1.0000 0.06010  0.55300  0.50000  Biso   1.000  H
  C74      1.0000 0.20260  0.81690  0.50000  Biso   1.000  C
  H10      1.0000 0.23720  0.88810  0.50000  Biso   1.000  H
  C75      1.0000 0.59680  0.11710  0.00000  Biso   1.000  C
  H11      1.0000 0.56010  0.05300  0.00000  Biso   1.000  H
  C76      1.0000 0.70260  0.31690  0.00000  Biso   1.000  C
  H12      1.0000 0.73720  0.38810  0.00000  Biso   1.000  H
  C77      1.0000 0.90320  0.38290  0.50000  Biso   1.000  C
  H13      1.0000 0.93990  0.44700  0.50000  Biso   1.000  H
  C78      1.0000 0.79740  0.18310  0.50000  Biso   1.000  C
  H14      1.0000 0.76280  0.11190  0.50000  Biso   1.000  H
  C79      1.0000 0.40320  0.88290  0.00000  Biso   1.000  C
  H15      1.0000 0.43990  0.94700  0.00000  Biso   1.000  H
  C80      1.0000 0.29740  0.68310  0.00000  Biso   1.000  C
  H16      1.0000 0.26280  0.61190  0.00000  Biso   1.000  H
  Cd1      1.0000 0.50000  0.00000  0.25000  Biso   1.000  Cd
  Cd2      1.0000 0.00000  0.50000  0.75000  Biso   1.000  Cd
  Cd3      1.0000 0.50000  0.00000  0.75000  Biso   1.000  Cd
  Cd4      1.0000 0.00000  0.50000  0.25000  Biso   1.000  Cd
  Cd5      1.0000 0.20249  0.50000  0.25000  Biso   1.000  Cd
  Cd6      1.0000 0.79751  0.50000  0.25000  Biso   1.000  Cd
  Cd7      1.0000 0.29751  0.00000  0.75000  Biso   1.000  Cd
  Cd8      1.0000 0.70249  0.00000  0.75000  Biso   1.000  Cd
  Cd9      1.0000 0.79751  0.50000  0.75000  Biso   1.000  Cd
  Cd10     1.0000 0.20249  0.50000  0.75000  Biso   1.000  Cd
  Cd11     1.0000 0.70249  0.00000  0.25000  Biso   1.000  Cd
  Cd12     1.0000 0.29751  0.00000  0.25000  Biso   1.000  Cd
