data_CUKYAJ_clean
_audit_creation_date              2014-07-02
_audit_creation_method            'Materials Studio'
_symmetry_space_group_name_H-M    'P1'
_symmetry_Int_Tables_number       1
_symmetry_cell_setting            triclinic
loop_
_symmetry_equiv_pos_as_xyz
  x,y,z
_cell_length_a                    10.5621
_cell_length_b                    10.5621
_cell_length_c                    14.8020
_cell_angle_alpha                 90.5968
_cell_angle_beta                  90.5968
_cell_angle_gamma                 105.7610
loop_
_atom_site_label
_atom_site_type_symbol
_atom_site_fract_x
_atom_site_fract_y
_atom_site_fract_z
_atom_site_U_iso_or_equiv
_atom_site_adp_type
_atom_site_occupancy
Dy1    Dy    0.82357   0.42673   0.44291   0.01267  Uiso   1.00
Dy2    Dy    0.57327   0.17643   0.05709   0.01267  Uiso   1.00
Dy3    Dy    0.17643   0.57327   0.55709   0.01267  Uiso   1.00
Dy4    Dy    0.42673   0.82357   0.94291   0.01267  Uiso   1.00
H1     H     0.94700   0.35340   0.74560   0.01267  Uiso   1.00
H2     H     0.93900   0.20920   0.71360   0.01267  Uiso   1.00
H3     H     0.86110   0.79330   0.69990   0.01267  Uiso   1.00
H4     H     0.88770   0.67530   0.75280   0.01267  Uiso   1.00
H5     H     0.65640   0.80200   0.67010   0.01267  Uiso   1.00
H6     H     0.53990   0.67410   0.65990   0.01267  Uiso   1.00
H7     H     0.64660   0.05300   0.75440   0.01267  Uiso   1.00
H8     H     0.79080   0.06100   0.78640   0.01267  Uiso   1.00
H9     H     0.20670   0.13890   0.80010   0.01267  Uiso   1.00
H10    H     0.32470   0.11230   0.74720   0.01267  Uiso   1.00
H11    H     0.19800   0.34360   0.82990   0.01267  Uiso   1.00
H12    H     0.32590   0.46010   0.84010   0.01267  Uiso   1.00
H13    H     0.05300   0.64660   0.25440   0.01267  Uiso   1.00
H14    H     0.06100   0.79080   0.28640   0.01267  Uiso   1.00
H15    H     0.13890   0.20670   0.30010   0.01267  Uiso   1.00
H16    H     0.11230   0.32470   0.24720   0.01267  Uiso   1.00
H17    H     0.34360   0.19800   0.32990   0.01267  Uiso   1.00
H18    H     0.46010   0.32590   0.34010   0.01267  Uiso   1.00
H19    H     0.35340   0.94700   0.24560   0.01267  Uiso   1.00
H20    H     0.20920   0.93900   0.21360   0.01267  Uiso   1.00
H21    H     0.79330   0.86110   0.19990   0.01267  Uiso   1.00
H22    H     0.67530   0.88770   0.25280   0.01267  Uiso   1.00
H23    H     0.80200   0.65640   0.17010   0.01267  Uiso   1.00
H24    H     0.67410   0.53990   0.15990   0.01267  Uiso   1.00
C1     C     0.65500   0.51360   0.73150   0.01267  Uiso   1.00
C2     C     0.89480   0.27840   0.71110   0.01267  Uiso   1.00
C3     C     0.88270   0.31850   0.61140   0.01267  Uiso   1.00
C4     C     0.84280   0.69820   0.70060   0.01267  Uiso   1.00
C5     C     0.89800   0.65320   0.61650   0.01267  Uiso   1.00
C6     C     0.61130   0.72090   0.69960   0.01267  Uiso   1.00
C7     C     0.55410   0.75470   0.78600   0.01267  Uiso   1.00
C8     C     0.48640   0.34500   0.76850   0.01267  Uiso   1.00
C9     C     0.72160   0.10520   0.78890   0.01267  Uiso   1.00
C10    C     0.68150   0.11730   0.88860   0.01267  Uiso   1.00
C11    C     0.30180   0.15720   0.79940   0.01267  Uiso   1.00
C12    C     0.34680   0.10200   0.88350   0.01267  Uiso   1.00
C13    C     0.27910   0.38870   0.80040   0.01267  Uiso   1.00
C14    C     0.24530   0.44590   0.71400   0.01267  Uiso   1.00
C15    C     0.34500   0.48640   0.26850   0.01267  Uiso   1.00
C16    C     0.10520   0.72160   0.28890   0.01267  Uiso   1.00
C17    C     0.11730   0.68150   0.38860   0.01267  Uiso   1.00
C18    C     0.15720   0.30180   0.29940   0.01267  Uiso   1.00
C19    C     0.10200   0.34680   0.38350   0.01267  Uiso   1.00
C20    C     0.38870   0.27910   0.30040   0.01267  Uiso   1.00
C21    C     0.44590   0.24530   0.21400   0.01267  Uiso   1.00
C22    C     0.51360   0.65500   0.23150   0.01267  Uiso   1.00
C23    C     0.27840   0.89480   0.21110   0.01267  Uiso   1.00
C24    C     0.31850   0.88270   0.11140   0.01267  Uiso   1.00
C25    C     0.69820   0.84280   0.20060   0.01267  Uiso   1.00
C26    C     0.65320   0.89800   0.11650   0.01267  Uiso   1.00
C27    C     0.72090   0.61130   0.19960   0.01267  Uiso   1.00
C28    C     0.75470   0.55410   0.28600   0.01267  Uiso   1.00
C29    C     0.68730   0.31270   0.75000   0.01267  Uiso   1.00
C30    C     0.31270   0.68730   0.25000   0.01267  Uiso   1.00
N1     N     0.74200   0.44040   0.73080   0.01267  Uiso   1.00
N2     N     0.70210   0.64190   0.71050   0.01267  Uiso   1.00
N3     N     0.55960   0.25800   0.76920   0.01267  Uiso   1.00
N4     N     0.35810   0.29790   0.78950   0.01267  Uiso   1.00
N5     N     0.25800   0.55960   0.26920   0.01267  Uiso   1.00
N6     N     0.29790   0.35810   0.28950   0.01267  Uiso   1.00
N7     N     0.44040   0.74200   0.23080   0.01267  Uiso   1.00
N8     N     0.64190   0.70210   0.21050   0.01267  Uiso   1.00
N9     N     0.52750   0.47250   0.75000   0.01267  Uiso   1.00
N10    N     0.76690   0.23310   0.75000   0.01267  Uiso   1.00
N11    N     0.47250   0.52750   0.25000   0.01267  Uiso   1.00
N12    N     0.23310   0.76690   0.25000   0.01267  Uiso   1.00
O1     O     0.97530   0.40910   0.58010   0.01267  Uiso   1.00
O2     O     0.78790   0.26050   0.56510   0.01267  Uiso   1.00
O3     O     0.02350   0.68210   0.61510   0.01267  Uiso   1.00
O4     O     0.82360   0.59420   0.55430   0.01267  Uiso   1.00
O5     O     0.45150   0.79530   0.77920   0.01267  Uiso   1.00
O6     O     0.60400   0.74940   0.86070   0.01267  Uiso   1.00
O7     O     0.59090   0.02470   0.91990   0.01267  Uiso   1.00
O8     O     0.73950   0.21210   0.93490   0.01267  Uiso   1.00
O9     O     0.31790   0.97650   0.88490   0.01267  Uiso   1.00
O10    O     0.40580   0.17640   0.94570   0.01267  Uiso   1.00
O11    O     0.20470   0.54850   0.72080   0.01267  Uiso   1.00
O12    O     0.25060   0.39600   0.63930   0.01267  Uiso   1.00
O13    O     0.02470   0.59090   0.41990   0.01267  Uiso   1.00
O14    O     0.21210   0.73950   0.43490   0.01267  Uiso   1.00
O15    O     0.97650   0.31790   0.38490   0.01267  Uiso   1.00
O16    O     0.17640   0.40580   0.44570   0.01267  Uiso   1.00
O17    O     0.54850   0.20470   0.22080   0.01267  Uiso   1.00
O18    O     0.39600   0.25060   0.13930   0.01267  Uiso   1.00
O19    O     0.40910   0.97530   0.08010   0.01267  Uiso   1.00
O20    O     0.26050   0.78790   0.06510   0.01267  Uiso   1.00
O21    O     0.68210   0.02350   0.11510   0.01267  Uiso   1.00
O22    O     0.59420   0.82360   0.05430   0.01267  Uiso   1.00
O23    O     0.79530   0.45150   0.27920   0.01267  Uiso   1.00
O24    O     0.74940   0.60400   0.36070   0.01267  Uiso   1.00
