data_image0
_cell_length_a       13.022
_cell_length_b       18.755
_cell_length_c       13.403
_cell_angle_alpha    90
_cell_angle_beta     107.72
_cell_angle_gamma    90

_symmetry_space_group_name_H-M    "P 1"
_symmetry_int_tables_number       1

loop_
  _symmetry_equiv_pos_as_xyz
  'x, y, z'

loop_
  _atom_site_label
  _atom_site_occupancy
  _atom_site_fract_x
  _atom_site_fract_y
  _atom_site_fract_z
  _atom_site_thermal_displace_type
  _atom_site_B_iso_or_equiv
  _atom_site_type_symbol
  Ag1      1.0000 0.00213  0.01581  0.88026  Biso   1.000  Ag
  C1       1.0000 0.24290  0.03720  0.71270  Biso   1.000  C
  H1       1.0000 0.25780  0.99390  0.68650  Biso   1.000  H
  C2       1.0000 0.15940  0.13020  0.74290  Biso   1.000  C
  H2       1.0000 0.10470  0.16250  0.74100  Biso   1.000  H
  C3       1.0000 0.26330  0.13760  0.80060  Biso   1.000  C
  H3       1.0000 0.29370  0.17540  0.84450  Biso   1.000  H
  C4       1.0000 0.43100  0.06050  0.83160  Biso   1.000  C
  H4       1.0000 0.44520  0.05680  0.90680  Biso   1.000  H
  H5       1.0000 0.44790  0.01500  0.80600  Biso   1.000  H
  C5       1.0000 0.50080  0.11750  0.80790  Biso   1.000  C
  H6       1.0000 0.52350  0.16360  0.67540  Biso   1.000  H
  H7       1.0000 0.42570  0.11070  0.64760  Biso   1.000  H
  C6       1.0000 0.85710  0.88970  0.62880  Biso   1.000  C
  H8       1.0000 0.91950  0.86360  0.65930  Biso   1.000  H
  C7       1.0000 0.74910  0.97410  0.55550  Biso   1.000  C
  H9       1.0000 0.72320  0.01790  0.52580  Biso   1.000  H
  C8       1.0000 0.68760  0.91850  0.56550  Biso   1.000  C
  H10      1.0000 0.61260  0.91690  0.54460  Biso   1.000  H
  C9       1.0000 0.72880  0.79120  0.62620  Biso   1.000  C
  H11      1.0000 0.78800  0.76870  0.67880  Biso   1.000  H
  H12      1.0000 0.66610  0.79020  0.65090  Biso   1.000  H
  C10      1.0000 0.70440  0.74940  0.52390  Biso   1.000  C
  H13      1.0000 0.85970  0.73100  0.52600  Biso   1.000  H
  H14      1.0000 0.81090  0.79980  0.46300  Biso   1.000  H
  N1       1.0000 0.14640  0.06770  0.68730  Biso   1.000  N
  N2       1.0000 0.31560  0.07750  0.78110  Biso   1.000  N
  N3       1.0000 0.85600  0.95600  0.59600  Biso   1.000  N
  N4       1.0000 0.75670  0.86480  0.61240  Biso   1.000  N
  Ag2      1.0000 0.99787  0.01581  0.61974  Biso   1.000  Ag
  C11      1.0000 0.75710  0.03720  0.78730  Biso   1.000  C
  H15      1.0000 0.74220  0.99390  0.81350  Biso   1.000  H
  C12      1.0000 0.84060  0.13020  0.75710  Biso   1.000  C
  H16      1.0000 0.89530  0.16250  0.75900  Biso   1.000  H
  C13      1.0000 0.73670  0.13760  0.69940  Biso   1.000  C
  H17      1.0000 0.70630  0.17540  0.65550  Biso   1.000  H
  C14      1.0000 0.56900  0.06050  0.66840  Biso   1.000  C
  H18      1.0000 0.55480  0.05680  0.59320  Biso   1.000  H
  H19      1.0000 0.55210  0.01500  0.69400  Biso   1.000  H
  C15      1.0000 0.49920  0.11750  0.69210  Biso   1.000  C
  H20      1.0000 0.47650  0.16360  0.82460  Biso   1.000  H
  H21      1.0000 0.57430  0.11070  0.85240  Biso   1.000  H
  C16      1.0000 0.14290  0.88970  0.87120  Biso   1.000  C
  H22      1.0000 0.08050  0.86360  0.84070  Biso   1.000  H
  C17      1.0000 0.25090  0.97410  0.94450  Biso   1.000  C
  H23      1.0000 0.27680  0.01790  0.97420  Biso   1.000  H
  C18      1.0000 0.31240  0.91850  0.93450  Biso   1.000  C
  H24      1.0000 0.38740  0.91690  0.95540  Biso   1.000  H
  C19      1.0000 0.27120  0.79120  0.87380  Biso   1.000  C
  H25      1.0000 0.21200  0.76870  0.82120  Biso   1.000  H
  H26      1.0000 0.33390  0.79020  0.84910  Biso   1.000  H
  C20      1.0000 0.29560  0.74940  0.97610  Biso   1.000  C
  H27      1.0000 0.14030  0.73100  0.97400  Biso   1.000  H
  H28      1.0000 0.18910  0.79980  0.03700  Biso   1.000  H
  N5       1.0000 0.85360  0.06770  0.81270  Biso   1.000  N
  N6       1.0000 0.68440  0.07750  0.71890  Biso   1.000  N
  N7       1.0000 0.14400  0.95600  0.90400  Biso   1.000  N
  N8       1.0000 0.24330  0.86480  0.88760  Biso   1.000  N
  Ag3      1.0000 0.49787  0.48419  0.11974  Biso   1.000  Ag
  C21      1.0000 0.25710  0.46280  0.28730  Biso   1.000  C
  H29      1.0000 0.24220  0.50610  0.31350  Biso   1.000  H
  C22      1.0000 0.34060  0.36980  0.25710  Biso   1.000  C
  H30      1.0000 0.39530  0.33750  0.25900  Biso   1.000  H
  C23      1.0000 0.23670  0.36240  0.19940  Biso   1.000  C
  H31      1.0000 0.20630  0.32460  0.15550  Biso   1.000  H
  C24      1.0000 0.06900  0.43950  0.16840  Biso   1.000  C
  H32      1.0000 0.05480  0.44320  0.09320  Biso   1.000  H
  H33      1.0000 0.05210  0.48500  0.19400  Biso   1.000  H
  C25      1.0000 0.99920  0.38250  0.19210  Biso   1.000  C
  H34      1.0000 0.97650  0.33640  0.32460  Biso   1.000  H
  H35      1.0000 0.07430  0.38930  0.35240  Biso   1.000  H
  C26      1.0000 0.64290  0.61030  0.37120  Biso   1.000  C
  H36      1.0000 0.58050  0.63640  0.34070  Biso   1.000  H
  C27      1.0000 0.75090  0.52590  0.44450  Biso   1.000  C
  H37      1.0000 0.77680  0.48210  0.47420  Biso   1.000  H
  C28      1.0000 0.81240  0.58150  0.43450  Biso   1.000  C
  H38      1.0000 0.88740  0.58310  0.45540  Biso   1.000  H
  C29      1.0000 0.77120  0.70880  0.37380  Biso   1.000  C
  H39      1.0000 0.71200  0.73130  0.32120  Biso   1.000  H
  H40      1.0000 0.83390  0.70980  0.34910  Biso   1.000  H
  C30      1.0000 0.79560  0.75060  0.47610  Biso   1.000  C
  H41      1.0000 0.64030  0.76900  0.47400  Biso   1.000  H
  H42      1.0000 0.68910  0.70020  0.53700  Biso   1.000  H
  N9       1.0000 0.35360  0.43230  0.31270  Biso   1.000  N
  N10      1.0000 0.18440  0.42250  0.21890  Biso   1.000  N
  N11      1.0000 0.64400  0.54400  0.40400  Biso   1.000  N
  N12      1.0000 0.74330  0.63520  0.38760  Biso   1.000  N
  Ag4      1.0000 0.50213  0.48419  0.38026  Biso   1.000  Ag
  C31      1.0000 0.74290  0.46280  0.21270  Biso   1.000  C
  H43      1.0000 0.75780  0.50610  0.18650  Biso   1.000  H
  C32      1.0000 0.65940  0.36980  0.24290  Biso   1.000  C
  H44      1.0000 0.60470  0.33750  0.24100  Biso   1.000  H
  C33      1.0000 0.76330  0.36240  0.30060  Biso   1.000  C
  H45      1.0000 0.79370  0.32460  0.34450  Biso   1.000  H
  C34      1.0000 0.93100  0.43950  0.33160  Biso   1.000  C
  H46      1.0000 0.94520  0.44320  0.40680  Biso   1.000  H
  H47      1.0000 0.94790  0.48500  0.30600  Biso   1.000  H
  C35      1.0000 0.00080  0.38250  0.30790  Biso   1.000  C
  H48      1.0000 0.02350  0.33640  0.17540  Biso   1.000  H
  H49      1.0000 0.92570  0.38930  0.14760  Biso   1.000  H
  C36      1.0000 0.35710  0.61030  0.12880  Biso   1.000  C
  H50      1.0000 0.41950  0.63640  0.15930  Biso   1.000  H
  C37      1.0000 0.24910  0.52590  0.05550  Biso   1.000  C
  H51      1.0000 0.22320  0.48210  0.02580  Biso   1.000  H
  C38      1.0000 0.18760  0.58150  0.06550  Biso   1.000  C
  H52      1.0000 0.11260  0.58310  0.04460  Biso   1.000  H
  C39      1.0000 0.22880  0.70880  0.12620  Biso   1.000  C
  H53      1.0000 0.28800  0.73130  0.17880  Biso   1.000  H
  H54      1.0000 0.16610  0.70980  0.15090  Biso   1.000  H
  C40      1.0000 0.20440  0.75060  0.02390  Biso   1.000  C
  H55      1.0000 0.35970  0.76900  0.02600  Biso   1.000  H
  H56      1.0000 0.31090  0.70020  0.96300  Biso   1.000  H
  N13      1.0000 0.64640  0.43230  0.18730  Biso   1.000  N
  N14      1.0000 0.81560  0.42250  0.28110  Biso   1.000  N
  N15      1.0000 0.35600  0.54400  0.09600  Biso   1.000  N
  N16      1.0000 0.25670  0.63520  0.11240  Biso   1.000  N
  Ag5      1.0000 0.50213  0.51581  0.88026  Biso   1.000  Ag
  C41      1.0000 0.74290  0.53720  0.71270  Biso   1.000  C
  H57      1.0000 0.75780  0.49390  0.68650  Biso   1.000  H
  C42      1.0000 0.65940  0.63020  0.74290  Biso   1.000  C
  H58      1.0000 0.60470  0.66250  0.74100  Biso   1.000  H
  C43      1.0000 0.76330  0.63760  0.80060  Biso   1.000  C
  H59      1.0000 0.79370  0.67540  0.84450  Biso   1.000  H
  C44      1.0000 0.93100  0.56050  0.83160  Biso   1.000  C
  H60      1.0000 0.94520  0.55680  0.90680  Biso   1.000  H
  H61      1.0000 0.94790  0.51500  0.80600  Biso   1.000  H
  C45      1.0000 0.00080  0.61750  0.80790  Biso   1.000  C
  H62      1.0000 0.02350  0.66360  0.67540  Biso   1.000  H
  H63      1.0000 0.92570  0.61070  0.64760  Biso   1.000  H
  C46      1.0000 0.35710  0.38970  0.62880  Biso   1.000  C
  H64      1.0000 0.41950  0.36360  0.65930  Biso   1.000  H
  C47      1.0000 0.24910  0.47410  0.55550  Biso   1.000  C
  H65      1.0000 0.22320  0.51790  0.52580  Biso   1.000  H
  C48      1.0000 0.18760  0.41850  0.56550  Biso   1.000  C
  H66      1.0000 0.11260  0.41690  0.54460  Biso   1.000  H
  C49      1.0000 0.22880  0.29120  0.62620  Biso   1.000  C
  H67      1.0000 0.28800  0.26870  0.67880  Biso   1.000  H
  H68      1.0000 0.16610  0.29020  0.65090  Biso   1.000  H
  C50      1.0000 0.20440  0.24940  0.52390  Biso   1.000  C
  H69      1.0000 0.35970  0.23100  0.52600  Biso   1.000  H
  H70      1.0000 0.31090  0.29980  0.46300  Biso   1.000  H
  N17      1.0000 0.64640  0.56770  0.68730  Biso   1.000  N
  N18      1.0000 0.81560  0.57750  0.78110  Biso   1.000  N
  N19      1.0000 0.35600  0.45600  0.59600  Biso   1.000  N
  N20      1.0000 0.25670  0.36480  0.61240  Biso   1.000  N
  Ag6      1.0000 0.49787  0.51581  0.61974  Biso   1.000  Ag
  C51      1.0000 0.25710  0.53720  0.78730  Biso   1.000  C
  H71      1.0000 0.24220  0.49390  0.81350  Biso   1.000  H
  C52      1.0000 0.34060  0.63020  0.75710  Biso   1.000  C
  H72      1.0000 0.39530  0.66250  0.75900  Biso   1.000  H
  C53      1.0000 0.23670  0.63760  0.69940  Biso   1.000  C
  H73      1.0000 0.20630  0.67540  0.65550  Biso   1.000  H
  C54      1.0000 0.06900  0.56050  0.66840  Biso   1.000  C
  H74      1.0000 0.05480  0.55680  0.59320  Biso   1.000  H
  H75      1.0000 0.05210  0.51500  0.69400  Biso   1.000  H
  C55      1.0000 0.99920  0.61750  0.69210  Biso   1.000  C
  H76      1.0000 0.97650  0.66360  0.82460  Biso   1.000  H
  H77      1.0000 0.07430  0.61070  0.85240  Biso   1.000  H
  C56      1.0000 0.64290  0.38970  0.87120  Biso   1.000  C
  H78      1.0000 0.58050  0.36360  0.84070  Biso   1.000  H
  C57      1.0000 0.75090  0.47410  0.94450  Biso   1.000  C
  H79      1.0000 0.77680  0.51790  0.97420  Biso   1.000  H
  C58      1.0000 0.81240  0.41850  0.93450  Biso   1.000  C
  H80      1.0000 0.88740  0.41690  0.95540  Biso   1.000  H
  C59      1.0000 0.77120  0.29120  0.87380  Biso   1.000  C
  H81      1.0000 0.71200  0.26870  0.82120  Biso   1.000  H
  H82      1.0000 0.83390  0.29020  0.84910  Biso   1.000  H
  C60      1.0000 0.79560  0.24940  0.97610  Biso   1.000  C
  H83      1.0000 0.64030  0.23100  0.97400  Biso   1.000  H
  H84      1.0000 0.68910  0.29980  0.03700  Biso   1.000  H
  N21      1.0000 0.35360  0.56770  0.81270  Biso   1.000  N
  N22      1.0000 0.18440  0.57750  0.71890  Biso   1.000  N
  N23      1.0000 0.64400  0.45600  0.90400  Biso   1.000  N
  N24      1.0000 0.74330  0.36480  0.88760  Biso   1.000  N
  Ag7      1.0000 0.99787  0.98419  0.11974  Biso   1.000  Ag
  C61      1.0000 0.75710  0.96280  0.28730  Biso   1.000  C
  H85      1.0000 0.74220  0.00610  0.31350  Biso   1.000  H
  C62      1.0000 0.84060  0.86980  0.25710  Biso   1.000  C
  H86      1.0000 0.89530  0.83750  0.25900  Biso   1.000  H
  C63      1.0000 0.73670  0.86240  0.19940  Biso   1.000  C
  H87      1.0000 0.70630  0.82460  0.15550  Biso   1.000  H
  C64      1.0000 0.56900  0.93950  0.16840  Biso   1.000  C
  H88      1.0000 0.55480  0.94320  0.09320  Biso   1.000  H
  H89      1.0000 0.55210  0.98500  0.19400  Biso   1.000  H
  C65      1.0000 0.49920  0.88250  0.19210  Biso   1.000  C
  H90      1.0000 0.47650  0.83640  0.32460  Biso   1.000  H
  H91      1.0000 0.57430  0.88930  0.35240  Biso   1.000  H
  C66      1.0000 0.14290  0.11030  0.37120  Biso   1.000  C
  H92      1.0000 0.08050  0.13640  0.34070  Biso   1.000  H
  C67      1.0000 0.25090  0.02590  0.44450  Biso   1.000  C
  H93      1.0000 0.27680  0.98210  0.47420  Biso   1.000  H
  C68      1.0000 0.31240  0.08150  0.43450  Biso   1.000  C
  H94      1.0000 0.38740  0.08310  0.45540  Biso   1.000  H
  C69      1.0000 0.27120  0.20880  0.37380  Biso   1.000  C
  H95      1.0000 0.21200  0.23130  0.32120  Biso   1.000  H
  H96      1.0000 0.33390  0.20980  0.34910  Biso   1.000  H
  C70      1.0000 0.29560  0.25060  0.47610  Biso   1.000  C
  H97      1.0000 0.14030  0.26900  0.47400  Biso   1.000  H
  H98      1.0000 0.18910  0.20020  0.53700  Biso   1.000  H
  N25      1.0000 0.85360  0.93230  0.31270  Biso   1.000  N
  N26      1.0000 0.68440  0.92250  0.21890  Biso   1.000  N
  N27      1.0000 0.14400  0.04400  0.40400  Biso   1.000  N
  N28      1.0000 0.24330  0.13520  0.38760  Biso   1.000  N
  Ag8      1.0000 0.00213  0.98419  0.38026  Biso   1.000  Ag
  C71      1.0000 0.24290  0.96280  0.21270  Biso   1.000  C
  H99      1.0000 0.25780  0.00610  0.18650  Biso   1.000  H
  C72      1.0000 0.15940  0.86980  0.24290  Biso   1.000  C
  H100     1.0000 0.10470  0.83750  0.24100  Biso   1.000  H
  C73      1.0000 0.26330  0.86240  0.30060  Biso   1.000  C
  H101     1.0000 0.29370  0.82460  0.34450  Biso   1.000  H
  C74      1.0000 0.43100  0.93950  0.33160  Biso   1.000  C
  H102     1.0000 0.44520  0.94320  0.40680  Biso   1.000  H
  H103     1.0000 0.44790  0.98500  0.30600  Biso   1.000  H
  C75      1.0000 0.50080  0.88250  0.30790  Biso   1.000  C
  H104     1.0000 0.52350  0.83640  0.17540  Biso   1.000  H
  H105     1.0000 0.42570  0.88930  0.14760  Biso   1.000  H
  C76      1.0000 0.85710  0.11030  0.12880  Biso   1.000  C
  H106     1.0000 0.91950  0.13640  0.15930  Biso   1.000  H
  C77      1.0000 0.74910  0.02590  0.05550  Biso   1.000  C
  H107     1.0000 0.72320  0.98210  0.02580  Biso   1.000  H
  C78      1.0000 0.68760  0.08150  0.06550  Biso   1.000  C
  H108     1.0000 0.61260  0.08310  0.04460  Biso   1.000  H
  C79      1.0000 0.72880  0.20880  0.12620  Biso   1.000  C
  H109     1.0000 0.78800  0.23130  0.17880  Biso   1.000  H
  H110     1.0000 0.66610  0.20980  0.15090  Biso   1.000  H
  C80      1.0000 0.70440  0.25060  0.02390  Biso   1.000  C
  H111     1.0000 0.85970  0.26900  0.02600  Biso   1.000  H
  H112     1.0000 0.81090  0.20020  0.96300  Biso   1.000  H
  N29      1.0000 0.14640  0.93230  0.18730  Biso   1.000  N
  N30      1.0000 0.31560  0.92250  0.28110  Biso   1.000  N
  N31      1.0000 0.85600  0.04400  0.09600  Biso   1.000  N
  N32      1.0000 0.75670  0.13520  0.11240  Biso   1.000  N
