data_CUMDIY_clean
_audit_creation_date              2014-07-02
_audit_creation_method            'Materials Studio'
_symmetry_space_group_name_H-M    'P1'
_symmetry_Int_Tables_number       1
_symmetry_cell_setting            triclinic
loop_
_symmetry_equiv_pos_as_xyz
  x,y,z
_cell_length_a                    5.7630
_cell_length_b                    10.2130
_cell_length_c                    11.6490
_cell_angle_alpha                 84.2420
_cell_angle_beta                  89.0510
_cell_angle_gamma                 82.8760
loop_
_atom_site_label
_atom_site_type_symbol
_atom_site_fract_x
_atom_site_fract_y
_atom_site_fract_z
_atom_site_U_iso_or_equiv
_atom_site_adp_type
_atom_site_occupancy
La1    La    0.21771   0.14523   0.47195   0.01267  Uiso   1.00
La2    La    0.78229   0.85477   0.52805   0.01267  Uiso   1.00
P1     P     0.72080   0.17009   0.66127   0.01267  Uiso   1.00
P2     P     0.67020   0.16013   0.30946   0.01267  Uiso   1.00
P3     P     0.27920   0.82991   0.33873   0.01267  Uiso   1.00
P4     P     0.32980   0.83987   0.69054   0.01267  Uiso   1.00
H1     H     0.51150   0.98280   0.15970   0.01267  Uiso   1.00
H2     H     0.02330   0.27220   0.72760   0.01267  Uiso   1.00
H3     H     0.79440   0.37220   0.71810   0.01267  Uiso   1.00
H4     H     0.67920   0.39000   0.47900   0.01267  Uiso   1.00
H5     H     0.69490   0.51030   0.55110   0.01267  Uiso   1.00
H6     H     0.04670   0.53050   0.65330   0.01267  Uiso   1.00
H7     H     0.26710   0.42440   0.64640   0.01267  Uiso   1.00
H8     H     0.90520   0.03230   0.19020   0.01267  Uiso   1.00
H9     H     0.81450   0.16850   0.12310   0.01267  Uiso   1.00
H10    H     0.82560   0.98430   0.97940   0.01267  Uiso   1.00
H11    H     0.82820   0.86890   0.07920   0.01267  Uiso   1.00
H12    H     0.35140   0.19010   0.08550   0.01267  Uiso   1.00
H13    H     0.53270   0.18340   0.98350   0.01267  Uiso   1.00
H14    H     0.48850   0.01720   0.84030   0.01267  Uiso   1.00
H15    H     0.97670   0.72780   0.27240   0.01267  Uiso   1.00
H16    H     0.20560   0.62780   0.28190   0.01267  Uiso   1.00
H17    H     0.32080   0.61000   0.52100   0.01267  Uiso   1.00
H18    H     0.30510   0.48970   0.44890   0.01267  Uiso   1.00
H19    H     0.95330   0.46950   0.34670   0.01267  Uiso   1.00
H20    H     0.73290   0.57560   0.35360   0.01267  Uiso   1.00
H21    H     0.09480   0.96770   0.80980   0.01267  Uiso   1.00
H22    H     0.18550   0.83150   0.87690   0.01267  Uiso   1.00
H23    H     0.17440   0.01570   0.02060   0.01267  Uiso   1.00
H24    H     0.17180   0.13110   0.92080   0.01267  Uiso   1.00
H25    H     0.64860   0.80990   0.91450   0.01267  Uiso   1.00
H26    H     0.46730   0.81660   0.01650   0.01267  Uiso   1.00
C1     C     0.89080   0.30610   0.67830   0.01267  Uiso   1.00
C2     C     0.78320   0.45020   0.50240   0.01267  Uiso   1.00
C3     C     0.13340   0.47080   0.60370   0.01267  Uiso   1.00
C4     C     0.76680   0.09550   0.17410   0.01267  Uiso   1.00
C5     C     0.72750   0.93610   0.03250   0.01267  Uiso   1.00
C6     C     0.44030   0.13100   0.03620   0.01267  Uiso   1.00
C7     C     0.10920   0.69390   0.32170   0.01267  Uiso   1.00
C8     C     0.21680   0.54980   0.49760   0.01267  Uiso   1.00
C9     C     0.86660   0.52920   0.39630   0.01267  Uiso   1.00
C10    C     0.23320   0.90450   0.82590   0.01267  Uiso   1.00
C11    C     0.27250   0.06390   0.96750   0.01267  Uiso   1.00
C12    C     0.55970   0.86900   0.96380   0.01267  Uiso   1.00
N1     N     0.97970   0.37250   0.57000   0.01267  Uiso   1.00
N2     N     0.59930   0.02900   0.10850   0.01267  Uiso   1.00
N3     N     0.02030   0.62750   0.43000   0.01267  Uiso   1.00
N4     N     0.40070   0.97100   0.89150   0.01267  Uiso   1.00
O1     O     0.49590   0.22250   0.59710   0.01267  Uiso   1.00
O2     O     0.88370   0.07290   0.59330   0.01267  Uiso   1.00
O3     O     0.68600   0.10970   0.78510   0.01267  Uiso   1.00
O4     O     0.88710   0.21860   0.34240   0.01267  Uiso   1.00
O5     O     0.44470   0.25780   0.29840   0.01267  Uiso   1.00
O6     O     0.60740   0.04180   0.39170   0.01267  Uiso   1.00
O7     O     0.50410   0.77750   0.40290   0.01267  Uiso   1.00
O8     O     0.11630   0.92710   0.40670   0.01267  Uiso   1.00
O9     O     0.31400   0.89030   0.21490   0.01267  Uiso   1.00
O10    O     0.11290   0.78140   0.65760   0.01267  Uiso   1.00
O11    O     0.55530   0.74220   0.70160   0.01267  Uiso   1.00
O12    O     0.39260   0.95820   0.60830   0.01267  Uiso   1.00
