data_image0
_cell_length_a       18.45
_cell_length_b       20.71
_cell_length_c       14.174
_cell_angle_alpha    90
_cell_angle_beta     90
_cell_angle_gamma    90

_symmetry_space_group_name_H-M    "P 1"
_symmetry_int_tables_number       1

loop_
  _symmetry_equiv_pos_as_xyz
  'x, y, z'

loop_
  _atom_site_label
  _atom_site_occupancy
  _atom_site_fract_x
  _atom_site_fract_y
  _atom_site_fract_z
  _atom_site_thermal_displace_type
  _atom_site_B_iso_or_equiv
  _atom_site_type_symbol
  Mo1      1.0000 0.16142  0.73027  0.09552  Biso   1.000  Mo
  Mo2      1.0000 0.24589  0.83360  0.09257  Biso   1.000  Mo
  Mo3      1.0000 0.73623  0.17917  0.09983  Biso   1.000  Mo
  Mo4      1.0000 0.82494  0.28003  0.09992  Biso   1.000  Mo
  S1       1.0000 0.16657  0.80780  0.21406  Biso   1.000  S
  S2       1.0000 0.80938  0.20944  0.22625  Biso   1.000  S
  Na1      1.0000 0.99669  0.50115  0.25850  Biso   1.000  Na
  O1       1.0000 0.21050  0.56750  0.79990  Biso   1.000  O
  H1       1.0000 0.19690  0.53860  0.76220  Biso   1.000  H
  O2       1.0000 0.09300  0.57210  0.83360  Biso   1.000  O
  O3       1.0000 0.99040  0.60570  0.15080  Biso   1.000  O
  O4       1.0000 0.07430  0.68150  0.16430  Biso   1.000  O
  O5       1.0000 0.98750  0.78750  0.92230  Biso   1.000  O
  O6       1.0000 0.06370  0.77640  0.04190  Biso   1.000  O
  O7       1.0000 0.21210  0.77497  0.99710  Biso   1.000  O
  O8       1.0000 0.16770  0.89990  0.02640  Biso   1.000  O
  O9       1.0000 0.13420  0.94980  0.89450  Biso   1.000  O
  O10      1.0000 0.26770  0.92450  0.15800  Biso   1.000  O
  O11      1.0000 0.33290  0.01330  0.14750  Biso   1.000  O
  O12      1.0000 0.42580  0.83390  0.78780  Biso   1.000  O
  H2       1.0000 0.45180  0.85270  0.74770  Biso   1.000  H
  O13      1.0000 0.41570  0.93320  0.84650  Biso   1.000  O
  O14      1.0000 0.56880  0.17180  0.78670  Biso   1.000  O
  H3       1.0000 0.54040  0.15260  0.74970  Biso   1.000  H
  O15      1.0000 0.59730  0.07220  0.83190  Biso   1.000  O
  O16      1.0000 0.64660  0.99980  0.15380  Biso   1.000  O
  O17      1.0000 0.70500  0.09291  0.17030  Biso   1.000  O
  O18      1.0000 0.86590  0.05320  0.93590  Biso   1.000  O
  O19      1.0000 0.81800  0.10778  0.05540  Biso   1.000  O
  O20      1.0000 0.77877  0.23091  0.00200  Biso   1.000  O
  O21      1.0000 0.92340  0.22709  0.05780  Biso   1.000  O
  O22      1.0000 0.99550  0.20010  0.94000  Biso   1.000  O
  O23      1.0000 0.91070  0.32780  0.17080  Biso   1.000  O
  O24      1.0000 0.00230  0.39660  0.15670  Biso   1.000  O
  O25      1.0000 0.80110  0.44070  0.79610  Biso   1.000  O
  H4       1.0000 0.81940  0.46380  0.75360  Biso   1.000  H
  O26      1.0000 0.91710  0.42110  0.82930  Biso   1.000  O
  N1       1.0000 0.68810  0.12090  0.97750  Biso   1.000  N
  N2       1.0000 0.87820  0.33590  0.97760  Biso   1.000  N
  N3       1.0000 0.11830  0.66530  0.97780  Biso   1.000  N
  N4       1.0000 0.30680  0.88720  0.97450  Biso   1.000  N
  C1       1.0000 0.15480  0.58800  0.84870  Biso   1.000  C
  C2       1.0000 0.17920  0.63420  0.92520  Biso   1.000  C
  H5       1.0000 0.21000  0.61040  0.97060  Biso   1.000  H
  H6       1.0000 0.20940  0.66840  0.89620  Biso   1.000  H
  C3       1.0000 0.07320  0.61670  0.02560  Biso   1.000  C
  H7       1.0000 0.10250  0.57710  0.03490  Biso   1.000  H
  H8       1.0000 0.03220  0.60530  0.98350  Biso   1.000  H
  C4       1.0000 0.04320  0.63700  0.11880  Biso   1.000  C
  C5       1.0000 0.07710  0.70650  0.91160  Biso   1.000  C
  H9       1.0000 0.04120  0.67960  0.87760  Biso   1.000  H
  H10      1.0000 0.11070  0.72490  0.86430  Biso   1.000  H
  C6       1.0000 0.03840  0.76040  0.96150  Biso   1.000  C
  C7       1.0000 0.40190  0.87560  0.84840  Biso   1.000  C
  C8       1.0000 0.35660  0.84380  0.92370  Biso   1.000  C
  H11      1.0000 0.32770  0.80900  0.89410  Biso   1.000  H
  H12      1.0000 0.38950  0.82340  0.97010  Biso   1.000  H
  C9       1.0000 0.31290  0.96010  0.11740  Biso   1.000  C
  C10      1.0000 0.34670  0.93880  0.02550  Biso   1.000  C
  H13      1.0000 0.35060  0.97690  0.98350  Biso   1.000  H
  H14      1.0000 0.39650  0.92340  0.03840  Biso   1.000  H
  C11      1.0000 0.17910  0.92180  0.94490  Biso   1.000  C
  C12      1.0000 0.25400  0.91430  0.90620  Biso   1.000  C
  H15      1.0000 0.25200  0.88580  0.85020  Biso   1.000  H
  H16      1.0000 0.27160  0.95710  0.88500  Biso   1.000  H
  C13      1.0000 0.60050  0.12960  0.84170  Biso   1.000  C
  C14      1.0000 0.64060  0.16380  0.92210  Biso   1.000  C
  H17      1.0000 0.67020  0.19910  0.89510  Biso   1.000  H
  H18      1.0000 0.60450  0.18360  0.96490  Biso   1.000  H
  C15      1.0000 0.66860  0.05200  0.12300  Biso   1.000  C
  C16      1.0000 0.64580  0.06860  0.02320  Biso   1.000  C
  H19      1.0000 0.64970  0.02930  0.98390  Biso   1.000  H
  H20      1.0000 0.59410  0.08150  0.02420  Biso   1.000  H
  C17      1.0000 0.81550  0.08300  0.97230  Biso   1.000  C
  C18      1.0000 0.74710  0.09720  0.91750  Biso   1.000  C
  H21      1.0000 0.75790  0.12990  0.86850  Biso   1.000  H
  H22      1.0000 0.73110  0.05730  0.88510  Biso   1.000  H
  C19      1.0000 0.85330  0.41260  0.84510  Biso   1.000  C
  C20      1.0000 0.82250  0.37040  0.92260  Biso   1.000  C
  H23      1.0000 0.79370  0.39770  0.96600  Biso   1.000  H
  H24      1.0000 0.78930  0.33830  0.89400  Biso   1.000  H
  C21      1.0000 0.94930  0.36730  0.12370  Biso   1.000  C
  C22      1.0000 0.93050  0.38120  0.02310  Biso   1.000  C
  H25      1.0000 0.91000  0.42540  0.01960  Biso   1.000  H
  H26      1.0000 0.97580  0.38110  0.98570  Biso   1.000  H
  C23      1.0000 0.94910  0.23450  0.97440  Biso   1.000  C
  C24      1.0000 0.91480  0.28770  0.91720  Biso   1.000  C
  H27      1.0000 0.95260  0.30950  0.87920  Biso   1.000  H
  H28      1.0000 0.87900  0.26870  0.87310  Biso   1.000  H
  Mo5      1.0000 0.83858  0.26973  0.59552  Biso   1.000  Mo
  Mo6      1.0000 0.75411  0.16640  0.59257  Biso   1.000  Mo
  Mo7      1.0000 0.26377  0.82083  0.59983  Biso   1.000  Mo
  Mo8      1.0000 0.17506  0.71997  0.59992  Biso   1.000  Mo
  S3       1.0000 0.83343  0.19220  0.71406  Biso   1.000  S
  S4       1.0000 0.19062  0.79056  0.72625  Biso   1.000  S
  Na2      1.0000 0.00331  0.49885  0.75850  Biso   1.000  Na
  O27      1.0000 0.78950  0.43250  0.29990  Biso   1.000  O
  H29      1.0000 0.80310  0.46140  0.26220  Biso   1.000  H
  O28      1.0000 0.90700  0.42790  0.33360  Biso   1.000  O
  O29      1.0000 0.00960  0.39430  0.65080  Biso   1.000  O
  O30      1.0000 0.92570  0.31850  0.66430  Biso   1.000  O
  O31      1.0000 0.01250  0.21250  0.42230  Biso   1.000  O
  O32      1.0000 0.93630  0.22360  0.54190  Biso   1.000  O
  O33      1.0000 0.78790  0.22503  0.49710  Biso   1.000  O
  O34      1.0000 0.83230  0.10010  0.52640  Biso   1.000  O
  O35      1.0000 0.86580  0.05020  0.39450  Biso   1.000  O
  O36      1.0000 0.73230  0.07550  0.65800  Biso   1.000  O
  O37      1.0000 0.66710  0.98670  0.64750  Biso   1.000  O
  O38      1.0000 0.57420  0.16610  0.28780  Biso   1.000  O
  H30      1.0000 0.54820  0.14730  0.24770  Biso   1.000  H
  O39      1.0000 0.58430  0.06680  0.34650  Biso   1.000  O
  O40      1.0000 0.43120  0.82820  0.28670  Biso   1.000  O
  H31      1.0000 0.45960  0.84740  0.24970  Biso   1.000  H
  O41      1.0000 0.40270  0.92780  0.33190  Biso   1.000  O
  O42      1.0000 0.35340  0.00020  0.65380  Biso   1.000  O
  O43      1.0000 0.29500  0.90709  0.67030  Biso   1.000  O
  O44      1.0000 0.13410  0.94680  0.43590  Biso   1.000  O
  O45      1.0000 0.18200  0.89222  0.55540  Biso   1.000  O
  O46      1.0000 0.22123  0.76909  0.50200  Biso   1.000  O
  O47      1.0000 0.07660  0.77291  0.55780  Biso   1.000  O
  O48      1.0000 0.00450  0.79990  0.44000  Biso   1.000  O
  O49      1.0000 0.08930  0.67220  0.67080  Biso   1.000  O
  O50      1.0000 0.99770  0.60340  0.65670  Biso   1.000  O
  O51      1.0000 0.19890  0.55930  0.29610  Biso   1.000  O
  H32      1.0000 0.18060  0.53620  0.25360  Biso   1.000  H
  O52      1.0000 0.08290  0.57890  0.32930  Biso   1.000  O
  N5       1.0000 0.31190  0.87910  0.47750  Biso   1.000  N
  N6       1.0000 0.12180  0.66410  0.47760  Biso   1.000  N
  N7       1.0000 0.88170  0.33470  0.47780  Biso   1.000  N
  N8       1.0000 0.69320  0.11280  0.47450  Biso   1.000  N
  C25      1.0000 0.84520  0.41200  0.34870  Biso   1.000  C
  C26      1.0000 0.82080  0.36580  0.42520  Biso   1.000  C
  H33      1.0000 0.79000  0.38960  0.47060  Biso   1.000  H
  H34      1.0000 0.79060  0.33160  0.39620  Biso   1.000  H
  C27      1.0000 0.92680  0.38330  0.52560  Biso   1.000  C
  H35      1.0000 0.89750  0.42290  0.53490  Biso   1.000  H
  H36      1.0000 0.96780  0.39470  0.48350  Biso   1.000  H
  C28      1.0000 0.95680  0.36300  0.61880  Biso   1.000  C
  C29      1.0000 0.92290  0.29350  0.41160  Biso   1.000  C
  H37      1.0000 0.95880  0.32040  0.37760  Biso   1.000  H
  H38      1.0000 0.88930  0.27510  0.36430  Biso   1.000  H
  C30      1.0000 0.96160  0.23960  0.46150  Biso   1.000  C
  C31      1.0000 0.59810  0.12440  0.34840  Biso   1.000  C
  C32      1.0000 0.64340  0.15620  0.42370  Biso   1.000  C
  H39      1.0000 0.67230  0.19100  0.39410  Biso   1.000  H
  H40      1.0000 0.61050  0.17660  0.47010  Biso   1.000  H
  C33      1.0000 0.68710  0.03990  0.61740  Biso   1.000  C
  C34      1.0000 0.65330  0.06120  0.52550  Biso   1.000  C
  H41      1.0000 0.64940  0.02310  0.48350  Biso   1.000  H
  H42      1.0000 0.60350  0.07660  0.53840  Biso   1.000  H
  C35      1.0000 0.82090  0.07820  0.44490  Biso   1.000  C
  C36      1.0000 0.74600  0.08570  0.40620  Biso   1.000  C
  H43      1.0000 0.74800  0.11420  0.35020  Biso   1.000  H
  H44      1.0000 0.72840  0.04290  0.38500  Biso   1.000  H
  C37      1.0000 0.39950  0.87040  0.34170  Biso   1.000  C
  C38      1.0000 0.35940  0.83620  0.42210  Biso   1.000  C
  H45      1.0000 0.32980  0.80090  0.39510  Biso   1.000  H
  H46      1.0000 0.39550  0.81640  0.46490  Biso   1.000  H
  C39      1.0000 0.33140  0.94800  0.62300  Biso   1.000  C
  C40      1.0000 0.35420  0.93140  0.52320  Biso   1.000  C
  H47      1.0000 0.35030  0.97070  0.48390  Biso   1.000  H
  H48      1.0000 0.40590  0.91850  0.52420  Biso   1.000  H
  C41      1.0000 0.18450  0.91700  0.47230  Biso   1.000  C
  C42      1.0000 0.25290  0.90280  0.41750  Biso   1.000  C
  H49      1.0000 0.24210  0.87010  0.36850  Biso   1.000  H
  H50      1.0000 0.26890  0.94270  0.38510  Biso   1.000  H
  C43      1.0000 0.14670  0.58740  0.34510  Biso   1.000  C
  C44      1.0000 0.17750  0.62960  0.42260  Biso   1.000  C
  H51      1.0000 0.20630  0.60230  0.46600  Biso   1.000  H
  H52      1.0000 0.21070  0.66170  0.39400  Biso   1.000  H
  C45      1.0000 0.05070  0.63270  0.62370  Biso   1.000  C
  C46      1.0000 0.06950  0.61880  0.52310  Biso   1.000  C
  H53      1.0000 0.09000  0.57460  0.51960  Biso   1.000  H
  H54      1.0000 0.02420  0.61890  0.48570  Biso   1.000  H
  C47      1.0000 0.05090  0.76550  0.47440  Biso   1.000  C
  C48      1.0000 0.08520  0.71230  0.41720  Biso   1.000  C
  H55      1.0000 0.04740  0.69050  0.37920  Biso   1.000  H
  H56      1.0000 0.12100  0.73130  0.37310  Biso   1.000  H
  Mo9      1.0000 0.66142  0.76973  0.09552  Biso   1.000  Mo
  Mo10     1.0000 0.74589  0.66640  0.09257  Biso   1.000  Mo
  Mo11     1.0000 0.23623  0.32083  0.09983  Biso   1.000  Mo
  Mo12     1.0000 0.32494  0.21997  0.09992  Biso   1.000  Mo
  S5       1.0000 0.66657  0.69220  0.21406  Biso   1.000  S
  S6       1.0000 0.30938  0.29056  0.22625  Biso   1.000  S
  Na3      1.0000 0.49669  0.99885  0.25850  Biso   1.000  Na
  O53      1.0000 0.71050  0.93250  0.79990  Biso   1.000  O
  H57      1.0000 0.69690  0.96140  0.76220  Biso   1.000  H
  O54      1.0000 0.59300  0.92790  0.83360  Biso   1.000  O
  O55      1.0000 0.49040  0.89430  0.15080  Biso   1.000  O
  O56      1.0000 0.57430  0.81850  0.16430  Biso   1.000  O
  O57      1.0000 0.48750  0.71250  0.92230  Biso   1.000  O
  O58      1.0000 0.56370  0.72360  0.04190  Biso   1.000  O
  O59      1.0000 0.71210  0.72503  0.99710  Biso   1.000  O
  O60      1.0000 0.66770  0.60010  0.02640  Biso   1.000  O
  O61      1.0000 0.63420  0.55020  0.89450  Biso   1.000  O
  O62      1.0000 0.76770  0.57550  0.15800  Biso   1.000  O
  O63      1.0000 0.83290  0.48670  0.14750  Biso   1.000  O
  O64      1.0000 0.92580  0.66610  0.78780  Biso   1.000  O
  H58      1.0000 0.95180  0.64730  0.74770  Biso   1.000  H
  O65      1.0000 0.91570  0.56680  0.84650  Biso   1.000  O
  O66      1.0000 0.06880  0.32820  0.78670  Biso   1.000  O
  H59      1.0000 0.04040  0.34740  0.74970  Biso   1.000  H
  O67      1.0000 0.09730  0.42780  0.83190  Biso   1.000  O
  O68      1.0000 0.14660  0.50020  0.15380  Biso   1.000  O
  O69      1.0000 0.20500  0.40709  0.17030  Biso   1.000  O
  O70      1.0000 0.36590  0.44680  0.93590  Biso   1.000  O
  O71      1.0000 0.31800  0.39222  0.05540  Biso   1.000  O
  O72      1.0000 0.27877  0.26909  0.00200  Biso   1.000  O
  O73      1.0000 0.42340  0.27291  0.05780  Biso   1.000  O
  O74      1.0000 0.49550  0.29990  0.94000  Biso   1.000  O
  O75      1.0000 0.41070  0.17220  0.17080  Biso   1.000  O
  O76      1.0000 0.50230  0.10340  0.15670  Biso   1.000  O
  O77      1.0000 0.30110  0.05930  0.79610  Biso   1.000  O
  H60      1.0000 0.31940  0.03620  0.75360  Biso   1.000  H
  O78      1.0000 0.41710  0.07890  0.82930  Biso   1.000  O
  N9       1.0000 0.18810  0.37910  0.97750  Biso   1.000  N
  N10      1.0000 0.37820  0.16410  0.97760  Biso   1.000  N
  N11      1.0000 0.61830  0.83470  0.97780  Biso   1.000  N
  N12      1.0000 0.80680  0.61280  0.97450  Biso   1.000  N
  C49      1.0000 0.65480  0.91200  0.84870  Biso   1.000  C
  C50      1.0000 0.67920  0.86580  0.92520  Biso   1.000  C
  H61      1.0000 0.71000  0.88960  0.97060  Biso   1.000  H
  H62      1.0000 0.70940  0.83160  0.89620  Biso   1.000  H
  C51      1.0000 0.57320  0.88330  0.02560  Biso   1.000  C
  H63      1.0000 0.60250  0.92290  0.03490  Biso   1.000  H
  H64      1.0000 0.53220  0.89470  0.98350  Biso   1.000  H
  C52      1.0000 0.54320  0.86300  0.11880  Biso   1.000  C
  C53      1.0000 0.57710  0.79350  0.91160  Biso   1.000  C
  H65      1.0000 0.54120  0.82040  0.87760  Biso   1.000  H
  H66      1.0000 0.61070  0.77510  0.86430  Biso   1.000  H
  C54      1.0000 0.53840  0.73960  0.96150  Biso   1.000  C
  C55      1.0000 0.90190  0.62440  0.84840  Biso   1.000  C
  C56      1.0000 0.85660  0.65620  0.92370  Biso   1.000  C
  H67      1.0000 0.82770  0.69100  0.89410  Biso   1.000  H
  H68      1.0000 0.88950  0.67660  0.97010  Biso   1.000  H
  C57      1.0000 0.81290  0.53990  0.11740  Biso   1.000  C
  C58      1.0000 0.84670  0.56120  0.02550  Biso   1.000  C
  H69      1.0000 0.85060  0.52310  0.98350  Biso   1.000  H
  H70      1.0000 0.89650  0.57660  0.03840  Biso   1.000  H
  C59      1.0000 0.67910  0.57820  0.94490  Biso   1.000  C
  C60      1.0000 0.75400  0.58570  0.90620  Biso   1.000  C
  H71      1.0000 0.75200  0.61420  0.85020  Biso   1.000  H
  H72      1.0000 0.77160  0.54290  0.88500  Biso   1.000  H
  C61      1.0000 0.10050  0.37040  0.84170  Biso   1.000  C
  C62      1.0000 0.14060  0.33620  0.92210  Biso   1.000  C
  H73      1.0000 0.17020  0.30090  0.89510  Biso   1.000  H
  H74      1.0000 0.10450  0.31640  0.96490  Biso   1.000  H
  C63      1.0000 0.16860  0.44800  0.12300  Biso   1.000  C
  C64      1.0000 0.14580  0.43140  0.02320  Biso   1.000  C
  H75      1.0000 0.14970  0.47070  0.98390  Biso   1.000  H
  H76      1.0000 0.09410  0.41850  0.02420  Biso   1.000  H
  C65      1.0000 0.31550  0.41700  0.97230  Biso   1.000  C
  C66      1.0000 0.24710  0.40280  0.91750  Biso   1.000  C
  H77      1.0000 0.25790  0.37010  0.86850  Biso   1.000  H
  H78      1.0000 0.23110  0.44270  0.88510  Biso   1.000  H
  C67      1.0000 0.35330  0.08740  0.84510  Biso   1.000  C
  C68      1.0000 0.32250  0.12960  0.92260  Biso   1.000  C
  H79      1.0000 0.29370  0.10230  0.96600  Biso   1.000  H
  H80      1.0000 0.28930  0.16170  0.89400  Biso   1.000  H
  C69      1.0000 0.44930  0.13270  0.12370  Biso   1.000  C
  C70      1.0000 0.43050  0.11880  0.02310  Biso   1.000  C
  H81      1.0000 0.41000  0.07460  0.01960  Biso   1.000  H
  H82      1.0000 0.47580  0.11890  0.98570  Biso   1.000  H
  C71      1.0000 0.44910  0.26550  0.97440  Biso   1.000  C
  C72      1.0000 0.41480  0.21230  0.91720  Biso   1.000  C
  H83      1.0000 0.45260  0.19050  0.87920  Biso   1.000  H
  H84      1.0000 0.37900  0.23130  0.87310  Biso   1.000  H
  Mo13     1.0000 0.33858  0.23027  0.59552  Biso   1.000  Mo
  Mo14     1.0000 0.25411  0.33360  0.59257  Biso   1.000  Mo
  Mo15     1.0000 0.76377  0.67917  0.59983  Biso   1.000  Mo
  Mo16     1.0000 0.67506  0.78003  0.59992  Biso   1.000  Mo
  S7       1.0000 0.33343  0.30780  0.71406  Biso   1.000  S
  S8       1.0000 0.69062  0.70944  0.72625  Biso   1.000  S
  Na4      1.0000 0.50331  0.00115  0.75850  Biso   1.000  Na
  O79      1.0000 0.28950  0.06750  0.29990  Biso   1.000  O
  H85      1.0000 0.30310  0.03860  0.26220  Biso   1.000  H
  O80      1.0000 0.40700  0.07210  0.33360  Biso   1.000  O
  O81      1.0000 0.50960  0.10570  0.65080  Biso   1.000  O
  O82      1.0000 0.42570  0.18150  0.66430  Biso   1.000  O
  O83      1.0000 0.51250  0.28750  0.42230  Biso   1.000  O
  O84      1.0000 0.43630  0.27640  0.54190  Biso   1.000  O
  O85      1.0000 0.28790  0.27497  0.49710  Biso   1.000  O
  O86      1.0000 0.33230  0.39990  0.52640  Biso   1.000  O
  O87      1.0000 0.36580  0.44980  0.39450  Biso   1.000  O
  O88      1.0000 0.23230  0.42450  0.65800  Biso   1.000  O
  O89      1.0000 0.16710  0.51330  0.64750  Biso   1.000  O
  O90      1.0000 0.07420  0.33390  0.28780  Biso   1.000  O
  H86      1.0000 0.04820  0.35270  0.24770  Biso   1.000  H
  O91      1.0000 0.08430  0.43320  0.34650  Biso   1.000  O
  O92      1.0000 0.93120  0.67180  0.28670  Biso   1.000  O
  H87      1.0000 0.95960  0.65260  0.24970  Biso   1.000  H
  O93      1.0000 0.90270  0.57220  0.33190  Biso   1.000  O
  O94      1.0000 0.85340  0.49980  0.65380  Biso   1.000  O
  O95      1.0000 0.79500  0.59291  0.67030  Biso   1.000  O
  O96      1.0000 0.63410  0.55320  0.43590  Biso   1.000  O
  O97      1.0000 0.68200  0.60778  0.55540  Biso   1.000  O
  O98      1.0000 0.72123  0.73091  0.50200  Biso   1.000  O
  O99      1.0000 0.57660  0.72709  0.55780  Biso   1.000  O
  O100     1.0000 0.50450  0.70010  0.44000  Biso   1.000  O
  O101     1.0000 0.58930  0.82780  0.67080  Biso   1.000  O
  O102     1.0000 0.49770  0.89660  0.65670  Biso   1.000  O
  O103     1.0000 0.69890  0.94070  0.29610  Biso   1.000  O
  H88      1.0000 0.68060  0.96380  0.25360  Biso   1.000  H
  O104     1.0000 0.58290  0.92110  0.32930  Biso   1.000  O
  N13      1.0000 0.81190  0.62090  0.47750  Biso   1.000  N
  N14      1.0000 0.62180  0.83590  0.47760  Biso   1.000  N
  N15      1.0000 0.38170  0.16530  0.47780  Biso   1.000  N
  N16      1.0000 0.19320  0.38720  0.47450  Biso   1.000  N
  C73      1.0000 0.34520  0.08800  0.34870  Biso   1.000  C
  C74      1.0000 0.32080  0.13420  0.42520  Biso   1.000  C
  H89      1.0000 0.29000  0.11040  0.47060  Biso   1.000  H
  H90      1.0000 0.29060  0.16840  0.39620  Biso   1.000  H
  C75      1.0000 0.42680  0.11670  0.52560  Biso   1.000  C
  H91      1.0000 0.39750  0.07710  0.53490  Biso   1.000  H
  H92      1.0000 0.46780  0.10530  0.48350  Biso   1.000  H
  C76      1.0000 0.45680  0.13700  0.61880  Biso   1.000  C
  C77      1.0000 0.42290  0.20650  0.41160  Biso   1.000  C
  H93      1.0000 0.45880  0.17960  0.37760  Biso   1.000  H
  H94      1.0000 0.38930  0.22490  0.36430  Biso   1.000  H
  C78      1.0000 0.46160  0.26040  0.46150  Biso   1.000  C
  C79      1.0000 0.09810  0.37560  0.34840  Biso   1.000  C
  C80      1.0000 0.14340  0.34380  0.42370  Biso   1.000  C
  H95      1.0000 0.17230  0.30900  0.39410  Biso   1.000  H
  H96      1.0000 0.11050  0.32340  0.47010  Biso   1.000  H
  C81      1.0000 0.18710  0.46010  0.61740  Biso   1.000  C
  C82      1.0000 0.15330  0.43880  0.52550  Biso   1.000  C
  H97      1.0000 0.14940  0.47690  0.48350  Biso   1.000  H
  H98      1.0000 0.10350  0.42340  0.53840  Biso   1.000  H
  C83      1.0000 0.32090  0.42180  0.44490  Biso   1.000  C
  C84      1.0000 0.24600  0.41430  0.40620  Biso   1.000  C
  H99      1.0000 0.24800  0.38580  0.35020  Biso   1.000  H
  H100     1.0000 0.22840  0.45710  0.38500  Biso   1.000  H
  C85      1.0000 0.89950  0.62960  0.34170  Biso   1.000  C
  C86      1.0000 0.85940  0.66380  0.42210  Biso   1.000  C
  H101     1.0000 0.82980  0.69910  0.39510  Biso   1.000  H
  H102     1.0000 0.89550  0.68360  0.46490  Biso   1.000  H
  C87      1.0000 0.83140  0.55200  0.62300  Biso   1.000  C
  C88      1.0000 0.85420  0.56860  0.52320  Biso   1.000  C
  H103     1.0000 0.85030  0.52930  0.48390  Biso   1.000  H
  H104     1.0000 0.90590  0.58150  0.52420  Biso   1.000  H
  C89      1.0000 0.68450  0.58300  0.47230  Biso   1.000  C
  C90      1.0000 0.75290  0.59720  0.41750  Biso   1.000  C
  H105     1.0000 0.74210  0.62990  0.36850  Biso   1.000  H
  H106     1.0000 0.76890  0.55730  0.38510  Biso   1.000  H
  C91      1.0000 0.64670  0.91260  0.34510  Biso   1.000  C
  C92      1.0000 0.67750  0.87040  0.42260  Biso   1.000  C
  H107     1.0000 0.70630  0.89770  0.46600  Biso   1.000  H
  H108     1.0000 0.71070  0.83830  0.39400  Biso   1.000  H
  C93      1.0000 0.55070  0.86730  0.62370  Biso   1.000  C
  C94      1.0000 0.56950  0.88120  0.52310  Biso   1.000  C
  H109     1.0000 0.59000  0.92540  0.51960  Biso   1.000  H
  H110     1.0000 0.52420  0.88110  0.48570  Biso   1.000  H
  C95      1.0000 0.55090  0.73450  0.47440  Biso   1.000  C
  C96      1.0000 0.58520  0.78770  0.41720  Biso   1.000  C
  H111     1.0000 0.54740  0.80950  0.37920  Biso   1.000  H
  H112     1.0000 0.62100  0.76870  0.37310  Biso   1.000  H
