data_image0
_cell_length_a       22.915
_cell_length_b       14.2802
_cell_length_c       5.6451
_cell_angle_alpha    90
_cell_angle_beta     102.801
_cell_angle_gamma    90

_symmetry_space_group_name_H-M    "P 1"
_symmetry_int_tables_number       1

loop_
  _symmetry_equiv_pos_as_xyz
  'x, y, z'

loop_
  _atom_site_label
  _atom_site_occupancy
  _atom_site_fract_x
  _atom_site_fract_y
  _atom_site_fract_z
  _atom_site_thermal_displace_type
  _atom_site_B_iso_or_equiv
  _atom_site_type_symbol
  P1       1.0000 0.58433  0.13220  0.27360  Biso   1.000  P
  O1       1.0000 0.55140  0.03810  0.15960  Biso   1.000  O
  O2       1.0000 0.56710  0.19980  0.03280  Biso   1.000  O
  O3       1.0000 0.56130  0.16190  0.50270  Biso   1.000  O
  C1       1.0000 0.66640  0.10300  0.36050  Biso   1.000  C
  C2       1.0000 0.76460  0.15288  0.46820  Biso   1.000  C
  C3       1.0000 0.77830  0.09190  0.70300  Biso   1.000  C
  C4       1.0000 0.69544  0.27800  0.33650  Biso   1.000  C
  C5       1.0000 0.64730  0.35500  0.33700  Biso   1.000  C
  N1       1.0000 0.70145  0.18580  0.47990  Biso   1.000  N
  P2       1.0000 0.08433  0.63220  0.27360  Biso   1.000  P
  O4       1.0000 0.05140  0.53810  0.15960  Biso   1.000  O
  O5       1.0000 0.06710  0.69980  0.03280  Biso   1.000  O
  O6       1.0000 0.06130  0.66190  0.50270  Biso   1.000  O
  C6       1.0000 0.16640  0.60300  0.36050  Biso   1.000  C
  C7       1.0000 0.26460  0.65288  0.46820  Biso   1.000  C
  C8       1.0000 0.27830  0.59190  0.70300  Biso   1.000  C
  C9       1.0000 0.19544  0.77800  0.33650  Biso   1.000  C
  C10      1.0000 0.14730  0.85500  0.33700  Biso   1.000  C
  N2       1.0000 0.20145  0.68580  0.47990  Biso   1.000  N
  P3       1.0000 0.41567  0.13220  0.22640  Biso   1.000  P
  O7       1.0000 0.44860  0.03810  0.34040  Biso   1.000  O
  O8       1.0000 0.43290  0.19980  0.46720  Biso   1.000  O
  O9       1.0000 0.43870  0.16190  0.99730  Biso   1.000  O
  C11      1.0000 0.33360  0.10300  0.13950  Biso   1.000  C
  C12      1.0000 0.23540  0.15288  0.03180  Biso   1.000  C
  C13      1.0000 0.22170  0.09190  0.79700  Biso   1.000  C
  C14      1.0000 0.30456  0.27800  0.16350  Biso   1.000  C
  C15      1.0000 0.35270  0.35500  0.16300  Biso   1.000  C
  N3       1.0000 0.29855  0.18580  0.02010  Biso   1.000  N
  P4       1.0000 0.91567  0.63220  0.22640  Biso   1.000  P
  O10      1.0000 0.94860  0.53810  0.34040  Biso   1.000  O
  O11      1.0000 0.93290  0.69980  0.46720  Biso   1.000  O
  O12      1.0000 0.93870  0.66190  0.99730  Biso   1.000  O
  C16      1.0000 0.83360  0.60300  0.13950  Biso   1.000  C
  C17      1.0000 0.73540  0.65288  0.03180  Biso   1.000  C
  C18      1.0000 0.72170  0.59190  0.79700  Biso   1.000  C
  C19      1.0000 0.80456  0.77800  0.16350  Biso   1.000  C
  C20      1.0000 0.85270  0.85500  0.16300  Biso   1.000  C
  N4       1.0000 0.79855  0.68580  0.02010  Biso   1.000  N
  P5       1.0000 0.41567  0.86780  0.72640  Biso   1.000  P
  O13      1.0000 0.44860  0.96190  0.84040  Biso   1.000  O
  O14      1.0000 0.43290  0.80020  0.96720  Biso   1.000  O
  O15      1.0000 0.43870  0.83810  0.49730  Biso   1.000  O
  C21      1.0000 0.33360  0.89700  0.63950  Biso   1.000  C
  C22      1.0000 0.23540  0.84712  0.53180  Biso   1.000  C
  C23      1.0000 0.22170  0.90810  0.29700  Biso   1.000  C
  C24      1.0000 0.30456  0.72200  0.66350  Biso   1.000  C
  C25      1.0000 0.35270  0.64500  0.66300  Biso   1.000  C
  N5       1.0000 0.29855  0.81420  0.52010  Biso   1.000  N
  P6       1.0000 0.91567  0.36780  0.72640  Biso   1.000  P
  O16      1.0000 0.94860  0.46190  0.84040  Biso   1.000  O
  O17      1.0000 0.93290  0.30020  0.96720  Biso   1.000  O
  O18      1.0000 0.93870  0.33810  0.49730  Biso   1.000  O
  C26      1.0000 0.83360  0.39700  0.63950  Biso   1.000  C
  C27      1.0000 0.73540  0.34712  0.53180  Biso   1.000  C
  C28      1.0000 0.72170  0.40810  0.29700  Biso   1.000  C
  C29      1.0000 0.80456  0.22200  0.66350  Biso   1.000  C
  C30      1.0000 0.85270  0.14500  0.66300  Biso   1.000  C
  N6       1.0000 0.79855  0.31420  0.52010  Biso   1.000  N
  P7       1.0000 0.58433  0.86780  0.77360  Biso   1.000  P
  O19      1.0000 0.55140  0.96190  0.65960  Biso   1.000  O
  O20      1.0000 0.56710  0.80020  0.53280  Biso   1.000  O
  O21      1.0000 0.56130  0.83810  0.00270  Biso   1.000  O
  C31      1.0000 0.66640  0.89700  0.86050  Biso   1.000  C
  C32      1.0000 0.76460  0.84712  0.96820  Biso   1.000  C
  C33      1.0000 0.77830  0.90810  0.20300  Biso   1.000  C
  C34      1.0000 0.69544  0.72200  0.83650  Biso   1.000  C
  C35      1.0000 0.64730  0.64500  0.83700  Biso   1.000  C
  N7       1.0000 0.70145  0.81420  0.97990  Biso   1.000  N
  P8       1.0000 0.08433  0.36780  0.77360  Biso   1.000  P
  O22      1.0000 0.05140  0.46190  0.65960  Biso   1.000  O
  O23      1.0000 0.06710  0.30020  0.53280  Biso   1.000  O
  O24      1.0000 0.06130  0.33810  0.00270  Biso   1.000  O
  C36      1.0000 0.16640  0.39700  0.86050  Biso   1.000  C
  C37      1.0000 0.26460  0.34712  0.96820  Biso   1.000  C
  C38      1.0000 0.27830  0.40810  0.20300  Biso   1.000  C
  C39      1.0000 0.19544  0.22200  0.83650  Biso   1.000  C
  C40      1.0000 0.14730  0.14500  0.83700  Biso   1.000  C
  N8       1.0000 0.20145  0.31420  0.97990  Biso   1.000  N
  Ce1      1.0000 0.50000  0.10305  0.75000  Biso   1.000  Ce
  Ce2      1.0000 0.00000  0.60305  0.75000  Biso   1.000  Ce
  Ce3      1.0000 0.50000  0.89695  0.25000  Biso   1.000  Ce
  Ce4      1.0000 0.00000  0.39695  0.25000  Biso   1.000  Ce
