data_CUMDOE_clean
_audit_creation_date              2014-07-02
_audit_creation_method            'Materials Studio'
_symmetry_space_group_name_H-M    'P1'
_symmetry_Int_Tables_number       1
_symmetry_cell_setting            triclinic
loop_
_symmetry_equiv_pos_as_xyz
  x,y,z
_cell_length_a                    5.7540
_cell_length_b                    14.1259
_cell_length_c                    21.1560
_cell_angle_alpha                 90.0000
_cell_angle_beta                  90.1400
_cell_angle_gamma                 90.0000
loop_
_atom_site_label
_atom_site_type_symbol
_atom_site_fract_x
_atom_site_fract_y
_atom_site_fract_z
_atom_site_U_iso_or_equiv
_atom_site_adp_type
_atom_site_occupancy
Nd1    Nd    0.74999   0.89020   0.98319   0.01267  Uiso   1.00
Nd2    Nd    0.25001   0.39020   0.51681   0.01267  Uiso   1.00
Nd3    Nd    0.25001   0.10980   0.01681   0.01267  Uiso   1.00
Nd4    Nd    0.74999   0.60980   0.48319   0.01267  Uiso   1.00
P1     P     0.75010   0.15660   0.94580   0.01267  Uiso   1.00
P2     P     0.75040   0.44850   0.61250   0.01267  Uiso   1.00
P3     P     0.24990   0.65660   0.55420   0.01267  Uiso   1.00
P4     P     0.24960   0.94850   0.88750   0.01267  Uiso   1.00
P5     P     0.24990   0.84340   0.05420   0.01267  Uiso   1.00
P6     P     0.24960   0.55150   0.38750   0.01267  Uiso   1.00
P7     P     0.75010   0.34340   0.44580   0.01267  Uiso   1.00
P8     P     0.75040   0.05150   0.11250   0.01267  Uiso   1.00
H1     H     0.92310   0.20340   0.74140   0.01267  Uiso   1.00
H2     H     0.67750   0.15070   0.74390   0.01267  Uiso   1.00
H3     H     0.48030   0.29190   0.72480   0.01267  Uiso   1.00
H4     H     0.67480   0.27980   0.67140   0.01267  Uiso   1.00
H5     H     0.85350   0.45640   0.81270   0.01267  Uiso   1.00
H6     H     0.59680   0.41390   0.81880   0.01267  Uiso   1.00
H7     H     0.82410   0.32770   0.88680   0.01267  Uiso   1.00
H8     H     0.02240   0.31360   0.83490   0.01267  Uiso   1.00
H9     H     0.61760   0.10920   0.85090   0.01267  Uiso   1.00
H10    H     0.89320   0.11130   0.85170   0.01267  Uiso   1.00
H11    H     0.61350   0.49580   0.70960   0.01267  Uiso   1.00
H12    H     0.88940   0.49570   0.70960   0.01267  Uiso   1.00
H13    H     0.07690   0.70340   0.75860   0.01267  Uiso   1.00
H14    H     0.32250   0.65070   0.75610   0.01267  Uiso   1.00
H15    H     0.51970   0.79190   0.77520   0.01267  Uiso   1.00
H16    H     0.32520   0.77980   0.82860   0.01267  Uiso   1.00
H17    H     0.14650   0.95640   0.68730   0.01267  Uiso   1.00
H18    H     0.40320   0.91390   0.68120   0.01267  Uiso   1.00
H19    H     0.17590   0.82770   0.61320   0.01267  Uiso   1.00
H20    H     0.97760   0.81360   0.66510   0.01267  Uiso   1.00
H21    H     0.38240   0.60920   0.64910   0.01267  Uiso   1.00
H22    H     0.10680   0.61130   0.64830   0.01267  Uiso   1.00
H23    H     0.38650   0.99580   0.79040   0.01267  Uiso   1.00
H24    H     0.11060   0.99570   0.79040   0.01267  Uiso   1.00
H25    H     0.07690   0.79660   0.25860   0.01267  Uiso   1.00
H26    H     0.32250   0.84930   0.25610   0.01267  Uiso   1.00
H27    H     0.51970   0.70810   0.27520   0.01267  Uiso   1.00
H28    H     0.32520   0.72020   0.32860   0.01267  Uiso   1.00
H29    H     0.14650   0.54360   0.18730   0.01267  Uiso   1.00
H30    H     0.40320   0.58610   0.18120   0.01267  Uiso   1.00
H31    H     0.17590   0.67230   0.11320   0.01267  Uiso   1.00
H32    H     0.97760   0.68640   0.16510   0.01267  Uiso   1.00
H33    H     0.38240   0.89080   0.14910   0.01267  Uiso   1.00
H34    H     0.10680   0.88870   0.14830   0.01267  Uiso   1.00
H35    H     0.38650   0.50420   0.29040   0.01267  Uiso   1.00
H36    H     0.11060   0.50430   0.29040   0.01267  Uiso   1.00
H37    H     0.92310   0.29660   0.24140   0.01267  Uiso   1.00
H38    H     0.67750   0.34930   0.24390   0.01267  Uiso   1.00
H39    H     0.48030   0.20810   0.22480   0.01267  Uiso   1.00
H40    H     0.67480   0.22020   0.17140   0.01267  Uiso   1.00
H41    H     0.85350   0.04360   0.31270   0.01267  Uiso   1.00
H42    H     0.59680   0.08610   0.31880   0.01267  Uiso   1.00
H43    H     0.82410   0.17230   0.38680   0.01267  Uiso   1.00
H44    H     0.02240   0.18640   0.33490   0.01267  Uiso   1.00
H45    H     0.61760   0.39080   0.35090   0.01267  Uiso   1.00
H46    H     0.89320   0.38870   0.35170   0.01267  Uiso   1.00
H47    H     0.61350   0.00420   0.20960   0.01267  Uiso   1.00
H48    H     0.88940   0.00430   0.20960   0.01267  Uiso   1.00
C1     C     0.75900   0.21000   0.75450   0.01267  Uiso   1.00
C2     C     0.65000   0.29070   0.71710   0.01267  Uiso   1.00
C3     C     0.75600   0.40000   0.80410   0.01267  Uiso   1.00
C4     C     0.85200   0.31650   0.84120   0.01267  Uiso   1.00
C5     C     0.75300   0.14850   0.86280   0.01267  Uiso   1.00
C6     C     0.75100   0.45770   0.69790   0.01267  Uiso   1.00
C7     C     0.24100   0.71000   0.74550   0.01267  Uiso   1.00
C8     C     0.35000   0.79070   0.78290   0.01267  Uiso   1.00
C9     C     0.24400   0.90000   0.69590   0.01267  Uiso   1.00
C10    C     0.14800   0.81650   0.65880   0.01267  Uiso   1.00
C11    C     0.24700   0.64850   0.63720   0.01267  Uiso   1.00
C12    C     0.24900   0.95770   0.80210   0.01267  Uiso   1.00
C13    C     0.24100   0.79000   0.24550   0.01267  Uiso   1.00
C14    C     0.35000   0.70930   0.28290   0.01267  Uiso   1.00
C15    C     0.24400   0.60000   0.19590   0.01267  Uiso   1.00
C16    C     0.14800   0.68350   0.15880   0.01267  Uiso   1.00
C17    C     0.24700   0.85150   0.13720   0.01267  Uiso   1.00
C18    C     0.24900   0.54230   0.30210   0.01267  Uiso   1.00
C19    C     0.75900   0.29000   0.25450   0.01267  Uiso   1.00
C20    C     0.65000   0.20930   0.21710   0.01267  Uiso   1.00
C21    C     0.75600   0.10000   0.30410   0.01267  Uiso   1.00
C22    C     0.85200   0.18350   0.34120   0.01267  Uiso   1.00
C23    C     0.75300   0.35150   0.36280   0.01267  Uiso   1.00
C24    C     0.75100   0.04230   0.19790   0.01267  Uiso   1.00
N1     N     0.75100   0.22410   0.82380   0.01267  Uiso   1.00
N2     N     0.75200   0.38220   0.73520   0.01267  Uiso   1.00
N3     N     0.24900   0.72410   0.67620   0.01267  Uiso   1.00
N4     N     0.24800   0.88220   0.76480   0.01267  Uiso   1.00
N5     N     0.24900   0.77590   0.17620   0.01267  Uiso   1.00
N6     N     0.24800   0.61780   0.26480   0.01267  Uiso   1.00
N7     N     0.75100   0.27590   0.32380   0.01267  Uiso   1.00
N8     N     0.75200   0.11780   0.23520   0.01267  Uiso   1.00
O1     O     0.75100   0.05710   0.97050   0.01267  Uiso   1.00
O2     O     0.53100   0.20750   0.96560   0.01267  Uiso   1.00
O3     O     0.96700   0.20910   0.96520   0.01267  Uiso   1.00
O4     O     0.53000   0.39490   0.59720   0.01267  Uiso   1.00
O5     O     0.74900   0.54730   0.58770   0.01267  Uiso   1.00
O6     O     0.96900   0.39450   0.59700   0.01267  Uiso   1.00
O7     O     0.24900   0.55710   0.52950   0.01267  Uiso   1.00
O8     O     0.46900   0.70750   0.53440   0.01267  Uiso   1.00
O9     O     0.03300   0.70910   0.53480   0.01267  Uiso   1.00
O10    O     0.47000   0.89490   0.90280   0.01267  Uiso   1.00
O11    O     0.25100   0.04730   0.91230   0.01267  Uiso   1.00
O12    O     0.03100   0.89450   0.90300   0.01267  Uiso   1.00
O13    O     0.24900   0.94290   0.02950   0.01267  Uiso   1.00
O14    O     0.46900   0.79250   0.03440   0.01267  Uiso   1.00
O15    O     0.03300   0.79090   0.03480   0.01267  Uiso   1.00
O16    O     0.47000   0.60510   0.40280   0.01267  Uiso   1.00
O17    O     0.25100   0.45270   0.41230   0.01267  Uiso   1.00
O18    O     0.03100   0.60550   0.40300   0.01267  Uiso   1.00
O19    O     0.75100   0.44290   0.47050   0.01267  Uiso   1.00
O20    O     0.53100   0.29250   0.46560   0.01267  Uiso   1.00
O21    O     0.96700   0.29090   0.46520   0.01267  Uiso   1.00
O22    O     0.53000   0.10510   0.09720   0.01267  Uiso   1.00
O23    O     0.74900   0.95270   0.08770   0.01267  Uiso   1.00
O24    O     0.96900   0.10550   0.09700   0.01267  Uiso   1.00
