data_image0
_cell_length_a       20.8197
_cell_length_b       20.8197
_cell_length_c       11.5581
_cell_angle_alpha    90
_cell_angle_beta     90
_cell_angle_gamma    120

_symmetry_space_group_name_H-M    "P 1"
_symmetry_int_tables_number       1

loop_
  _symmetry_equiv_pos_as_xyz
  'x, y, z'

loop_
  _atom_site_label
  _atom_site_occupancy
  _atom_site_fract_x
  _atom_site_fract_y
  _atom_site_fract_z
  _atom_site_thermal_displace_type
  _atom_site_B_iso_or_equiv
  _atom_site_type_symbol
  C1       1.0000 0.18890  0.96460  0.10810  Biso   1.000  C
  H1       1.0000 0.22580  0.01010  0.14500  Biso   1.000  H
  H2       1.0000 0.14150  0.96270  0.11300  Biso   1.000  H
  C2       1.0000 0.25370  0.91680  0.22790  Biso   1.000  C
  H3       1.0000 0.24230  0.89180  0.30210  Biso   1.000  H
  H4       1.0000 0.28340  0.96970  0.24220  Biso   1.000  H
  C3       1.0000 0.20910  0.96605  0.98300  Biso   1.000  C
  C4       1.0000 0.29769  0.89246  0.15730  Biso   1.000  C
  Cd1      1.0000 0.46263  0.98378  0.30224  Biso   1.000  Cd
  N1       1.0000 0.18426  0.90099  0.17060  Biso   1.000  N
  H5       1.0000 0.14840  0.88670  0.22570  Biso   1.000  H
  N2       1.0000 0.25481  0.02608  0.92420  Biso   1.000  N
  N3       1.0000 0.25285  0.00393  0.81430  Biso   1.000  N
  N4       1.0000 0.20840  0.93254  0.81020  Biso   1.000  N
  N5       1.0000 0.17908  0.90622  0.91600  Biso   1.000  N
  N6       1.0000 0.26981  0.84697  0.06700  Biso   1.000  N
  N7       1.0000 0.32421  0.83470  0.02990  Biso   1.000  N
  N8       1.0000 0.38271  0.87177  0.09490  Biso   1.000  N
  N9       1.0000 0.36736  0.90907  0.17690  Biso   1.000  N
  C5       1.0000 0.85557  0.29793  0.44143  Biso   1.000  C
  H6       1.0000 0.89247  0.34343  0.47833  Biso   1.000  H
  H7       1.0000 0.80817  0.29603  0.44633  Biso   1.000  H
  C6       1.0000 0.92037  0.25013  0.56123  Biso   1.000  C
  H8       1.0000 0.90897  0.22513  0.63543  Biso   1.000  H
  H9       1.0000 0.95007  0.30303  0.57553  Biso   1.000  H
  C7       1.0000 0.87577  0.29938  0.31633  Biso   1.000  C
  C8       1.0000 0.96436  0.22579  0.49063  Biso   1.000  C
  Cd2      1.0000 0.12929  0.31712  0.63557  Biso   1.000  Cd
  N10      1.0000 0.85093  0.23432  0.50393  Biso   1.000  N
  H10      1.0000 0.81507  0.22003  0.55903  Biso   1.000  H
  N11      1.0000 0.92148  0.35941  0.25753  Biso   1.000  N
  N12      1.0000 0.91952  0.33726  0.14763  Biso   1.000  N
  N13      1.0000 0.87507  0.26587  0.14353  Biso   1.000  N
  N14      1.0000 0.84575  0.23955  0.24933  Biso   1.000  N
  N15      1.0000 0.93648  0.18030  0.40033  Biso   1.000  N
  N16      1.0000 0.99088  0.16803  0.36323  Biso   1.000  N
  N17      1.0000 0.04938  0.20510  0.42823  Biso   1.000  N
  N18      1.0000 0.03403  0.24240  0.51023  Biso   1.000  N
  C9       1.0000 0.52223  0.63127  0.77477  Biso   1.000  C
  H11      1.0000 0.55913  0.67677  0.81167  Biso   1.000  H
  H12      1.0000 0.47483  0.62937  0.77967  Biso   1.000  H
  C10      1.0000 0.58703  0.58347  0.89457  Biso   1.000  C
  H13      1.0000 0.57563  0.55847  0.96877  Biso   1.000  H
  H14      1.0000 0.61673  0.63637  0.90887  Biso   1.000  H
  C11      1.0000 0.54243  0.63272  0.64967  Biso   1.000  C
  C12      1.0000 0.63102  0.55913  0.82397  Biso   1.000  C
  Cd3      1.0000 0.79596  0.65045  0.96891  Biso   1.000  Cd
  N19      1.0000 0.51759  0.56766  0.83727  Biso   1.000  N
  H15      1.0000 0.48173  0.55337  0.89237  Biso   1.000  H
  N20      1.0000 0.58814  0.69275  0.59087  Biso   1.000  N
  N21      1.0000 0.58618  0.67060  0.48097  Biso   1.000  N
  N22      1.0000 0.54173  0.59921  0.47687  Biso   1.000  N
  N23      1.0000 0.51241  0.57289  0.58267  Biso   1.000  N
  N24      1.0000 0.60314  0.51364  0.73367  Biso   1.000  N
  N25      1.0000 0.65754  0.50137  0.69657  Biso   1.000  N
  N26      1.0000 0.71604  0.53844  0.76157  Biso   1.000  N
  N27      1.0000 0.70069  0.57574  0.84357  Biso   1.000  N
  C13      1.0000 0.03540  0.22430  0.10810  Biso   1.000  C
  H16      1.0000 0.98990  0.21570  0.14500  Biso   1.000  H
  H17      1.0000 0.03730  0.17880  0.11300  Biso   1.000  H
  C14      1.0000 0.08320  0.33690  0.22790  Biso   1.000  C
  H18      1.0000 0.10820  0.35050  0.30210  Biso   1.000  H
  H19      1.0000 0.03030  0.31370  0.24220  Biso   1.000  H
  C15      1.0000 0.03395  0.24305  0.98300  Biso   1.000  C
  C16      1.0000 0.10754  0.40523  0.15730  Biso   1.000  C
  Cd4      1.0000 0.01622  0.47884  0.30224  Biso   1.000  Cd
  N28      1.0000 0.09901  0.28327  0.17060  Biso   1.000  N
  H20      1.0000 0.11330  0.26170  0.22570  Biso   1.000  H
  N29      1.0000 0.97392  0.22873  0.92420  Biso   1.000  N
  N30      1.0000 0.99607  0.24892  0.81430  Biso   1.000  N
  N31      1.0000 0.06746  0.27586  0.81020  Biso   1.000  N
  N32      1.0000 0.09378  0.27286  0.91600  Biso   1.000  N
  N33      1.0000 0.15303  0.42284  0.06700  Biso   1.000  N
  N34      1.0000 0.16530  0.48951  0.02990  Biso   1.000  N
  N35      1.0000 0.12823  0.51094  0.09490  Biso   1.000  N
  N36      1.0000 0.09093  0.45829  0.17690  Biso   1.000  N
  C17      1.0000 0.70207  0.55763  0.44143  Biso   1.000  C
  H21      1.0000 0.65657  0.54903  0.47833  Biso   1.000  H
  H22      1.0000 0.70397  0.51213  0.44633  Biso   1.000  H
  C18      1.0000 0.74987  0.67023  0.56123  Biso   1.000  C
  H23      1.0000 0.77487  0.68383  0.63543  Biso   1.000  H
  H24      1.0000 0.69697  0.64703  0.57553  Biso   1.000  H
  C19      1.0000 0.70062  0.57638  0.31633  Biso   1.000  C
  C20      1.0000 0.77421  0.73856  0.49063  Biso   1.000  C
  Cd5      1.0000 0.68288  0.81218  0.63557  Biso   1.000  Cd
  N37      1.0000 0.76568  0.61660  0.50393  Biso   1.000  N
  H25      1.0000 0.77997  0.59503  0.55903  Biso   1.000  H
  N38      1.0000 0.64059  0.56206  0.25753  Biso   1.000  N
  N39      1.0000 0.66274  0.58225  0.14763  Biso   1.000  N
  N40      1.0000 0.73413  0.60919  0.14353  Biso   1.000  N
  N41      1.0000 0.76045  0.60619  0.24933  Biso   1.000  N
  N42      1.0000 0.81970  0.75617  0.40033  Biso   1.000  N
  N43      1.0000 0.83197  0.82284  0.36323  Biso   1.000  N
  N44      1.0000 0.79490  0.84427  0.42823  Biso   1.000  N
  N45      1.0000 0.75760  0.79162  0.51023  Biso   1.000  N
  C21      1.0000 0.36873  0.89097  0.77477  Biso   1.000  C
  H26      1.0000 0.32323  0.88237  0.81167  Biso   1.000  H
  H27      1.0000 0.37063  0.84547  0.77967  Biso   1.000  H
  C22      1.0000 0.41653  0.00357  0.89457  Biso   1.000  C
  H28      1.0000 0.44153  0.01717  0.96877  Biso   1.000  H
  H29      1.0000 0.36363  0.98037  0.90887  Biso   1.000  H
  C23      1.0000 0.36728  0.90972  0.64967  Biso   1.000  C
  C24      1.0000 0.44087  0.07190  0.82397  Biso   1.000  C
  Cd6      1.0000 0.34955  0.14551  0.96891  Biso   1.000  Cd
  N46      1.0000 0.43234  0.94994  0.83727  Biso   1.000  N
  H30      1.0000 0.44663  0.92837  0.89237  Biso   1.000  H
  N47      1.0000 0.30725  0.89540  0.59087  Biso   1.000  N
  N48      1.0000 0.32940  0.91559  0.48097  Biso   1.000  N
  N49      1.0000 0.40079  0.94253  0.47687  Biso   1.000  N
  N50      1.0000 0.42711  0.93953  0.58267  Biso   1.000  N
  N51      1.0000 0.48636  0.08951  0.73367  Biso   1.000  N
  N52      1.0000 0.49863  0.15618  0.69657  Biso   1.000  N
  N53      1.0000 0.46156  0.17761  0.76157  Biso   1.000  N
  N54      1.0000 0.42426  0.12496  0.84357  Biso   1.000  N
  C25      1.0000 0.77570  0.81110  0.10810  Biso   1.000  C
  H31      1.0000 0.78430  0.77420  0.14500  Biso   1.000  H
  H32      1.0000 0.82120  0.85850  0.11300  Biso   1.000  H
  C26      1.0000 0.66310  0.74630  0.22790  Biso   1.000  C
  H33      1.0000 0.64950  0.75770  0.30210  Biso   1.000  H
  H34      1.0000 0.68630  0.71660  0.24220  Biso   1.000  H
  C27      1.0000 0.75695  0.79090  0.98300  Biso   1.000  C
  C28      1.0000 0.59477  0.70231  0.15730  Biso   1.000  C
  Cd7      1.0000 0.52116  0.53737  0.30224  Biso   1.000  Cd
  N55      1.0000 0.71673  0.81574  0.17060  Biso   1.000  N
  H35      1.0000 0.73830  0.85160  0.22570  Biso   1.000  H
  N56      1.0000 0.77127  0.74519  0.92420  Biso   1.000  N
  N57      1.0000 0.75108  0.74715  0.81430  Biso   1.000  N
  N58      1.0000 0.72414  0.79160  0.81020  Biso   1.000  N
  N59      1.0000 0.72714  0.82092  0.91600  Biso   1.000  N
  N60      1.0000 0.57716  0.73019  0.06700  Biso   1.000  N
  N61      1.0000 0.51049  0.67579  0.02990  Biso   1.000  N
  N62      1.0000 0.48906  0.61729  0.09490  Biso   1.000  N
  N63      1.0000 0.54171  0.63264  0.17690  Biso   1.000  N
  C29      1.0000 0.44237  0.14443  0.44143  Biso   1.000  C
  H36      1.0000 0.45097  0.10753  0.47833  Biso   1.000  H
  H37      1.0000 0.48787  0.19183  0.44633  Biso   1.000  H
  C30      1.0000 0.32977  0.07963  0.56123  Biso   1.000  C
  H38      1.0000 0.31617  0.09103  0.63543  Biso   1.000  H
  H39      1.0000 0.35297  0.04993  0.57553  Biso   1.000  H
  C31      1.0000 0.42362  0.12423  0.31633  Biso   1.000  C
  C32      1.0000 0.26144  0.03564  0.49063  Biso   1.000  C
  Cd8      1.0000 0.18782  0.87071  0.63557  Biso   1.000  Cd
  N64      1.0000 0.38340  0.14907  0.50393  Biso   1.000  N
  H40      1.0000 0.40497  0.18493  0.55903  Biso   1.000  H
  N65      1.0000 0.43794  0.07852  0.25753  Biso   1.000  N
  N66      1.0000 0.41775  0.08048  0.14763  Biso   1.000  N
  N67      1.0000 0.39081  0.12493  0.14353  Biso   1.000  N
  N68      1.0000 0.39381  0.15425  0.24933  Biso   1.000  N
  N69      1.0000 0.24383  0.06352  0.40033  Biso   1.000  N
  N70      1.0000 0.17716  0.00912  0.36323  Biso   1.000  N
  N71      1.0000 0.15573  0.95062  0.42823  Biso   1.000  N
  N72      1.0000 0.20838  0.96597  0.51023  Biso   1.000  N
  C33      1.0000 0.10903  0.47777  0.77477  Biso   1.000  C
  H41      1.0000 0.11763  0.44087  0.81167  Biso   1.000  H
  H42      1.0000 0.15453  0.52517  0.77967  Biso   1.000  H
  C34      1.0000 0.99643  0.41297  0.89457  Biso   1.000  C
  H43      1.0000 0.98283  0.42437  0.96877  Biso   1.000  H
  H44      1.0000 0.01963  0.38327  0.90887  Biso   1.000  H
  C35      1.0000 0.09028  0.45757  0.64967  Biso   1.000  C
  C36      1.0000 0.92810  0.36898  0.82397  Biso   1.000  C
  Cd9      1.0000 0.85449  0.20404  0.96891  Biso   1.000  Cd
  N73      1.0000 0.05006  0.48241  0.83727  Biso   1.000  N
  H45      1.0000 0.07163  0.51827  0.89237  Biso   1.000  H
  N74      1.0000 0.10460  0.41186  0.59087  Biso   1.000  N
  N75      1.0000 0.08441  0.41382  0.48097  Biso   1.000  N
  N76      1.0000 0.05747  0.45827  0.47687  Biso   1.000  N
  N77      1.0000 0.06047  0.48759  0.58267  Biso   1.000  N
  N78      1.0000 0.91049  0.39686  0.73367  Biso   1.000  N
  N79      1.0000 0.84382  0.34246  0.69657  Biso   1.000  N
  N80      1.0000 0.82239  0.28396  0.76157  Biso   1.000  N
  N81      1.0000 0.87504  0.29931  0.84357  Biso   1.000  N
  C37      1.0000 0.81110  0.03540  0.89190  Biso   1.000  C
  H46      1.0000 0.77420  0.98990  0.85500  Biso   1.000  H
  H47      1.0000 0.85850  0.03730  0.88700  Biso   1.000  H
  C38      1.0000 0.74630  0.08320  0.77210  Biso   1.000  C
  H48      1.0000 0.75770  0.10820  0.69790  Biso   1.000  H
  H49      1.0000 0.71660  0.03030  0.75780  Biso   1.000  H
  C39      1.0000 0.79090  0.03395  0.01700  Biso   1.000  C
  C40      1.0000 0.70231  0.10754  0.84270  Biso   1.000  C
  Cd10     1.0000 0.53737  0.01622  0.69776  Biso   1.000  Cd
  N82      1.0000 0.81574  0.09901  0.82940  Biso   1.000  N
  H50      1.0000 0.85160  0.11330  0.77430  Biso   1.000  H
  N83      1.0000 0.74519  0.97392  0.07580  Biso   1.000  N
  N84      1.0000 0.74715  0.99607  0.18570  Biso   1.000  N
  N85      1.0000 0.79160  0.06746  0.18980  Biso   1.000  N
  N86      1.0000 0.82092  0.09378  0.08400  Biso   1.000  N
  N87      1.0000 0.73019  0.15303  0.93300  Biso   1.000  N
  N88      1.0000 0.67579  0.16530  0.97010  Biso   1.000  N
  N89      1.0000 0.61729  0.12823  0.90510  Biso   1.000  N
  N90      1.0000 0.63264  0.09093  0.82310  Biso   1.000  N
  C41      1.0000 0.47777  0.36873  0.22523  Biso   1.000  C
  H51      1.0000 0.44087  0.32323  0.18833  Biso   1.000  H
  H52      1.0000 0.52517  0.37063  0.22033  Biso   1.000  H
  C42      1.0000 0.41297  0.41653  0.10543  Biso   1.000  C
  H53      1.0000 0.42437  0.44153  0.03123  Biso   1.000  H
  H54      1.0000 0.38327  0.36363  0.09113  Biso   1.000  H
  C43      1.0000 0.45757  0.36728  0.35033  Biso   1.000  C
  C44      1.0000 0.36898  0.44087  0.17603  Biso   1.000  C
  Cd11     1.0000 0.20404  0.34955  0.03109  Biso   1.000  Cd
  N91      1.0000 0.48241  0.43234  0.16273  Biso   1.000  N
  H55      1.0000 0.51827  0.44663  0.10763  Biso   1.000  H
  N92      1.0000 0.41186  0.30725  0.40913  Biso   1.000  N
  N93      1.0000 0.41382  0.32940  0.51903  Biso   1.000  N
  N94      1.0000 0.45827  0.40079  0.52313  Biso   1.000  N
  N95      1.0000 0.48759  0.42711  0.41733  Biso   1.000  N
  N96      1.0000 0.39686  0.48636  0.26633  Biso   1.000  N
  N97      1.0000 0.34246  0.49863  0.30343  Biso   1.000  N
  N98      1.0000 0.28396  0.46156  0.23843  Biso   1.000  N
  N99      1.0000 0.29931  0.42426  0.15643  Biso   1.000  N
  C45      1.0000 0.14443  0.70207  0.55857  Biso   1.000  C
  H56      1.0000 0.10753  0.65657  0.52167  Biso   1.000  H
  H57      1.0000 0.19183  0.70397  0.55367  Biso   1.000  H
  C46      1.0000 0.07963  0.74987  0.43877  Biso   1.000  C
  H58      1.0000 0.09103  0.77487  0.36457  Biso   1.000  H
  H59      1.0000 0.04993  0.69697  0.42447  Biso   1.000  H
  C47      1.0000 0.12423  0.70062  0.68367  Biso   1.000  C
  C48      1.0000 0.03564  0.77421  0.50937  Biso   1.000  C
  Cd12     1.0000 0.87071  0.68288  0.36443  Biso   1.000  Cd
  N100     1.0000 0.14907  0.76568  0.49607  Biso   1.000  N
  H60      1.0000 0.18493  0.77997  0.44097  Biso   1.000  H
  N101     1.0000 0.07852  0.64059  0.74247  Biso   1.000  N
  N102     1.0000 0.08048  0.66274  0.85237  Biso   1.000  N
  N103     1.0000 0.12493  0.73413  0.85647  Biso   1.000  N
  N104     1.0000 0.15425  0.76045  0.75067  Biso   1.000  N
  N105     1.0000 0.06352  0.81970  0.59967  Biso   1.000  N
  N106     1.0000 0.00912  0.83197  0.63677  Biso   1.000  N
  N107     1.0000 0.95062  0.79490  0.57177  Biso   1.000  N
  N108     1.0000 0.96597  0.75760  0.48977  Biso   1.000  N
  C49      1.0000 0.96460  0.77570  0.89190  Biso   1.000  C
  H61      1.0000 0.01010  0.78430  0.85500  Biso   1.000  H
  H62      1.0000 0.96270  0.82120  0.88700  Biso   1.000  H
  C50      1.0000 0.91680  0.66310  0.77210  Biso   1.000  C
  H63      1.0000 0.89180  0.64950  0.69790  Biso   1.000  H
  H64      1.0000 0.96970  0.68630  0.75780  Biso   1.000  H
  C51      1.0000 0.96605  0.75695  0.01700  Biso   1.000  C
  C52      1.0000 0.89246  0.59477  0.84270  Biso   1.000  C
  Cd13     1.0000 0.98378  0.52116  0.69776  Biso   1.000  Cd
  N109     1.0000 0.90099  0.71673  0.82940  Biso   1.000  N
  H65      1.0000 0.88670  0.73830  0.77430  Biso   1.000  H
  N110     1.0000 0.02608  0.77127  0.07580  Biso   1.000  N
  N111     1.0000 0.00393  0.75108  0.18570  Biso   1.000  N
  N112     1.0000 0.93254  0.72414  0.18980  Biso   1.000  N
  N113     1.0000 0.90622  0.72714  0.08400  Biso   1.000  N
  N114     1.0000 0.84697  0.57716  0.93300  Biso   1.000  N
  N115     1.0000 0.83470  0.51049  0.97010  Biso   1.000  N
  N116     1.0000 0.87177  0.48906  0.90510  Biso   1.000  N
  N117     1.0000 0.90907  0.54171  0.82310  Biso   1.000  N
  C53      1.0000 0.63127  0.10903  0.22523  Biso   1.000  C
  H66      1.0000 0.67677  0.11763  0.18833  Biso   1.000  H
  H67      1.0000 0.62937  0.15453  0.22033  Biso   1.000  H
  C54      1.0000 0.58347  0.99643  0.10543  Biso   1.000  C
  H68      1.0000 0.55847  0.98283  0.03123  Biso   1.000  H
  H69      1.0000 0.63637  0.01963  0.09113  Biso   1.000  H
  C55      1.0000 0.63272  0.09028  0.35033  Biso   1.000  C
  C56      1.0000 0.55913  0.92810  0.17603  Biso   1.000  C
  Cd14     1.0000 0.65045  0.85449  0.03109  Biso   1.000  Cd
  N118     1.0000 0.56766  0.05006  0.16273  Biso   1.000  N
  H70      1.0000 0.55337  0.07163  0.10763  Biso   1.000  H
  N119     1.0000 0.69275  0.10460  0.40913  Biso   1.000  N
  N120     1.0000 0.67060  0.08441  0.51903  Biso   1.000  N
  N121     1.0000 0.59921  0.05747  0.52313  Biso   1.000  N
  N122     1.0000 0.57289  0.06047  0.41733  Biso   1.000  N
  N123     1.0000 0.51364  0.91049  0.26633  Biso   1.000  N
  N124     1.0000 0.50137  0.84382  0.30343  Biso   1.000  N
  N125     1.0000 0.53844  0.82239  0.23843  Biso   1.000  N
  N126     1.0000 0.57574  0.87504  0.15643  Biso   1.000  N
  C57      1.0000 0.29793  0.44237  0.55857  Biso   1.000  C
  H71      1.0000 0.34343  0.45097  0.52167  Biso   1.000  H
  H72      1.0000 0.29603  0.48787  0.55367  Biso   1.000  H
  C58      1.0000 0.25013  0.32977  0.43877  Biso   1.000  C
  H73      1.0000 0.22513  0.31617  0.36457  Biso   1.000  H
  H74      1.0000 0.30303  0.35297  0.42447  Biso   1.000  H
  C59      1.0000 0.29938  0.42362  0.68367  Biso   1.000  C
  C60      1.0000 0.22579  0.26144  0.50937  Biso   1.000  C
  Cd15     1.0000 0.31712  0.18782  0.36443  Biso   1.000  Cd
  N127     1.0000 0.23432  0.38340  0.49607  Biso   1.000  N
  H75      1.0000 0.22003  0.40497  0.44097  Biso   1.000  H
  N128     1.0000 0.35941  0.43794  0.74247  Biso   1.000  N
  N129     1.0000 0.33726  0.41775  0.85237  Biso   1.000  N
  N130     1.0000 0.26587  0.39081  0.85647  Biso   1.000  N
  N131     1.0000 0.23955  0.39381  0.75067  Biso   1.000  N
  N132     1.0000 0.18030  0.24383  0.59967  Biso   1.000  N
  N133     1.0000 0.16803  0.17716  0.63677  Biso   1.000  N
  N134     1.0000 0.20510  0.15573  0.57177  Biso   1.000  N
  N135     1.0000 0.24240  0.20838  0.48977  Biso   1.000  N
  C61      1.0000 0.22430  0.18890  0.89190  Biso   1.000  C
  H76      1.0000 0.21570  0.22580  0.85500  Biso   1.000  H
  H77      1.0000 0.17880  0.14150  0.88700  Biso   1.000  H
  C62      1.0000 0.33690  0.25370  0.77210  Biso   1.000  C
  H78      1.0000 0.35050  0.24230  0.69790  Biso   1.000  H
  H79      1.0000 0.31370  0.28340  0.75780  Biso   1.000  H
  C63      1.0000 0.24305  0.20910  0.01700  Biso   1.000  C
  C64      1.0000 0.40523  0.29769  0.84270  Biso   1.000  C
  Cd16     1.0000 0.47884  0.46263  0.69776  Biso   1.000  Cd
  N136     1.0000 0.28327  0.18426  0.82940  Biso   1.000  N
  H80      1.0000 0.26170  0.14840  0.77430  Biso   1.000  H
  N137     1.0000 0.22873  0.25481  0.07580  Biso   1.000  N
  N138     1.0000 0.24892  0.25285  0.18570  Biso   1.000  N
  N139     1.0000 0.27586  0.20840  0.18980  Biso   1.000  N
  N140     1.0000 0.27286  0.17908  0.08400  Biso   1.000  N
  N141     1.0000 0.42284  0.26981  0.93300  Biso   1.000  N
  N142     1.0000 0.48951  0.32421  0.97010  Biso   1.000  N
  N143     1.0000 0.51094  0.38271  0.90510  Biso   1.000  N
  N144     1.0000 0.45829  0.36736  0.82310  Biso   1.000  N
  C65      1.0000 0.89097  0.52223  0.22523  Biso   1.000  C
  H81      1.0000 0.88237  0.55913  0.18833  Biso   1.000  H
  H82      1.0000 0.84547  0.47483  0.22033  Biso   1.000  H
  C66      1.0000 0.00357  0.58703  0.10543  Biso   1.000  C
  H83      1.0000 0.01717  0.57563  0.03123  Biso   1.000  H
  H84      1.0000 0.98037  0.61673  0.09113  Biso   1.000  H
  C67      1.0000 0.90972  0.54243  0.35033  Biso   1.000  C
  C68      1.0000 0.07190  0.63102  0.17603  Biso   1.000  C
  Cd17     1.0000 0.14551  0.79596  0.03109  Biso   1.000  Cd
  N145     1.0000 0.94994  0.51759  0.16273  Biso   1.000  N
  H85      1.0000 0.92837  0.48173  0.10763  Biso   1.000  H
  N146     1.0000 0.89540  0.58814  0.40913  Biso   1.000  N
  N147     1.0000 0.91559  0.58618  0.51903  Biso   1.000  N
  N148     1.0000 0.94253  0.54173  0.52313  Biso   1.000  N
  N149     1.0000 0.93953  0.51241  0.41733  Biso   1.000  N
  N150     1.0000 0.08951  0.60314  0.26633  Biso   1.000  N
  N151     1.0000 0.15618  0.65754  0.30343  Biso   1.000  N
  N152     1.0000 0.17761  0.71604  0.23843  Biso   1.000  N
  N153     1.0000 0.12496  0.70069  0.15643  Biso   1.000  N
  C69      1.0000 0.55763  0.85557  0.55857  Biso   1.000  C
  H86      1.0000 0.54903  0.89247  0.52167  Biso   1.000  H
  H87      1.0000 0.51213  0.80817  0.55367  Biso   1.000  H
  C70      1.0000 0.67023  0.92037  0.43877  Biso   1.000  C
  H88      1.0000 0.68383  0.90897  0.36457  Biso   1.000  H
  H89      1.0000 0.64703  0.95007  0.42447  Biso   1.000  H
  C71      1.0000 0.57638  0.87577  0.68367  Biso   1.000  C
  C72      1.0000 0.73856  0.96436  0.50937  Biso   1.000  C
  Cd18     1.0000 0.81218  0.12929  0.36443  Biso   1.000  Cd
  N154     1.0000 0.61660  0.85093  0.49607  Biso   1.000  N
  H90      1.0000 0.59503  0.81507  0.44097  Biso   1.000  H
  N155     1.0000 0.56206  0.92148  0.74247  Biso   1.000  N
  N156     1.0000 0.58225  0.91952  0.85237  Biso   1.000  N
  N157     1.0000 0.60919  0.87507  0.85647  Biso   1.000  N
  N158     1.0000 0.60619  0.84575  0.75067  Biso   1.000  N
  N159     1.0000 0.75617  0.93648  0.59967  Biso   1.000  N
  N160     1.0000 0.82284  0.99088  0.63677  Biso   1.000  N
  N161     1.0000 0.84427  0.04938  0.57177  Biso   1.000  N
  N162     1.0000 0.79162  0.03403  0.48977  Biso   1.000  N
