data_image0
_cell_length_a       9.2406
_cell_length_b       9.957
_cell_length_c       13.3017
_cell_angle_alpha    78.394
_cell_angle_beta     73.58
_cell_angle_gamma    81.982

_symmetry_space_group_name_H-M    "P 1"
_symmetry_int_tables_number       1

loop_
  _symmetry_equiv_pos_as_xyz
  'x, y, z'

loop_
  _atom_site_label
  _atom_site_occupancy
  _atom_site_fract_x
  _atom_site_fract_y
  _atom_site_fract_z
  _atom_site_thermal_displace_type
  _atom_site_B_iso_or_equiv
  _atom_site_type_symbol
  N1       1.0000 0.26480  0.04320  0.09029  Biso   1.000  N
  N2       1.0000 0.06420  0.11950  0.20681  Biso   1.000  N
  N3       1.0000 0.57250  0.14840  0.06577  Biso   1.000  N
  N4       1.0000 0.63290  0.34840  0.07925  Biso   1.000  N
  N5       1.0000 0.46050  0.14950  0.86494  Biso   1.000  N
  N6       1.0000 0.47770  0.22230  0.69444  Biso   1.000  N
  C1       1.0000 0.13770  0.98950  0.08460  Biso   1.000  C
  H1       1.0000 0.13690  0.93030  0.03890  Biso   1.000  H
  C2       1.0000 0.01430  0.03660  0.15610  Biso   1.000  C
  H2       1.0000 0.91500  0.01620  0.16820  Biso   1.000  H
  C3       1.0000 0.21500  0.12090  0.16459  Biso   1.000  C
  H3       1.0000 0.27640  0.17060  0.18530  Biso   1.000  H
  C4       1.0000 0.97750  0.17790  0.30100  Biso   1.000  C
  H4       1.0000 0.87170  0.19410  0.30050  Biso   1.000  H
  H5       1.0000 0.01360  0.26590  0.29810  Biso   1.000  H
  C5       1.0000 0.99090  0.08400  0.40340  Biso   1.000  C
  C6       1.0000 0.00170  0.94140  0.41400  Biso   1.000  C
  H6       1.0000 0.00290  0.90120  0.35640  Biso   1.000  H
  C7       1.0000 0.98930  0.14160  0.49030  Biso   1.000  C
  H7       1.0000 0.98210  0.23680  0.48450  Biso   1.000  H
  C8       1.0000 0.58010  0.14530  0.16800  Biso   1.000  C
  H8       1.0000 0.56270  0.06980  0.22250  Biso   1.000  H
  C9       1.0000 0.61660  0.26820  0.17750  Biso   1.000  C
  H9       1.0000 0.62820  0.29310  0.23830  Biso   1.000  H
  C10      1.0000 0.60600  0.27300  0.01480  Biso   1.000  C
  H10      1.0000 0.61040  0.30430  0.94340  Biso   1.000  H
  C11      1.0000 0.67560  0.49080  0.04850  Biso   1.000  C
  H11      1.0000 0.62570  0.54120  0.10600  Biso   1.000  H
  H12      1.0000 0.64070  0.53500  0.98660  Biso   1.000  H
  C12      1.0000 0.84420  0.49690  0.02340  Biso   1.000  C
  C13      1.0000 0.91270  0.49320  0.10430  Biso   1.000  C
  H13      1.0000 0.85450  0.48890  0.17430  Biso   1.000  H
  C14      1.0000 0.93120  0.50390  0.91960  Biso   1.000  C
  H14      1.0000 0.88500  0.50670  0.86540  Biso   1.000  H
  C15      1.0000 0.31870  0.19450  0.85050  Biso   1.000  C
  H15      1.0000 0.22950  0.19460  0.90480  Biso   1.000  H
  C16      1.0000 0.32770  0.23830  0.74630  Biso   1.000  C
  H16      1.0000 0.24800  0.27250  0.71590  Biso   1.000  H
  C17      1.0000 0.55370  0.16960  0.76819  Biso   1.000  C
  H17      1.0000 0.65820  0.14980  0.75320  Biso   1.000  H
  C18      1.0000 0.54160  0.24110  0.57780  Biso   1.000  C
  H18      1.0000 0.64850  0.25420  0.56050  Biso   1.000  H
  H19      1.0000 0.49110  0.32260  0.54440  Biso   1.000  H
  C19      1.0000 0.52150  0.11730  0.53581  Biso   1.000  C
  C20      1.0000 0.40780  0.12010  0.48560  Biso   1.000  C
  H20      1.0000 0.34550  0.20060  0.47520  Biso   1.000  H
  C21      1.0000 0.61340  0.99590  0.54890  Biso   1.000  C
  H21      1.0000 0.69080  0.99250  0.58170  Biso   1.000  H
  N7       1.0000 0.73520  0.95680  0.90971  Biso   1.000  N
  N8       1.0000 0.93580  0.88050  0.79319  Biso   1.000  N
  N9       1.0000 0.42750  0.85160  0.93423  Biso   1.000  N
  N10      1.0000 0.36710  0.65160  0.92075  Biso   1.000  N
  N11      1.0000 0.53950  0.85050  0.13506  Biso   1.000  N
  N12      1.0000 0.52230  0.77770  0.30556  Biso   1.000  N
  C22      1.0000 0.86230  0.01050  0.91540  Biso   1.000  C
  H22      1.0000 0.86310  0.06970  0.96110  Biso   1.000  H
  C23      1.0000 0.98570  0.96340  0.84390  Biso   1.000  C
  H23      1.0000 0.08500  0.98380  0.83180  Biso   1.000  H
  C24      1.0000 0.78500  0.87910  0.83541  Biso   1.000  C
  H24      1.0000 0.72360  0.82940  0.81470  Biso   1.000  H
  C25      1.0000 0.02250  0.82210  0.69900  Biso   1.000  C
  H25      1.0000 0.12830  0.80590  0.69950  Biso   1.000  H
  H26      1.0000 0.98640  0.73410  0.70190  Biso   1.000  H
  C26      1.0000 0.00910  0.91600  0.59660  Biso   1.000  C
  C27      1.0000 0.99830  0.05860  0.58600  Biso   1.000  C
  H27      1.0000 0.99710  0.09880  0.64360  Biso   1.000  H
  C28      1.0000 0.01070  0.85840  0.50970  Biso   1.000  C
  H28      1.0000 0.01790  0.76320  0.51550  Biso   1.000  H
  C29      1.0000 0.41990  0.85470  0.83200  Biso   1.000  C
  H29      1.0000 0.43730  0.93020  0.77750  Biso   1.000  H
  C30      1.0000 0.38340  0.73180  0.82250  Biso   1.000  C
  H30      1.0000 0.37180  0.70690  0.76170  Biso   1.000  H
  C31      1.0000 0.39400  0.72700  0.98520  Biso   1.000  C
  H31      1.0000 0.38960  0.69570  0.05660  Biso   1.000  H
  C32      1.0000 0.32440  0.50920  0.95150  Biso   1.000  C
  H32      1.0000 0.37430  0.45880  0.89400  Biso   1.000  H
  H33      1.0000 0.35930  0.46500  0.01340  Biso   1.000  H
  C33      1.0000 0.15580  0.50310  0.97660  Biso   1.000  C
  C34      1.0000 0.08730  0.50680  0.89570  Biso   1.000  C
  H34      1.0000 0.14550  0.51110  0.82570  Biso   1.000  H
  C35      1.0000 0.06880  0.49610  0.08040  Biso   1.000  C
  H35      1.0000 0.11500  0.49330  0.13460  Biso   1.000  H
  C36      1.0000 0.68130  0.80550  0.14950  Biso   1.000  C
  H36      1.0000 0.77050  0.80540  0.09520  Biso   1.000  H
  C37      1.0000 0.67230  0.76170  0.25370  Biso   1.000  C
  H37      1.0000 0.75200  0.72750  0.28410  Biso   1.000  H
  C38      1.0000 0.44630  0.83040  0.23181  Biso   1.000  C
  H38      1.0000 0.34180  0.85020  0.24680  Biso   1.000  H
  C39      1.0000 0.45840  0.75890  0.42220  Biso   1.000  C
  H39      1.0000 0.35150  0.74580  0.43950  Biso   1.000  H
  H40      1.0000 0.50890  0.67740  0.45560  Biso   1.000  H
  C40      1.0000 0.47850  0.88270  0.46419  Biso   1.000  C
  C41      1.0000 0.59220  0.87990  0.51440  Biso   1.000  C
  H41      1.0000 0.65450  0.79940  0.52480  Biso   1.000  H
  C42      1.0000 0.38660  0.00410  0.45110  Biso   1.000  C
  H42      1.0000 0.30920  0.00750  0.41830  Biso   1.000  H
  Co1      1.0000 0.50000  0.00000  0.00000  Biso   1.000  Co
