data_image0
_cell_length_a       10.2117
_cell_length_b       13.87
_cell_length_c       12.3107
_cell_angle_alpha    90
_cell_angle_beta     90.198
_cell_angle_gamma    90

_symmetry_space_group_name_H-M    "P 1"
_symmetry_int_tables_number       1

loop_
  _symmetry_equiv_pos_as_xyz
  'x, y, z'

loop_
  _atom_site_label
  _atom_site_occupancy
  _atom_site_fract_x
  _atom_site_fract_y
  _atom_site_fract_z
  _atom_site_thermal_displace_type
  _atom_site_B_iso_or_equiv
  _atom_site_type_symbol
  Cd1      1.0000 0.14715  0.43769  0.92096  Biso   1.000  Cd
  C1       1.0000 0.64760  0.29360  0.65540  Biso   1.000  C
  C2       1.0000 0.52810  0.32250  0.69760  Biso   1.000  C
  H1       1.0000 0.45130  0.30010  0.66570  Biso   1.000  H
  C3       1.0000 0.52020  0.38480  0.78750  Biso   1.000  C
  C4       1.0000 0.63810  0.41890  0.83240  Biso   1.000  C
  H2       1.0000 0.63620  0.46020  0.89190  Biso   1.000  H
  C5       1.0000 0.75610  0.39150  0.78890  Biso   1.000  C
  C6       1.0000 0.76090  0.32940  0.70140  Biso   1.000  C
  H3       1.0000 0.84160  0.31140  0.67320  Biso   1.000  H
  C7       1.0000 0.65460  0.22130  0.56510  Biso   1.000  C
  C8       1.0000 0.39110  0.41170  0.83210  Biso   1.000  C
  C9       1.0000 0.88560  0.42440  0.84080  Biso   1.000  C
  O1       1.0000 0.76190  0.19200  0.53410  Biso   1.000  O
  O2       1.0000 0.54990  0.18910  0.52550  Biso   1.000  O
  O3       1.0000 0.29320  0.37410  0.79190  Biso   1.000  O
  O4       1.0000 0.38590  0.47020  0.90800  Biso   1.000  O
  O5       1.0000 0.88220  0.47710  0.92110  Biso   1.000  O
  O6       1.0000 0.99040  0.39460  0.79730  Biso   1.000  O
  Cd2      1.0000 0.35285  0.93769  0.57904  Biso   1.000  Cd
  C10      1.0000 0.85240  0.79360  0.84460  Biso   1.000  C
  C11      1.0000 0.97190  0.82250  0.80240  Biso   1.000  C
  H4       1.0000 0.04870  0.80010  0.83430  Biso   1.000  H
  C12      1.0000 0.97980  0.88480  0.71250  Biso   1.000  C
  C13      1.0000 0.86190  0.91890  0.66760  Biso   1.000  C
  H5       1.0000 0.86380  0.96020  0.60810  Biso   1.000  H
  C14      1.0000 0.74390  0.89150  0.71110  Biso   1.000  C
  C15      1.0000 0.73910  0.82940  0.79860  Biso   1.000  C
  H6       1.0000 0.65840  0.81140  0.82680  Biso   1.000  H
  C16      1.0000 0.84540  0.72130  0.93490  Biso   1.000  C
  C17      1.0000 0.10890  0.91170  0.66790  Biso   1.000  C
  C18      1.0000 0.61440  0.92440  0.65920  Biso   1.000  C
  O7       1.0000 0.73810  0.69200  0.96590  Biso   1.000  O
  O8       1.0000 0.95010  0.68910  0.97450  Biso   1.000  O
  O9       1.0000 0.20680  0.87410  0.70810  Biso   1.000  O
  O10      1.0000 0.11410  0.97020  0.59200  Biso   1.000  O
  O11      1.0000 0.61780  0.97710  0.57890  Biso   1.000  O
  O12      1.0000 0.50960  0.89460  0.70270  Biso   1.000  O
  Cd3      1.0000 0.85285  0.56231  0.07904  Biso   1.000  Cd
  C19      1.0000 0.35240  0.70640  0.34460  Biso   1.000  C
  C20      1.0000 0.47190  0.67750  0.30240  Biso   1.000  C
  H7       1.0000 0.54870  0.69990  0.33430  Biso   1.000  H
  C21      1.0000 0.47980  0.61520  0.21250  Biso   1.000  C
  C22      1.0000 0.36190  0.58110  0.16760  Biso   1.000  C
  H8       1.0000 0.36380  0.53980  0.10810  Biso   1.000  H
  C23      1.0000 0.24390  0.60850  0.21110  Biso   1.000  C
  C24      1.0000 0.23910  0.67060  0.29860  Biso   1.000  C
  H9       1.0000 0.15840  0.68860  0.32680  Biso   1.000  H
  C25      1.0000 0.34540  0.77870  0.43490  Biso   1.000  C
  C26      1.0000 0.60890  0.58830  0.16790  Biso   1.000  C
  C27      1.0000 0.11440  0.57560  0.15920  Biso   1.000  C
  O13      1.0000 0.23810  0.80800  0.46590  Biso   1.000  O
  O14      1.0000 0.45010  0.81090  0.47450  Biso   1.000  O
  O15      1.0000 0.70680  0.62590  0.20810  Biso   1.000  O
  O16      1.0000 0.61410  0.52980  0.09200  Biso   1.000  O
  O17      1.0000 0.11780  0.52290  0.07890  Biso   1.000  O
  O18      1.0000 0.00960  0.60540  0.20270  Biso   1.000  O
  Cd4      1.0000 0.64715  0.06231  0.42096  Biso   1.000  Cd
  C28      1.0000 0.14760  0.20640  0.15540  Biso   1.000  C
  C29      1.0000 0.02810  0.17750  0.19760  Biso   1.000  C
  H10      1.0000 0.95130  0.19990  0.16570  Biso   1.000  H
  C30      1.0000 0.02020  0.11520  0.28750  Biso   1.000  C
  C31      1.0000 0.13810  0.08110  0.33240  Biso   1.000  C
  H11      1.0000 0.13620  0.03980  0.39190  Biso   1.000  H
  C32      1.0000 0.25610  0.10850  0.28890  Biso   1.000  C
  C33      1.0000 0.26090  0.17060  0.20140  Biso   1.000  C
  H12      1.0000 0.34160  0.18860  0.17320  Biso   1.000  H
  C34      1.0000 0.15460  0.27870  0.06510  Biso   1.000  C
  C35      1.0000 0.89110  0.08830  0.33210  Biso   1.000  C
  C36      1.0000 0.38560  0.07560  0.34080  Biso   1.000  C
  O19      1.0000 0.26190  0.30800  0.03410  Biso   1.000  O
  O20      1.0000 0.04990  0.31090  0.02550  Biso   1.000  O
  O21      1.0000 0.79320  0.12590  0.29190  Biso   1.000  O
  O22      1.0000 0.88590  0.02980  0.40800  Biso   1.000  O
  O23      1.0000 0.38220  0.02290  0.42110  Biso   1.000  O
  O24      1.0000 0.49040  0.10540  0.29730  Biso   1.000  O
