data_image0
_cell_length_a       11.491
_cell_length_b       12.094
_cell_length_c       12.62
_cell_angle_alpha    69.61
_cell_angle_beta     64.15
_cell_angle_gamma    72.46

_symmetry_space_group_name_H-M    "P 1"
_symmetry_int_tables_number       1

loop_
  _symmetry_equiv_pos_as_xyz
  'x, y, z'

loop_
  _atom_site_label
  _atom_site_occupancy
  _atom_site_fract_x
  _atom_site_fract_y
  _atom_site_fract_z
  _atom_site_thermal_displace_type
  _atom_site_B_iso_or_equiv
  _atom_site_type_symbol
  S1       1.0000 0.84579  0.75810  0.10334  Biso   1.000  S
  O1       1.0000 0.92680  0.83620  0.09960  Biso   1.000  O
  O2       1.0000 0.92570  0.67130  0.03850  Biso   1.000  O
  O3       1.0000 0.79830  0.68070  0.23530  Biso   1.000  O
  O4       1.0000 0.72880  0.81900  0.08180  Biso   1.000  O
  N1       1.0000 0.81440  0.09910  0.09120  Biso   1.000  N
  N2       1.0000 0.18750  0.40770  0.40840  Biso   1.000  N
  C1       1.0000 0.80200  0.17110  0.15850  Biso   1.000  C
  H1       1.0000 0.88050  0.18070  0.16110  Biso   1.000  H
  C2       1.0000 0.68260  0.23160  0.22280  Biso   1.000  C
  H2       1.0000 0.67930  0.28080  0.26990  Biso   1.000  H
  C3       1.0000 0.56560  0.22110  0.21900  Biso   1.000  C
  C4       1.0000 0.57990  0.14640  0.14810  Biso   1.000  C
  H3       1.0000 0.50380  0.13570  0.14180  Biso   1.000  H
  C5       1.0000 0.70270  0.08950  0.08820  Biso   1.000  C
  H4       1.0000 0.70930  0.03900  0.04080  Biso   1.000  H
  C6       1.0000 0.43510  0.28460  0.28550  Biso   1.000  C
  C7       1.0000 0.41900  0.35070  0.36430  Biso   1.000  C
  H5       1.0000 0.49360  0.35530  0.37720  Biso   1.000  H
  C8       1.0000 0.29580  0.40890  0.42290  Biso   1.000  C
  H6       1.0000 0.71330  0.54740  0.52260  Biso   1.000  H
  C9       1.0000 0.79840  0.65570  0.66720  Biso   1.000  C
  H7       1.0000 0.87510  0.65810  0.67820  Biso   1.000  H
  C10      1.0000 0.67870  0.71710  0.72860  Biso   1.000  C
  H8       1.0000 0.67320  0.76160  0.78110  Biso   1.000  H
  N3       1.0000 0.19070  0.50560  0.99200  Biso   1.000  N
  C11      1.0000 0.30270  0.44660  0.92610  Biso   1.000  C
  H9       1.0000 0.29880  0.40650  0.87440  Biso   1.000  H
  C12      1.0000 0.42400  0.44110  0.92790  Biso   1.000  C
  H10      1.0000 0.50150  0.39520  0.88110  Biso   1.000  H
  C13      1.0000 0.43490  0.50170  0.99820  Biso   1.000  C
  C14      1.0000 0.31940  0.56720  0.06300  Biso   1.000  C
  H11      1.0000 0.32180  0.61210  0.11130  Biso   1.000  H
  C15      1.0000 0.20090  0.56760  0.05750  Biso   1.000  C
  H12      1.0000 0.12230  0.61390  0.10250  Biso   1.000  H
  S2       1.0000 0.15421  0.24190  0.89666  Biso   1.000  S
  O5       1.0000 0.07320  0.16380  0.90040  Biso   1.000  O
  O6       1.0000 0.07430  0.32870  0.96150  Biso   1.000  O
  O7       1.0000 0.20170  0.31930  0.76470  Biso   1.000  O
  O8       1.0000 0.27120  0.18100  0.91820  Biso   1.000  O
  N4       1.0000 0.18560  0.90090  0.90880  Biso   1.000  N
  N5       1.0000 0.81250  0.59230  0.59160  Biso   1.000  N
  C16      1.0000 0.19800  0.82890  0.84150  Biso   1.000  C
  H13      1.0000 0.11950  0.81930  0.83890  Biso   1.000  H
  C17      1.0000 0.31740  0.76840  0.77720  Biso   1.000  C
  H14      1.0000 0.32070  0.71920  0.73010  Biso   1.000  H
  C18      1.0000 0.43440  0.77890  0.78100  Biso   1.000  C
  C19      1.0000 0.42010  0.85360  0.85190  Biso   1.000  C
  H15      1.0000 0.49620  0.86430  0.85820  Biso   1.000  H
  C20      1.0000 0.29730  0.91050  0.91180  Biso   1.000  C
  H16      1.0000 0.29070  0.96100  0.95920  Biso   1.000  H
  C21      1.0000 0.56490  0.71540  0.71450  Biso   1.000  C
  C22      1.0000 0.58100  0.64930  0.63570  Biso   1.000  C
  H17      1.0000 0.50640  0.64470  0.62280  Biso   1.000  H
  C23      1.0000 0.70420  0.59110  0.57710  Biso   1.000  C
  H18      1.0000 0.28670  0.45260  0.47740  Biso   1.000  H
  C24      1.0000 0.20160  0.34430  0.33280  Biso   1.000  C
  H19      1.0000 0.12490  0.34190  0.32180  Biso   1.000  H
  C25      1.0000 0.32130  0.28290  0.27140  Biso   1.000  C
  H20      1.0000 0.32680  0.23840  0.21890  Biso   1.000  H
  N6       1.0000 0.80930  0.49440  0.00800  Biso   1.000  N
  C26      1.0000 0.69730  0.55340  0.07390  Biso   1.000  C
  H21      1.0000 0.70120  0.59350  0.12560  Biso   1.000  H
  C27      1.0000 0.57600  0.55890  0.07210  Biso   1.000  C
  H22      1.0000 0.49850  0.60480  0.11890  Biso   1.000  H
  C28      1.0000 0.56510  0.49830  0.00180  Biso   1.000  C
  C29      1.0000 0.68060  0.43280  0.93700  Biso   1.000  C
  H23      1.0000 0.67820  0.38790  0.88870  Biso   1.000  H
  C30      1.0000 0.79910  0.43240  0.94250  Biso   1.000  C
  H24      1.0000 0.87770  0.38610  0.89750  Biso   1.000  H
  Zn1      1.0000 0.00000  0.00000  0.00000  Biso   1.000  Zn
  Zn2      1.0000 0.00000  0.50000  0.50000  Biso   1.000  Zn
  Zn3      1.0000 0.00000  0.50000  0.00000  Biso   1.000  Zn
