data_image0
_cell_length_a       5.5667
_cell_length_b       15.6297
_cell_length_c       9.5408
_cell_angle_alpha    90
_cell_angle_beta     91.8039
_cell_angle_gamma    90

_symmetry_space_group_name_H-M    "P 1"
_symmetry_int_tables_number       1

loop_
  _symmetry_equiv_pos_as_xyz
  'x, y, z'

loop_
  _atom_site_label
  _atom_site_occupancy
  _atom_site_fract_x
  _atom_site_fract_y
  _atom_site_fract_z
  _atom_site_thermal_displace_type
  _atom_site_B_iso_or_equiv
  _atom_site_type_symbol
  Mn1      1.0000 0.69614  0.66845  0.56126  Biso   1.000  Mn
  P1       1.0000 0.18503  0.69831  0.35375  Biso   1.000  P
  O1       1.0000 0.43620  0.72178  0.40620  Biso   1.000  O
  O2       1.0000 0.98980  0.72222  0.45280  Biso   1.000  O
  O3       1.0000 0.13560  0.73450  0.20780  Biso   1.000  O
  O4       1.0000 0.18280  0.59687  0.33590  Biso   1.000  O
  H1       1.0000 0.05450  0.57780  0.36200  Biso   1.000  H
  O5       1.0000 0.74390  0.55217  0.42870  Biso   1.000  O
  O6       1.0000 0.57610  0.42681  0.37020  Biso   1.000  O
  C1       1.0000 0.59260  0.49375  0.44160  Biso   1.000  C
  Mn2      1.0000 0.80386  0.16845  0.93874  Biso   1.000  Mn
  P2       1.0000 0.31497  0.19831  0.14625  Biso   1.000  P
  O7       1.0000 0.06380  0.22178  0.09380  Biso   1.000  O
  O8       1.0000 0.51020  0.22222  0.04720  Biso   1.000  O
  O9       1.0000 0.36440  0.23450  0.29220  Biso   1.000  O
  O10      1.0000 0.31720  0.09687  0.16410  Biso   1.000  O
  H2       1.0000 0.44550  0.07780  0.13800  Biso   1.000  H
  O11      1.0000 0.75610  0.05217  0.07130  Biso   1.000  O
  O12      1.0000 0.92390  0.92681  0.12980  Biso   1.000  O
  C2       1.0000 0.90740  0.99375  0.05840  Biso   1.000  C
  Mn3      1.0000 0.30386  0.33155  0.43874  Biso   1.000  Mn
  P3       1.0000 0.81497  0.30169  0.64625  Biso   1.000  P
  O13      1.0000 0.56380  0.27822  0.59380  Biso   1.000  O
  O14      1.0000 0.01020  0.27778  0.54720  Biso   1.000  O
  O15      1.0000 0.86440  0.26550  0.79220  Biso   1.000  O
  O16      1.0000 0.81720  0.40313  0.66410  Biso   1.000  O
  H3       1.0000 0.94550  0.42220  0.63800  Biso   1.000  H
  O17      1.0000 0.25610  0.44783  0.57130  Biso   1.000  O
  O18      1.0000 0.42390  0.57319  0.62980  Biso   1.000  O
  C3       1.0000 0.40740  0.50625  0.55840  Biso   1.000  C
  Mn4      1.0000 0.19614  0.83155  0.06126  Biso   1.000  Mn
  P4       1.0000 0.68503  0.80169  0.85375  Biso   1.000  P
  O19      1.0000 0.93620  0.77822  0.90620  Biso   1.000  O
  O20      1.0000 0.48980  0.77778  0.95280  Biso   1.000  O
  O21      1.0000 0.63560  0.76550  0.70780  Biso   1.000  O
  O22      1.0000 0.68280  0.90313  0.83590  Biso   1.000  O
  H4       1.0000 0.55450  0.92220  0.86200  Biso   1.000  H
  O23      1.0000 0.24390  0.94783  0.92870  Biso   1.000  O
  O24      1.0000 0.07610  0.07319  0.87020  Biso   1.000  O
  C4       1.0000 0.09260  0.00625  0.94160  Biso   1.000  C
