data_image0
_cell_length_a       5.6339
_cell_length_b       15.9428
_cell_length_c       9.6183
_cell_angle_alpha    90
_cell_angle_beta     91.1156
_cell_angle_gamma    90

_symmetry_space_group_name_H-M    "P 1"
_symmetry_int_tables_number       1

loop_
  _symmetry_equiv_pos_as_xyz
  'x, y, z'

loop_
  _atom_site_label
  _atom_site_occupancy
  _atom_site_fract_x
  _atom_site_fract_y
  _atom_site_fract_z
  _atom_site_thermal_displace_type
  _atom_site_B_iso_or_equiv
  _atom_site_type_symbol
  Cd1      1.0000 0.29808  0.33175  0.93741  Biso   1.000  Cd
  P1       1.0000 0.30750  0.19603  0.65010  Biso   1.000  P
  O1       1.0000 0.36380  0.22620  0.79730  Biso   1.000  O
  O2       1.0000 0.49210  0.22440  0.54840  Biso   1.000  O
  O3       1.0000 0.05620  0.21960  0.60740  Biso   1.000  O
  O4       1.0000 0.31310  0.09630  0.65790  Biso   1.000  O
  H1       1.0000 0.44800  0.07960  0.64340  Biso   1.000  H
  O5       1.0000 0.57590  0.42880  0.86840  Biso   1.000  O
  O6       1.0000 0.74570  0.54970  0.92800  Biso   1.000  O
  C1       1.0000 0.59240  0.49390  0.94110  Biso   1.000  C
  Cd2      1.0000 0.20192  0.83175  0.56259  Biso   1.000  Cd
  P2       1.0000 0.19250  0.69603  0.84990  Biso   1.000  P
  O7       1.0000 0.13620  0.72620  0.70270  Biso   1.000  O
  O8       1.0000 0.00790  0.72440  0.95160  Biso   1.000  O
  O9       1.0000 0.44380  0.71960  0.89260  Biso   1.000  O
  O10      1.0000 0.18690  0.59630  0.84210  Biso   1.000  O
  H2       1.0000 0.05200  0.57960  0.85660  Biso   1.000  H
  O11      1.0000 0.92410  0.92880  0.63160  Biso   1.000  O
  O12      1.0000 0.75430  0.04970  0.57200  Biso   1.000  O
  C2       1.0000 0.90760  0.99390  0.55890  Biso   1.000  C
  Cd3      1.0000 0.70192  0.66825  0.06259  Biso   1.000  Cd
  P3       1.0000 0.69250  0.80397  0.34990  Biso   1.000  P
  O13      1.0000 0.63620  0.77380  0.20270  Biso   1.000  O
  O14      1.0000 0.50790  0.77560  0.45160  Biso   1.000  O
  O15      1.0000 0.94380  0.78040  0.39260  Biso   1.000  O
  O16      1.0000 0.68690  0.90370  0.34210  Biso   1.000  O
  H3       1.0000 0.55200  0.92040  0.35660  Biso   1.000  H
  O17      1.0000 0.42410  0.57120  0.13160  Biso   1.000  O
  O18      1.0000 0.25430  0.45030  0.07200  Biso   1.000  O
  C3       1.0000 0.40760  0.50610  0.05890  Biso   1.000  C
  Cd4      1.0000 0.79808  0.16825  0.43741  Biso   1.000  Cd
  P4       1.0000 0.80750  0.30397  0.15010  Biso   1.000  P
  O19      1.0000 0.86380  0.27380  0.29730  Biso   1.000  O
  O20      1.0000 0.99210  0.27560  0.04840  Biso   1.000  O
  O21      1.0000 0.55620  0.28040  0.10740  Biso   1.000  O
  O22      1.0000 0.81310  0.40370  0.15790  Biso   1.000  O
  H4       1.0000 0.94800  0.42040  0.14340  Biso   1.000  H
  O23      1.0000 0.07590  0.07120  0.36840  Biso   1.000  O
  O24      1.0000 0.24570  0.95030  0.42800  Biso   1.000  O
  C4       1.0000 0.09240  0.00610  0.44110  Biso   1.000  C
