data_image0
_cell_length_a       10.334
_cell_length_b       15.9714
_cell_length_c       25.3074
_cell_angle_alpha    90
_cell_angle_beta     93.277
_cell_angle_gamma    90

_symmetry_space_group_name_H-M    "P 1"
_symmetry_int_tables_number       1

loop_
  _symmetry_equiv_pos_as_xyz
  'x, y, z'

loop_
  _atom_site_label
  _atom_site_occupancy
  _atom_site_fract_x
  _atom_site_fract_y
  _atom_site_fract_z
  _atom_site_thermal_displace_type
  _atom_site_B_iso_or_equiv
  _atom_site_type_symbol
  Cu1      1.0000 0.76038  0.21429  0.83324  Biso   1.000  Cu
  N1       1.0000 0.06880  0.99030  0.92362  Biso   1.000  N
  N2       1.0000 0.16490  0.07100  0.02472  Biso   1.000  N
  C1       1.0000 0.01010  0.94660  0.88207  Biso   1.000  C
  C2       1.0000 0.08950  0.95510  0.83740  Biso   1.000  C
  H1       1.0000 0.07200  0.93170  0.80320  Biso   1.000  H
  C3       1.0000 0.19370  0.00250  0.85280  Biso   1.000  C
  H2       1.0000 0.26220  0.01830  0.83140  Biso   1.000  H
  C4       1.0000 0.18170  0.02480  0.90766  Biso   1.000  C
  C5       1.0000 0.27060  0.07180  0.93985  Biso   1.000  C
  C6       1.0000 0.26130  0.09380  0.99313  Biso   1.000  C
  C7       1.0000 0.34970  0.14770  0.02420  Biso   1.000  C
  H3       1.0000 0.42630  0.17280  0.01230  Biso   1.000  H
  C8       1.0000 0.30420  0.15590  0.07240  Biso   1.000  C
  H4       1.0000 0.34260  0.18780  0.10090  Biso   1.000  H
  C9       1.0000 0.18650  0.10750  0.07346  Biso   1.000  C
  C10      1.0000 0.89370  0.90100  0.88350  Biso   1.000  C
  C11      1.0000 0.85420  0.85470  0.83376  Biso   1.000  C
  C12      1.0000 0.74010  0.87450  0.80421  Biso   1.000  C
  H5       1.0000 0.68140  0.91460  0.81680  Biso   1.000  H
  C13      1.0000 0.71420  0.83460  0.75630  Biso   1.000  C
  H6       1.0000 0.63770  0.84960  0.73600  Biso   1.000  H
  N3       1.0000 0.79110  0.77580  0.73701  Biso   1.000  N
  C14      1.0000 0.89770  0.75350  0.76760  Biso   1.000  C
  H7       1.0000 0.95110  0.70990  0.75560  Biso   1.000  H
  C15      1.0000 0.93190  0.79130  0.81540  Biso   1.000  C
  H8       1.0000 0.00770  0.77420  0.83550  Biso   1.000  H
  C16      1.0000 0.38740  0.10340  0.91350  Biso   1.000  C
  C17      1.0000 0.51120  0.07310  0.92680  Biso   1.000  C
  H9       1.0000 0.52320  0.02990  0.95240  Biso   1.000  H
  C18      1.0000 0.61680  0.10580  0.90260  Biso   1.000  C
  H10      1.0000 0.70050  0.08420  0.91230  Biso   1.000  H
  N4       1.0000 0.60580  0.16720  0.86601  Biso   1.000  N
  C19      1.0000 0.48620  0.19530  0.85320  Biso   1.000  C
  H11      1.0000 0.47640  0.23810  0.82720  Biso   1.000  H
  C20      1.0000 0.37650  0.16600  0.87540  Biso   1.000  C
  H12      1.0000 0.29400  0.18850  0.86480  Biso   1.000  H
  N5       1.0000 0.89370  0.27700  0.87743  Biso   1.000  N
  C21      1.0000 0.99490  0.23580  0.89910  Biso   1.000  C
  H13      1.0000 0.99690  0.17660  0.89570  Biso   1.000  H
  C22      1.0000 0.09780  0.27530  0.92630  Biso   1.000  C
  H14      1.0000 0.16770  0.24320  0.94160  Biso   1.000  H
  C23      1.0000 0.09840  0.36140  0.93100  Biso   1.000  C
  C24      1.0000 0.99110  0.40460  0.91020  Biso   1.000  C
  H15      1.0000 0.98620  0.46380  0.91360  Biso   1.000  H
  C25      1.0000 0.89080  0.36030  0.88450  Biso   1.000  C
  H16      1.0000 0.81650  0.39030  0.87120  Biso   1.000  H
  C26      1.0000 0.21640  0.40580  0.95380  Biso   1.000  C
  C27      1.0000 0.23770  0.40660  0.00860  Biso   1.000  C
  C28      1.0000 0.15600  0.37050  0.04660  Biso   1.000  C
  H17      1.0000 0.07520  0.34350  0.03890  Biso   1.000  H
  C29      1.0000 0.21480  0.38200  0.09560  Biso   1.000  C
  H18      1.0000 0.18330  0.36350  0.12820  Biso   1.000  H
  C30      1.0000 0.33380  0.42730  0.08910  Biso   1.000  C
  C31      1.0000 0.42440  0.45320  0.12940  Biso   1.000  C
  C32      1.0000 0.54130  0.49730  0.12260  Biso   1.000  C
  C33      1.0000 0.62740  0.53000  0.16400  Biso   1.000  C
  H19      1.0000 0.61670  0.52540  0.20090  Biso   1.000  H
  C34      1.0000 0.72600  0.56830  0.14120  Biso   1.000  C
  H20      1.0000 0.79770  0.59520  0.15920  Biso   1.000  H
  C35      1.0000 0.29610  0.43860  0.91490  Biso   1.000  C
  C36      1.0000 0.40010  0.42860  0.18511  Biso   1.000  C
  C37      1.0000 0.28940  0.45360  0.20970  Biso   1.000  C
  H21      1.0000 0.22670  0.48820  0.19150  Biso   1.000  H
  C38      1.0000 0.27210  0.42760  0.26080  Biso   1.000  C
  H22      1.0000 0.19670  0.44620  0.27710  Biso   1.000  H
  N6       1.0000 0.35410  0.37810  0.28868  Biso   1.000  N
  C39      1.0000 0.46250  0.35570  0.26550  Biso   1.000  C
  H23      1.0000 0.52460  0.32230  0.28500  Biso   1.000  H
  C40      1.0000 0.48770  0.37940  0.21420  Biso   1.000  C
  H24      1.0000 0.56530  0.36170  0.19920  Biso   1.000  H
  N7       1.0000 0.41060  0.48150  0.92477  Biso   1.000  N
  N8       1.0000 0.34430  0.44130  0.03592  Biso   1.000  N
  Cu2      1.0000 0.73962  0.71429  0.66676  Biso   1.000  Cu
  N9       1.0000 0.43120  0.49030  0.57638  Biso   1.000  N
  N10      1.0000 0.33510  0.57100  0.47528  Biso   1.000  N
  C41      1.0000 0.48990  0.44660  0.61793  Biso   1.000  C
  C42      1.0000 0.41050  0.45510  0.66260  Biso   1.000  C
  H25      1.0000 0.42800  0.43170  0.69680  Biso   1.000  H
  C43      1.0000 0.30630  0.50250  0.64720  Biso   1.000  C
  H26      1.0000 0.23780  0.51830  0.66860  Biso   1.000  H
  C44      1.0000 0.31830  0.52480  0.59234  Biso   1.000  C
  C45      1.0000 0.22940  0.57180  0.56015  Biso   1.000  C
  C46      1.0000 0.23870  0.59380  0.50687  Biso   1.000  C
  C47      1.0000 0.15030  0.64770  0.47580  Biso   1.000  C
  H27      1.0000 0.07370  0.67280  0.48770  Biso   1.000  H
  C48      1.0000 0.19580  0.65590  0.42760  Biso   1.000  C
  H28      1.0000 0.15740  0.68780  0.39910  Biso   1.000  H
  C49      1.0000 0.31350  0.60750  0.42654  Biso   1.000  C
  C50      1.0000 0.60630  0.40100  0.61650  Biso   1.000  C
  C51      1.0000 0.64580  0.35470  0.66624  Biso   1.000  C
  C52      1.0000 0.75990  0.37450  0.69579  Biso   1.000  C
  H29      1.0000 0.81860  0.41460  0.68320  Biso   1.000  H
  C53      1.0000 0.78580  0.33460  0.74370  Biso   1.000  C
  H30      1.0000 0.86230  0.34960  0.76400  Biso   1.000  H
  N11      1.0000 0.70890  0.27580  0.76299  Biso   1.000  N
  C54      1.0000 0.60230  0.25350  0.73240  Biso   1.000  C
  H31      1.0000 0.54890  0.20990  0.74440  Biso   1.000  H
  C55      1.0000 0.56810  0.29130  0.68460  Biso   1.000  C
  H32      1.0000 0.49230  0.27420  0.66450  Biso   1.000  H
  C56      1.0000 0.11260  0.60340  0.58650  Biso   1.000  C
  C57      1.0000 0.98880  0.57310  0.57320  Biso   1.000  C
  H33      1.0000 0.97680  0.52990  0.54760  Biso   1.000  H
  C58      1.0000 0.88320  0.60580  0.59740  Biso   1.000  C
  H34      1.0000 0.79950  0.58420  0.58770  Biso   1.000  H
  N12      1.0000 0.89420  0.66720  0.63399  Biso   1.000  N
  C59      1.0000 0.01380  0.69530  0.64680  Biso   1.000  C
  H35      1.0000 0.02360  0.73810  0.67280  Biso   1.000  H
  C60      1.0000 0.12350  0.66600  0.62460  Biso   1.000  C
  H36      1.0000 0.20600  0.68850  0.63520  Biso   1.000  H
  N13      1.0000 0.60630  0.77700  0.62257  Biso   1.000  N
  C61      1.0000 0.50510  0.73580  0.60090  Biso   1.000  C
  H37      1.0000 0.50310  0.67660  0.60430  Biso   1.000  H
  C62      1.0000 0.40220  0.77530  0.57370  Biso   1.000  C
  H38      1.0000 0.33230  0.74320  0.55840  Biso   1.000  H
  C63      1.0000 0.40160  0.86140  0.56900  Biso   1.000  C
  C64      1.0000 0.50890  0.90460  0.58980  Biso   1.000  C
  H39      1.0000 0.51380  0.96380  0.58640  Biso   1.000  H
  C65      1.0000 0.60920  0.86030  0.61550  Biso   1.000  C
  H40      1.0000 0.68350  0.89030  0.62880  Biso   1.000  H
  C66      1.0000 0.28360  0.90580  0.54620  Biso   1.000  C
  C67      1.0000 0.26230  0.90660  0.49140  Biso   1.000  C
  C68      1.0000 0.34400  0.87050  0.45340  Biso   1.000  C
  H41      1.0000 0.42480  0.84350  0.46110  Biso   1.000  H
  C69      1.0000 0.28520  0.88200  0.40440  Biso   1.000  C
  H42      1.0000 0.31670  0.86350  0.37180  Biso   1.000  H
  C70      1.0000 0.16620  0.92730  0.41090  Biso   1.000  C
  C71      1.0000 0.07560  0.95320  0.37060  Biso   1.000  C
  C72      1.0000 0.95870  0.99730  0.37740  Biso   1.000  C
  C73      1.0000 0.87260  0.03000  0.33600  Biso   1.000  C
  H43      1.0000 0.88330  0.02540  0.29910  Biso   1.000  H
  C74      1.0000 0.77400  0.06830  0.35880  Biso   1.000  C
  H44      1.0000 0.70230  0.09520  0.34080  Biso   1.000  H
  C75      1.0000 0.20390  0.93860  0.58510  Biso   1.000  C
  C76      1.0000 0.09990  0.92860  0.31489  Biso   1.000  C
  C77      1.0000 0.21060  0.95360  0.29030  Biso   1.000  C
  H45      1.0000 0.27330  0.98820  0.30850  Biso   1.000  H
  C78      1.0000 0.22790  0.92760  0.23920  Biso   1.000  C
  H46      1.0000 0.30330  0.94620  0.22290  Biso   1.000  H
  N14      1.0000 0.14590  0.87810  0.21132  Biso   1.000  N
  C79      1.0000 0.03750  0.85570  0.23450  Biso   1.000  C
  H47      1.0000 0.97540  0.82230  0.21500  Biso   1.000  H
  C80      1.0000 0.01230  0.87940  0.28580  Biso   1.000  C
  H48      1.0000 0.93470  0.86170  0.30080  Biso   1.000  H
  N15      1.0000 0.08940  0.98150  0.57523  Biso   1.000  N
  N16      1.0000 0.15570  0.94130  0.46408  Biso   1.000  N
  Cu3      1.0000 0.23962  0.78571  0.16676  Biso   1.000  Cu
  N17      1.0000 0.93120  0.00970  0.07638  Biso   1.000  N
  N18      1.0000 0.83510  0.92900  0.97528  Biso   1.000  N
  C81      1.0000 0.98990  0.05340  0.11793  Biso   1.000  C
  C82      1.0000 0.91050  0.04490  0.16260  Biso   1.000  C
  H49      1.0000 0.92800  0.06830  0.19680  Biso   1.000  H
  C83      1.0000 0.80630  0.99750  0.14720  Biso   1.000  C
  H50      1.0000 0.73780  0.98170  0.16860  Biso   1.000  H
  C84      1.0000 0.81830  0.97520  0.09234  Biso   1.000  C
  C85      1.0000 0.72940  0.92820  0.06015  Biso   1.000  C
  C86      1.0000 0.73870  0.90620  0.00687  Biso   1.000  C
  C87      1.0000 0.65030  0.85230  0.97580  Biso   1.000  C
  H51      1.0000 0.57370  0.82720  0.98770  Biso   1.000  H
  C88      1.0000 0.69580  0.84410  0.92760  Biso   1.000  C
  H52      1.0000 0.65740  0.81220  0.89910  Biso   1.000  H
  C89      1.0000 0.81350  0.89250  0.92654  Biso   1.000  C
  C90      1.0000 0.10630  0.09900  0.11650  Biso   1.000  C
  C91      1.0000 0.14580  0.14530  0.16624  Biso   1.000  C
  C92      1.0000 0.25990  0.12550  0.19579  Biso   1.000  C
  H53      1.0000 0.31860  0.08540  0.18320  Biso   1.000  H
  C93      1.0000 0.28580  0.16540  0.24370  Biso   1.000  C
  H54      1.0000 0.36230  0.15040  0.26400  Biso   1.000  H
  N19      1.0000 0.20890  0.22420  0.26299  Biso   1.000  N
  C94      1.0000 0.10230  0.24650  0.23240  Biso   1.000  C
  H55      1.0000 0.04890  0.29010  0.24440  Biso   1.000  H
  C95      1.0000 0.06810  0.20870  0.18460  Biso   1.000  C
  H56      1.0000 0.99230  0.22580  0.16450  Biso   1.000  H
  C96      1.0000 0.61260  0.89660  0.08650  Biso   1.000  C
  C97      1.0000 0.48880  0.92690  0.07320  Biso   1.000  C
  H57      1.0000 0.47680  0.97010  0.04760  Biso   1.000  H
  C98      1.0000 0.38320  0.89420  0.09740  Biso   1.000  C
  H58      1.0000 0.29950  0.91580  0.08770  Biso   1.000  H
  N20      1.0000 0.39420  0.83280  0.13399  Biso   1.000  N
  C99      1.0000 0.51380  0.80470  0.14680  Biso   1.000  C
  H59      1.0000 0.52360  0.76190  0.17280  Biso   1.000  H
  C100     1.0000 0.62350  0.83400  0.12460  Biso   1.000  C
  H60      1.0000 0.70600  0.81150  0.13520  Biso   1.000  H
  N21      1.0000 0.10630  0.72300  0.12257  Biso   1.000  N
  C101     1.0000 0.00510  0.76420  0.10090  Biso   1.000  C
  H61      1.0000 0.00310  0.82340  0.10430  Biso   1.000  H
  C102     1.0000 0.90220  0.72470  0.07370  Biso   1.000  C
  H62      1.0000 0.83230  0.75680  0.05840  Biso   1.000  H
  C103     1.0000 0.90160  0.63860  0.06900  Biso   1.000  C
  C104     1.0000 0.00890  0.59540  0.08980  Biso   1.000  C
  H63      1.0000 0.01380  0.53620  0.08640  Biso   1.000  H
  C105     1.0000 0.10920  0.63970  0.11550  Biso   1.000  C
  H64      1.0000 0.18350  0.60970  0.12880  Biso   1.000  H
  C106     1.0000 0.78360  0.59420  0.04620  Biso   1.000  C
  C107     1.0000 0.76230  0.59340  0.99140  Biso   1.000  C
  C108     1.0000 0.84400  0.62950  0.95340  Biso   1.000  C
  H65      1.0000 0.92480  0.65650  0.96110  Biso   1.000  H
  C109     1.0000 0.78520  0.61800  0.90440  Biso   1.000  C
  H66      1.0000 0.81670  0.63650  0.87180  Biso   1.000  H
  C110     1.0000 0.66620  0.57270  0.91090  Biso   1.000  C
  C111     1.0000 0.57560  0.54680  0.87060  Biso   1.000  C
  C112     1.0000 0.45870  0.50270  0.87740  Biso   1.000  C
  C113     1.0000 0.37260  0.47000  0.83600  Biso   1.000  C
  H67      1.0000 0.38330  0.47460  0.79910  Biso   1.000  H
  C114     1.0000 0.27400  0.43170  0.85880  Biso   1.000  C
  H68      1.0000 0.20230  0.40480  0.84080  Biso   1.000  H
  C115     1.0000 0.70390  0.56140  0.08510  Biso   1.000  C
  C116     1.0000 0.59990  0.57140  0.81489  Biso   1.000  C
  C117     1.0000 0.71060  0.54640  0.79030  Biso   1.000  C
  H69      1.0000 0.77330  0.51180  0.80850  Biso   1.000  H
  C118     1.0000 0.72790  0.57240  0.73920  Biso   1.000  C
  H70      1.0000 0.80330  0.55380  0.72290  Biso   1.000  H
  N22      1.0000 0.64590  0.62190  0.71132  Biso   1.000  N
  C119     1.0000 0.53750  0.64430  0.73450  Biso   1.000  C
  H71      1.0000 0.47540  0.67770  0.71500  Biso   1.000  H
  C120     1.0000 0.51230  0.62060  0.78580  Biso   1.000  C
  H72      1.0000 0.43470  0.63830  0.80080  Biso   1.000  H
  N23      1.0000 0.58940  0.51850  0.07523  Biso   1.000  N
  N24      1.0000 0.65570  0.55870  0.96408  Biso   1.000  N
  Cu4      1.0000 0.26038  0.28571  0.33324  Biso   1.000  Cu
  N25      1.0000 0.56880  0.50970  0.42362  Biso   1.000  N
  N26      1.0000 0.66490  0.42900  0.52472  Biso   1.000  N
  C121     1.0000 0.51010  0.55340  0.38207  Biso   1.000  C
  C122     1.0000 0.58950  0.54490  0.33740  Biso   1.000  C
  H73      1.0000 0.57200  0.56830  0.30320  Biso   1.000  H
  C123     1.0000 0.69370  0.49750  0.35280  Biso   1.000  C
  H74      1.0000 0.76220  0.48170  0.33140  Biso   1.000  H
  C124     1.0000 0.68170  0.47520  0.40766  Biso   1.000  C
  C125     1.0000 0.77060  0.42820  0.43985  Biso   1.000  C
  C126     1.0000 0.76130  0.40620  0.49313  Biso   1.000  C
  C127     1.0000 0.84970  0.35230  0.52420  Biso   1.000  C
  H75      1.0000 0.92630  0.32720  0.51230  Biso   1.000  H
  C128     1.0000 0.80420  0.34410  0.57240  Biso   1.000  C
  H76      1.0000 0.84260  0.31220  0.60090  Biso   1.000  H
  C129     1.0000 0.68650  0.39250  0.57346  Biso   1.000  C
  C130     1.0000 0.39370  0.59900  0.38350  Biso   1.000  C
  C131     1.0000 0.35420  0.64530  0.33376  Biso   1.000  C
  C132     1.0000 0.24010  0.62550  0.30421  Biso   1.000  C
  H77      1.0000 0.18140  0.58540  0.31680  Biso   1.000  H
  C133     1.0000 0.21420  0.66540  0.25630  Biso   1.000  C
  H78      1.0000 0.13770  0.65040  0.23600  Biso   1.000  H
  N27      1.0000 0.29110  0.72420  0.23701  Biso   1.000  N
  C134     1.0000 0.39770  0.74650  0.26760  Biso   1.000  C
  H79      1.0000 0.45110  0.79010  0.25560  Biso   1.000  H
  C135     1.0000 0.43190  0.70870  0.31540  Biso   1.000  C
  H80      1.0000 0.50770  0.72580  0.33550  Biso   1.000  H
  C136     1.0000 0.88740  0.39660  0.41350  Biso   1.000  C
  C137     1.0000 0.01120  0.42690  0.42680  Biso   1.000  C
  H81      1.0000 0.02320  0.47010  0.45240  Biso   1.000  H
  C138     1.0000 0.11680  0.39420  0.40260  Biso   1.000  C
  H82      1.0000 0.20050  0.41580  0.41230  Biso   1.000  H
  N28      1.0000 0.10580  0.33280  0.36601  Biso   1.000  N
  C139     1.0000 0.98620  0.30470  0.35320  Biso   1.000  C
  H83      1.0000 0.97640  0.26190  0.32720  Biso   1.000  H
  C140     1.0000 0.87650  0.33400  0.37540  Biso   1.000  C
  H84      1.0000 0.79400  0.31150  0.36480  Biso   1.000  H
  N29      1.0000 0.39370  0.22300  0.37743  Biso   1.000  N
  C141     1.0000 0.49490  0.26420  0.39910  Biso   1.000  C
  H85      1.0000 0.49690  0.32340  0.39570  Biso   1.000  H
  C142     1.0000 0.59780  0.22470  0.42630  Biso   1.000  C
  H86      1.0000 0.66770  0.25680  0.44160  Biso   1.000  H
  C143     1.0000 0.59840  0.13860  0.43100  Biso   1.000  C
  C144     1.0000 0.49110  0.09540  0.41020  Biso   1.000  C
  H87      1.0000 0.48620  0.03620  0.41360  Biso   1.000  H
  C145     1.0000 0.39080  0.13970  0.38450  Biso   1.000  C
  H88      1.0000 0.31650  0.10970  0.37120  Biso   1.000  H
  C146     1.0000 0.71640  0.09420  0.45380  Biso   1.000  C
  C147     1.0000 0.73770  0.09340  0.50860  Biso   1.000  C
  C148     1.0000 0.65600  0.12950  0.54660  Biso   1.000  C
  H89      1.0000 0.57520  0.15650  0.53890  Biso   1.000  H
  C149     1.0000 0.71480  0.11800  0.59560  Biso   1.000  C
  H90      1.0000 0.68330  0.13650  0.62820  Biso   1.000  H
  C150     1.0000 0.83380  0.07270  0.58910  Biso   1.000  C
  C151     1.0000 0.92440  0.04680  0.62940  Biso   1.000  C
  C152     1.0000 0.04130  0.00270  0.62260  Biso   1.000  C
  C153     1.0000 0.12740  0.97000  0.66400  Biso   1.000  C
  H91      1.0000 0.11670  0.97460  0.70090  Biso   1.000  H
  C154     1.0000 0.22600  0.93170  0.64120  Biso   1.000  C
  H92      1.0000 0.29770  0.90480  0.65920  Biso   1.000  H
  C155     1.0000 0.79610  0.06140  0.41490  Biso   1.000  C
  C156     1.0000 0.90010  0.07140  0.68511  Biso   1.000  C
  C157     1.0000 0.78940  0.04640  0.70970  Biso   1.000  C
  H93      1.0000 0.72670  0.01180  0.69150  Biso   1.000  H
  C158     1.0000 0.77210  0.07240  0.76080  Biso   1.000  C
  H94      1.0000 0.69670  0.05380  0.77710  Biso   1.000  H
  N30      1.0000 0.85410  0.12190  0.78868  Biso   1.000  N
  C159     1.0000 0.96250  0.14430  0.76550  Biso   1.000  C
  H95      1.0000 0.02460  0.17770  0.78500  Biso   1.000  H
  C160     1.0000 0.98770  0.12060  0.71420  Biso   1.000  C
  H96      1.0000 0.06530  0.13830  0.69920  Biso   1.000  H
  N31      1.0000 0.91060  0.01850  0.42477  Biso   1.000  N
  N32      1.0000 0.84430  0.05870  0.53592  Biso   1.000  N
  Sn1      1.0000 0.00000  0.00000  0.00000  Biso   1.000  Sn
  Sn2      1.0000 0.50000  0.50000  0.50000  Biso   1.000  Sn
  Sn3      1.0000 0.50000  0.50000  0.00000  Biso   1.000  Sn
  Sn4      1.0000 0.00000  0.00000  0.50000  Biso   1.000  Sn
