data_image0
_cell_length_a       11.0389
_cell_length_b       22.784
_cell_length_c       31.28
_cell_angle_alpha    90
_cell_angle_beta     90
_cell_angle_gamma    90

_symmetry_space_group_name_H-M    "P 1"
_symmetry_int_tables_number       1

loop_
  _symmetry_equiv_pos_as_xyz
  'x, y, z'

loop_
  _atom_site_label
  _atom_site_occupancy
  _atom_site_fract_x
  _atom_site_fract_y
  _atom_site_fract_z
  _atom_site_thermal_displace_type
  _atom_site_B_iso_or_equiv
  _atom_site_type_symbol
  H1       1.0000 0.80560  0.98600  0.97860  Biso   1.000  H
  O1       1.0000 0.16880  0.83340  0.87966  Biso   1.000  O
  O2       1.0000 0.02050  0.94600  0.85781  Biso   1.000  O
  O3       1.0000 0.98240  0.93267  0.93962  Biso   1.000  O
  O4       1.0000 0.14420  0.86350  0.99330  Biso   1.000  O
  C1       1.0000 0.07690  0.84490  0.84910  Biso   1.000  C
  H2       1.0000 0.11320  0.86190  0.82330  Biso   1.000  H
  C2       1.0000 0.98880  0.88840  0.86853  Biso   1.000  C
  H3       1.0000 0.90500  0.87950  0.86050  Biso   1.000  H
  C3       1.0000 0.00920  0.88080  0.91614  Biso   1.000  C
  H4       1.0000 0.96090  0.84790  0.92690  Biso   1.000  H
  C4       1.0000 0.14550  0.86550  0.91780  Biso   1.000  C
  H5       1.0000 0.19350  0.90170  0.91790  Biso   1.000  H
  C5       1.0000 0.17730  0.82920  0.95600  Biso   1.000  C
  H6       1.0000 0.13310  0.79250  0.95560  Biso   1.000  H
  H7       1.0000 0.26340  0.82060  0.95630  Biso   1.000  H
  N1       1.0000 0.01810  0.78710  0.83833  Biso   1.000  N
  C6       1.0000 0.93370  0.78680  0.80645  Biso   1.000  C
  O5       1.0000 0.90720  0.83429  0.78731  Biso   1.000  O
  N2       1.0000 0.87610  0.73710  0.79655  Biso   1.000  N
  C7       1.0000 0.90440  0.68650  0.81690  Biso   1.000  C
  N3       1.0000 0.84320  0.63900  0.80750  Biso   1.000  N
  H8       1.0000 0.78630  0.64040  0.78880  Biso   1.000  H
  H9       1.0000 0.85990  0.60640  0.82010  Biso   1.000  H
  C8       1.0000 0.99720  0.68520  0.84630  Biso   1.000  C
  H10      1.0000 0.01970  0.65010  0.85930  Biso   1.000  H
  C9       1.0000 0.05640  0.73700  0.85620  Biso   1.000  C
  H11      1.0000 0.12180  0.73700  0.87500  Biso   1.000  H
  H12      1.0000 0.80560  0.48600  0.47860  Biso   1.000  H
  O6       1.0000 0.16880  0.33340  0.37966  Biso   1.000  O
  O7       1.0000 0.02050  0.44600  0.35781  Biso   1.000  O
  O8       1.0000 0.98240  0.43267  0.43962  Biso   1.000  O
  O9       1.0000 0.14420  0.36350  0.49330  Biso   1.000  O
  C10      1.0000 0.07690  0.34490  0.34910  Biso   1.000  C
  H13      1.0000 0.11320  0.36190  0.32330  Biso   1.000  H
  C11      1.0000 0.98880  0.38840  0.36853  Biso   1.000  C
  H14      1.0000 0.90500  0.37950  0.36050  Biso   1.000  H
  C12      1.0000 0.00920  0.38080  0.41614  Biso   1.000  C
  H15      1.0000 0.96090  0.34790  0.42690  Biso   1.000  H
  C13      1.0000 0.14550  0.36550  0.41780  Biso   1.000  C
  H16      1.0000 0.19350  0.40170  0.41790  Biso   1.000  H
  C14      1.0000 0.17730  0.32920  0.45600  Biso   1.000  C
  H17      1.0000 0.13310  0.29250  0.45560  Biso   1.000  H
  H18      1.0000 0.26340  0.32060  0.45630  Biso   1.000  H
  N4       1.0000 0.01810  0.28710  0.33833  Biso   1.000  N
  C15      1.0000 0.93370  0.28680  0.30645  Biso   1.000  C
  O10      1.0000 0.90720  0.33429  0.28731  Biso   1.000  O
  N5       1.0000 0.87610  0.23710  0.29655  Biso   1.000  N
  C16      1.0000 0.90440  0.18650  0.31690  Biso   1.000  C
  N6       1.0000 0.84320  0.13900  0.30750  Biso   1.000  N
  H19      1.0000 0.78630  0.14040  0.28880  Biso   1.000  H
  H20      1.0000 0.85990  0.10640  0.32010  Biso   1.000  H
  C17      1.0000 0.99720  0.18520  0.34630  Biso   1.000  C
  H21      1.0000 0.01970  0.15010  0.35930  Biso   1.000  H
  C18      1.0000 0.05640  0.23700  0.35620  Biso   1.000  C
  H22      1.0000 0.12180  0.23700  0.37500  Biso   1.000  H
  H23      1.0000 0.30560  0.98600  0.47860  Biso   1.000  H
  O11      1.0000 0.66880  0.83340  0.37966  Biso   1.000  O
  O12      1.0000 0.52050  0.94600  0.35781  Biso   1.000  O
  O13      1.0000 0.48240  0.93267  0.43962  Biso   1.000  O
  O14      1.0000 0.64420  0.86350  0.49330  Biso   1.000  O
  C19      1.0000 0.57690  0.84490  0.34910  Biso   1.000  C
  H24      1.0000 0.61320  0.86190  0.32330  Biso   1.000  H
  C20      1.0000 0.48880  0.88840  0.36853  Biso   1.000  C
  H25      1.0000 0.40500  0.87950  0.36050  Biso   1.000  H
  C21      1.0000 0.50920  0.88080  0.41614  Biso   1.000  C
  H26      1.0000 0.46090  0.84790  0.42690  Biso   1.000  H
  C22      1.0000 0.64550  0.86550  0.41780  Biso   1.000  C
  H27      1.0000 0.69350  0.90170  0.41790  Biso   1.000  H
  C23      1.0000 0.67730  0.82920  0.45600  Biso   1.000  C
  H28      1.0000 0.63310  0.79250  0.45560  Biso   1.000  H
  H29      1.0000 0.76340  0.82060  0.45630  Biso   1.000  H
  N7       1.0000 0.51810  0.78710  0.33833  Biso   1.000  N
  C24      1.0000 0.43370  0.78680  0.30645  Biso   1.000  C
  O15      1.0000 0.40720  0.83429  0.28731  Biso   1.000  O
  N8       1.0000 0.37610  0.73710  0.29655  Biso   1.000  N
  C25      1.0000 0.40440  0.68650  0.31690  Biso   1.000  C
  N9       1.0000 0.34320  0.63900  0.30750  Biso   1.000  N
  H30      1.0000 0.28630  0.64040  0.28880  Biso   1.000  H
  H31      1.0000 0.35990  0.60640  0.32010  Biso   1.000  H
  C26      1.0000 0.49720  0.68520  0.34630  Biso   1.000  C
  H32      1.0000 0.51970  0.65010  0.35930  Biso   1.000  H
  C27      1.0000 0.55640  0.73700  0.35620  Biso   1.000  C
  H33      1.0000 0.62180  0.73700  0.37500  Biso   1.000  H
  H34      1.0000 0.30560  0.48600  0.97860  Biso   1.000  H
  O16      1.0000 0.66880  0.33340  0.87966  Biso   1.000  O
  O17      1.0000 0.52050  0.44600  0.85781  Biso   1.000  O
  O18      1.0000 0.48240  0.43267  0.93962  Biso   1.000  O
  O19      1.0000 0.64420  0.36350  0.99330  Biso   1.000  O
  C28      1.0000 0.57690  0.34490  0.84910  Biso   1.000  C
  H35      1.0000 0.61320  0.36190  0.82330  Biso   1.000  H
  C29      1.0000 0.48880  0.38840  0.86853  Biso   1.000  C
  H36      1.0000 0.40500  0.37950  0.86050  Biso   1.000  H
  C30      1.0000 0.50920  0.38080  0.91614  Biso   1.000  C
  H37      1.0000 0.46090  0.34790  0.92690  Biso   1.000  H
  C31      1.0000 0.64550  0.36550  0.91780  Biso   1.000  C
  H38      1.0000 0.69350  0.40170  0.91790  Biso   1.000  H
  C32      1.0000 0.67730  0.32920  0.95600  Biso   1.000  C
  H39      1.0000 0.63310  0.29250  0.95560  Biso   1.000  H
  H40      1.0000 0.76340  0.32060  0.95630  Biso   1.000  H
  N10      1.0000 0.51810  0.28710  0.83833  Biso   1.000  N
  C33      1.0000 0.43370  0.28680  0.80645  Biso   1.000  C
  O20      1.0000 0.40720  0.33429  0.78731  Biso   1.000  O
  N11      1.0000 0.37610  0.23710  0.79655  Biso   1.000  N
  C34      1.0000 0.40440  0.18650  0.81690  Biso   1.000  C
  N12      1.0000 0.34320  0.13900  0.80750  Biso   1.000  N
  H41      1.0000 0.28630  0.14040  0.78880  Biso   1.000  H
  H42      1.0000 0.35990  0.10640  0.82010  Biso   1.000  H
  C35      1.0000 0.49720  0.18520  0.84630  Biso   1.000  C
  H43      1.0000 0.51970  0.15010  0.85930  Biso   1.000  H
  C36      1.0000 0.55640  0.23700  0.85620  Biso   1.000  C
  H44      1.0000 0.62180  0.23700  0.87500  Biso   1.000  H
  H45      1.0000 0.19440  0.01400  0.97860  Biso   1.000  H
  O21      1.0000 0.83120  0.16660  0.87966  Biso   1.000  O
  O22      1.0000 0.97950  0.05400  0.85781  Biso   1.000  O
  O23      1.0000 0.01760  0.06733  0.93962  Biso   1.000  O
  O24      1.0000 0.85580  0.13650  0.99330  Biso   1.000  O
  C37      1.0000 0.92310  0.15510  0.84910  Biso   1.000  C
  H46      1.0000 0.88680  0.13810  0.82330  Biso   1.000  H
  C38      1.0000 0.01120  0.11160  0.86853  Biso   1.000  C
  H47      1.0000 0.09500  0.12050  0.86050  Biso   1.000  H
  C39      1.0000 0.99080  0.11920  0.91614  Biso   1.000  C
  H48      1.0000 0.03910  0.15210  0.92690  Biso   1.000  H
  C40      1.0000 0.85450  0.13450  0.91780  Biso   1.000  C
  H49      1.0000 0.80650  0.09830  0.91790  Biso   1.000  H
  C41      1.0000 0.82270  0.17080  0.95600  Biso   1.000  C
  H50      1.0000 0.86690  0.20750  0.95560  Biso   1.000  H
  H51      1.0000 0.73660  0.17940  0.95630  Biso   1.000  H
  N13      1.0000 0.98190  0.21290  0.83833  Biso   1.000  N
  C42      1.0000 0.06630  0.21320  0.80645  Biso   1.000  C
  O25      1.0000 0.09280  0.16571  0.78731  Biso   1.000  O
  N14      1.0000 0.12390  0.26290  0.79655  Biso   1.000  N
  C43      1.0000 0.09560  0.31350  0.81690  Biso   1.000  C
  N15      1.0000 0.15680  0.36100  0.80750  Biso   1.000  N
  H52      1.0000 0.21370  0.35960  0.78880  Biso   1.000  H
  H53      1.0000 0.14010  0.39360  0.82010  Biso   1.000  H
  C44      1.0000 0.00280  0.31480  0.84630  Biso   1.000  C
  H54      1.0000 0.98030  0.34990  0.85930  Biso   1.000  H
  C45      1.0000 0.94360  0.26300  0.85620  Biso   1.000  C
  H55      1.0000 0.87820  0.26300  0.87500  Biso   1.000  H
  H56      1.0000 0.19440  0.51400  0.47860  Biso   1.000  H
  O26      1.0000 0.83120  0.66660  0.37966  Biso   1.000  O
  O27      1.0000 0.97950  0.55400  0.35781  Biso   1.000  O
  O28      1.0000 0.01760  0.56733  0.43962  Biso   1.000  O
  O29      1.0000 0.85580  0.63650  0.49330  Biso   1.000  O
  C46      1.0000 0.92310  0.65510  0.34910  Biso   1.000  C
  H57      1.0000 0.88680  0.63810  0.32330  Biso   1.000  H
  C47      1.0000 0.01120  0.61160  0.36853  Biso   1.000  C
  H58      1.0000 0.09500  0.62050  0.36050  Biso   1.000  H
  C48      1.0000 0.99080  0.61920  0.41614  Biso   1.000  C
  H59      1.0000 0.03910  0.65210  0.42690  Biso   1.000  H
  C49      1.0000 0.85450  0.63450  0.41780  Biso   1.000  C
  H60      1.0000 0.80650  0.59830  0.41790  Biso   1.000  H
  C50      1.0000 0.82270  0.67080  0.45600  Biso   1.000  C
  H61      1.0000 0.86690  0.70750  0.45560  Biso   1.000  H
  H62      1.0000 0.73660  0.67940  0.45630  Biso   1.000  H
  N16      1.0000 0.98190  0.71290  0.33833  Biso   1.000  N
  C51      1.0000 0.06630  0.71320  0.30645  Biso   1.000  C
  O30      1.0000 0.09280  0.66571  0.28731  Biso   1.000  O
  N17      1.0000 0.12390  0.76290  0.29655  Biso   1.000  N
  C52      1.0000 0.09560  0.81350  0.31690  Biso   1.000  C
  N18      1.0000 0.15680  0.86100  0.30750  Biso   1.000  N
  H63      1.0000 0.21370  0.85960  0.28880  Biso   1.000  H
  H64      1.0000 0.14010  0.89360  0.32010  Biso   1.000  H
  C53      1.0000 0.00280  0.81480  0.34630  Biso   1.000  C
  H65      1.0000 0.98030  0.84990  0.35930  Biso   1.000  H
  C54      1.0000 0.94360  0.76300  0.35620  Biso   1.000  C
  H66      1.0000 0.87820  0.76300  0.37500  Biso   1.000  H
  H67      1.0000 0.69440  0.01400  0.47860  Biso   1.000  H
  O31      1.0000 0.33120  0.16660  0.37966  Biso   1.000  O
  O32      1.0000 0.47950  0.05400  0.35781  Biso   1.000  O
  O33      1.0000 0.51760  0.06733  0.43962  Biso   1.000  O
  O34      1.0000 0.35580  0.13650  0.49330  Biso   1.000  O
  C55      1.0000 0.42310  0.15510  0.34910  Biso   1.000  C
  H68      1.0000 0.38680  0.13810  0.32330  Biso   1.000  H
  C56      1.0000 0.51120  0.11160  0.36853  Biso   1.000  C
  H69      1.0000 0.59500  0.12050  0.36050  Biso   1.000  H
  C57      1.0000 0.49080  0.11920  0.41614  Biso   1.000  C
  H70      1.0000 0.53910  0.15210  0.42690  Biso   1.000  H
  C58      1.0000 0.35450  0.13450  0.41780  Biso   1.000  C
  H71      1.0000 0.30650  0.09830  0.41790  Biso   1.000  H
  C59      1.0000 0.32270  0.17080  0.45600  Biso   1.000  C
  H72      1.0000 0.36690  0.20750  0.45560  Biso   1.000  H
  H73      1.0000 0.23660  0.17940  0.45630  Biso   1.000  H
  N19      1.0000 0.48190  0.21290  0.33833  Biso   1.000  N
  C60      1.0000 0.56630  0.21320  0.30645  Biso   1.000  C
  O35      1.0000 0.59280  0.16571  0.28731  Biso   1.000  O
  N20      1.0000 0.62390  0.26290  0.29655  Biso   1.000  N
  C61      1.0000 0.59560  0.31350  0.31690  Biso   1.000  C
  N21      1.0000 0.65680  0.36100  0.30750  Biso   1.000  N
  H74      1.0000 0.71370  0.35960  0.28880  Biso   1.000  H
  H75      1.0000 0.64010  0.39360  0.32010  Biso   1.000  H
  C62      1.0000 0.50280  0.31480  0.34630  Biso   1.000  C
  H76      1.0000 0.48030  0.34990  0.35930  Biso   1.000  H
  C63      1.0000 0.44360  0.26300  0.35620  Biso   1.000  C
  H77      1.0000 0.37820  0.26300  0.37500  Biso   1.000  H
  H78      1.0000 0.69440  0.51400  0.97860  Biso   1.000  H
  O36      1.0000 0.33120  0.66660  0.87966  Biso   1.000  O
  O37      1.0000 0.47950  0.55400  0.85781  Biso   1.000  O
  O38      1.0000 0.51760  0.56733  0.93962  Biso   1.000  O
  O39      1.0000 0.35580  0.63650  0.99330  Biso   1.000  O
  C64      1.0000 0.42310  0.65510  0.84910  Biso   1.000  C
  H79      1.0000 0.38680  0.63810  0.82330  Biso   1.000  H
  C65      1.0000 0.51120  0.61160  0.86853  Biso   1.000  C
  H80      1.0000 0.59500  0.62050  0.86050  Biso   1.000  H
  C66      1.0000 0.49080  0.61920  0.91614  Biso   1.000  C
  H81      1.0000 0.53910  0.65210  0.92690  Biso   1.000  H
  C67      1.0000 0.35450  0.63450  0.91780  Biso   1.000  C
  H82      1.0000 0.30650  0.59830  0.91790  Biso   1.000  H
  C68      1.0000 0.32270  0.67080  0.95600  Biso   1.000  C
  H83      1.0000 0.36690  0.70750  0.95560  Biso   1.000  H
  H84      1.0000 0.23660  0.67940  0.95630  Biso   1.000  H
  N22      1.0000 0.48190  0.71290  0.83833  Biso   1.000  N
  C69      1.0000 0.56630  0.71320  0.80645  Biso   1.000  C
  O40      1.0000 0.59280  0.66571  0.78731  Biso   1.000  O
  N23      1.0000 0.62390  0.76290  0.79655  Biso   1.000  N
  C70      1.0000 0.59560  0.81350  0.81690  Biso   1.000  C
  N24      1.0000 0.65680  0.86100  0.80750  Biso   1.000  N
  H85      1.0000 0.71370  0.85960  0.78880  Biso   1.000  H
  H86      1.0000 0.64010  0.89360  0.82010  Biso   1.000  H
  C71      1.0000 0.50280  0.81480  0.84630  Biso   1.000  C
  H87      1.0000 0.48030  0.84990  0.85930  Biso   1.000  H
  C72      1.0000 0.44360  0.76300  0.85620  Biso   1.000  C
  H88      1.0000 0.37820  0.76300  0.87500  Biso   1.000  H
  H89      1.0000 0.19440  0.98600  0.02140  Biso   1.000  H
  O41      1.0000 0.83120  0.83340  0.12034  Biso   1.000  O
  O42      1.0000 0.97950  0.94600  0.14219  Biso   1.000  O
  O43      1.0000 0.01760  0.93267  0.06038  Biso   1.000  O
  O44      1.0000 0.85580  0.86350  0.00670  Biso   1.000  O
  C73      1.0000 0.92310  0.84490  0.15090  Biso   1.000  C
  H90      1.0000 0.88680  0.86190  0.17670  Biso   1.000  H
  C74      1.0000 0.01120  0.88840  0.13147  Biso   1.000  C
  H91      1.0000 0.09500  0.87950  0.13950  Biso   1.000  H
  C75      1.0000 0.99080  0.88080  0.08386  Biso   1.000  C
  H92      1.0000 0.03910  0.84790  0.07310  Biso   1.000  H
  C76      1.0000 0.85450  0.86550  0.08220  Biso   1.000  C
  H93      1.0000 0.80650  0.90170  0.08210  Biso   1.000  H
  C77      1.0000 0.82270  0.82920  0.04400  Biso   1.000  C
  H94      1.0000 0.86690  0.79250  0.04440  Biso   1.000  H
  H95      1.0000 0.73660  0.82060  0.04370  Biso   1.000  H
  N25      1.0000 0.98190  0.78710  0.16167  Biso   1.000  N
  C78      1.0000 0.06630  0.78680  0.19355  Biso   1.000  C
  O45      1.0000 0.09280  0.83429  0.21269  Biso   1.000  O
  N26      1.0000 0.12390  0.73710  0.20345  Biso   1.000  N
  C79      1.0000 0.09560  0.68650  0.18310  Biso   1.000  C
  N27      1.0000 0.15680  0.63900  0.19250  Biso   1.000  N
  H96      1.0000 0.21370  0.64040  0.21120  Biso   1.000  H
  H97      1.0000 0.14010  0.60640  0.17990  Biso   1.000  H
  C80      1.0000 0.00280  0.68520  0.15370  Biso   1.000  C
  H98      1.0000 0.98030  0.65010  0.14070  Biso   1.000  H
  C81      1.0000 0.94360  0.73700  0.14380  Biso   1.000  C
  H99      1.0000 0.87820  0.73700  0.12500  Biso   1.000  H
  H100     1.0000 0.19440  0.48600  0.52140  Biso   1.000  H
  O46      1.0000 0.83120  0.33340  0.62034  Biso   1.000  O
  O47      1.0000 0.97950  0.44600  0.64219  Biso   1.000  O
  O48      1.0000 0.01760  0.43267  0.56038  Biso   1.000  O
  O49      1.0000 0.85580  0.36350  0.50670  Biso   1.000  O
  C82      1.0000 0.92310  0.34490  0.65090  Biso   1.000  C
  H101     1.0000 0.88680  0.36190  0.67670  Biso   1.000  H
  C83      1.0000 0.01120  0.38840  0.63147  Biso   1.000  C
  H102     1.0000 0.09500  0.37950  0.63950  Biso   1.000  H
  C84      1.0000 0.99080  0.38080  0.58386  Biso   1.000  C
  H103     1.0000 0.03910  0.34790  0.57310  Biso   1.000  H
  C85      1.0000 0.85450  0.36550  0.58220  Biso   1.000  C
  H104     1.0000 0.80650  0.40170  0.58210  Biso   1.000  H
  C86      1.0000 0.82270  0.32920  0.54400  Biso   1.000  C
  H105     1.0000 0.86690  0.29250  0.54440  Biso   1.000  H
  H106     1.0000 0.73660  0.32060  0.54370  Biso   1.000  H
  N28      1.0000 0.98190  0.28710  0.66167  Biso   1.000  N
  C87      1.0000 0.06630  0.28680  0.69355  Biso   1.000  C
  O50      1.0000 0.09280  0.33429  0.71269  Biso   1.000  O
  N29      1.0000 0.12390  0.23710  0.70345  Biso   1.000  N
  C88      1.0000 0.09560  0.18650  0.68310  Biso   1.000  C
  N30      1.0000 0.15680  0.13900  0.69250  Biso   1.000  N
  H107     1.0000 0.21370  0.14040  0.71120  Biso   1.000  H
  H108     1.0000 0.14010  0.10640  0.67990  Biso   1.000  H
  C89      1.0000 0.00280  0.18520  0.65370  Biso   1.000  C
  H109     1.0000 0.98030  0.15010  0.64070  Biso   1.000  H
  C90      1.0000 0.94360  0.23700  0.64380  Biso   1.000  C
  H110     1.0000 0.87820  0.23700  0.62500  Biso   1.000  H
  H111     1.0000 0.69440  0.98600  0.52140  Biso   1.000  H
  O51      1.0000 0.33120  0.83340  0.62034  Biso   1.000  O
  O52      1.0000 0.47950  0.94600  0.64219  Biso   1.000  O
  O53      1.0000 0.51760  0.93267  0.56038  Biso   1.000  O
  O54      1.0000 0.35580  0.86350  0.50670  Biso   1.000  O
  C91      1.0000 0.42310  0.84490  0.65090  Biso   1.000  C
  H112     1.0000 0.38680  0.86190  0.67670  Biso   1.000  H
  C92      1.0000 0.51120  0.88840  0.63147  Biso   1.000  C
  H113     1.0000 0.59500  0.87950  0.63950  Biso   1.000  H
  C93      1.0000 0.49080  0.88080  0.58386  Biso   1.000  C
  H114     1.0000 0.53910  0.84790  0.57310  Biso   1.000  H
  C94      1.0000 0.35450  0.86550  0.58220  Biso   1.000  C
  H115     1.0000 0.30650  0.90170  0.58210  Biso   1.000  H
  C95      1.0000 0.32270  0.82920  0.54400  Biso   1.000  C
  H116     1.0000 0.36690  0.79250  0.54440  Biso   1.000  H
  H117     1.0000 0.23660  0.82060  0.54370  Biso   1.000  H
  N31      1.0000 0.48190  0.78710  0.66167  Biso   1.000  N
  C96      1.0000 0.56630  0.78680  0.69355  Biso   1.000  C
  O55      1.0000 0.59280  0.83429  0.71269  Biso   1.000  O
  N32      1.0000 0.62390  0.73710  0.70345  Biso   1.000  N
  C97      1.0000 0.59560  0.68650  0.68310  Biso   1.000  C
  N33      1.0000 0.65680  0.63900  0.69250  Biso   1.000  N
  H118     1.0000 0.71370  0.64040  0.71120  Biso   1.000  H
  H119     1.0000 0.64010  0.60640  0.67990  Biso   1.000  H
  C98      1.0000 0.50280  0.68520  0.65370  Biso   1.000  C
  H120     1.0000 0.48030  0.65010  0.64070  Biso   1.000  H
  C99      1.0000 0.44360  0.73700  0.64380  Biso   1.000  C
  H121     1.0000 0.37820  0.73700  0.62500  Biso   1.000  H
  H122     1.0000 0.69440  0.48600  0.02140  Biso   1.000  H
  O56      1.0000 0.33120  0.33340  0.12034  Biso   1.000  O
  O57      1.0000 0.47950  0.44600  0.14219  Biso   1.000  O
  O58      1.0000 0.51760  0.43267  0.06038  Biso   1.000  O
  O59      1.0000 0.35580  0.36350  0.00670  Biso   1.000  O
  C100     1.0000 0.42310  0.34490  0.15090  Biso   1.000  C
  H123     1.0000 0.38680  0.36190  0.17670  Biso   1.000  H
  C101     1.0000 0.51120  0.38840  0.13147  Biso   1.000  C
  H124     1.0000 0.59500  0.37950  0.13950  Biso   1.000  H
  C102     1.0000 0.49080  0.38080  0.08386  Biso   1.000  C
  H125     1.0000 0.53910  0.34790  0.07310  Biso   1.000  H
  C103     1.0000 0.35450  0.36550  0.08220  Biso   1.000  C
  H126     1.0000 0.30650  0.40170  0.08210  Biso   1.000  H
  C104     1.0000 0.32270  0.32920  0.04400  Biso   1.000  C
  H127     1.0000 0.36690  0.29250  0.04440  Biso   1.000  H
  H128     1.0000 0.23660  0.32060  0.04370  Biso   1.000  H
  N34      1.0000 0.48190  0.28710  0.16167  Biso   1.000  N
  C105     1.0000 0.56630  0.28680  0.19355  Biso   1.000  C
  O60      1.0000 0.59280  0.33429  0.21269  Biso   1.000  O
  N35      1.0000 0.62390  0.23710  0.20345  Biso   1.000  N
  C106     1.0000 0.59560  0.18650  0.18310  Biso   1.000  C
  N36      1.0000 0.65680  0.13900  0.19250  Biso   1.000  N
  H129     1.0000 0.71370  0.14040  0.21120  Biso   1.000  H
  H130     1.0000 0.64010  0.10640  0.17990  Biso   1.000  H
  C107     1.0000 0.50280  0.18520  0.15370  Biso   1.000  C
  H131     1.0000 0.48030  0.15010  0.14070  Biso   1.000  H
  C108     1.0000 0.44360  0.23700  0.14380  Biso   1.000  C
  H132     1.0000 0.37820  0.23700  0.12500  Biso   1.000  H
  H133     1.0000 0.80560  0.01400  0.02140  Biso   1.000  H
  O61      1.0000 0.16880  0.16660  0.12034  Biso   1.000  O
  O62      1.0000 0.02050  0.05400  0.14219  Biso   1.000  O
  O63      1.0000 0.98240  0.06733  0.06038  Biso   1.000  O
  O64      1.0000 0.14420  0.13650  0.00670  Biso   1.000  O
  C109     1.0000 0.07690  0.15510  0.15090  Biso   1.000  C
  H134     1.0000 0.11320  0.13810  0.17670  Biso   1.000  H
  C110     1.0000 0.98880  0.11160  0.13147  Biso   1.000  C
  H135     1.0000 0.90500  0.12050  0.13950  Biso   1.000  H
  C111     1.0000 0.00920  0.11920  0.08386  Biso   1.000  C
  H136     1.0000 0.96090  0.15210  0.07310  Biso   1.000  H
  C112     1.0000 0.14550  0.13450  0.08220  Biso   1.000  C
  H137     1.0000 0.19350  0.09830  0.08210  Biso   1.000  H
  C113     1.0000 0.17730  0.17080  0.04400  Biso   1.000  C
  H138     1.0000 0.13310  0.20750  0.04440  Biso   1.000  H
  H139     1.0000 0.26340  0.17940  0.04370  Biso   1.000  H
  N37      1.0000 0.01810  0.21290  0.16167  Biso   1.000  N
  C114     1.0000 0.93370  0.21320  0.19355  Biso   1.000  C
  O65      1.0000 0.90720  0.16571  0.21269  Biso   1.000  O
  N38      1.0000 0.87610  0.26290  0.20345  Biso   1.000  N
  C115     1.0000 0.90440  0.31350  0.18310  Biso   1.000  C
  N39      1.0000 0.84320  0.36100  0.19250  Biso   1.000  N
  H140     1.0000 0.78630  0.35960  0.21120  Biso   1.000  H
  H141     1.0000 0.85990  0.39360  0.17990  Biso   1.000  H
  C116     1.0000 0.99720  0.31480  0.15370  Biso   1.000  C
  H142     1.0000 0.01970  0.34990  0.14070  Biso   1.000  H
  C117     1.0000 0.05640  0.26300  0.14380  Biso   1.000  C
  H143     1.0000 0.12180  0.26300  0.12500  Biso   1.000  H
  H144     1.0000 0.80560  0.51400  0.52140  Biso   1.000  H
  O66      1.0000 0.16880  0.66660  0.62034  Biso   1.000  O
  O67      1.0000 0.02050  0.55400  0.64219  Biso   1.000  O
  O68      1.0000 0.98240  0.56733  0.56038  Biso   1.000  O
  O69      1.0000 0.14420  0.63650  0.50670  Biso   1.000  O
  C118     1.0000 0.07690  0.65510  0.65090  Biso   1.000  C
  H145     1.0000 0.11320  0.63810  0.67670  Biso   1.000  H
  C119     1.0000 0.98880  0.61160  0.63147  Biso   1.000  C
  H146     1.0000 0.90500  0.62050  0.63950  Biso   1.000  H
  C120     1.0000 0.00920  0.61920  0.58386  Biso   1.000  C
  H147     1.0000 0.96090  0.65210  0.57310  Biso   1.000  H
  C121     1.0000 0.14550  0.63450  0.58220  Biso   1.000  C
  H148     1.0000 0.19350  0.59830  0.58210  Biso   1.000  H
  C122     1.0000 0.17730  0.67080  0.54400  Biso   1.000  C
  H149     1.0000 0.13310  0.70750  0.54440  Biso   1.000  H
  H150     1.0000 0.26340  0.67940  0.54370  Biso   1.000  H
  N40      1.0000 0.01810  0.71290  0.66167  Biso   1.000  N
  C123     1.0000 0.93370  0.71320  0.69355  Biso   1.000  C
  O70      1.0000 0.90720  0.66571  0.71269  Biso   1.000  O
  N41      1.0000 0.87610  0.76290  0.70345  Biso   1.000  N
  C124     1.0000 0.90440  0.81350  0.68310  Biso   1.000  C
  N42      1.0000 0.84320  0.86100  0.69250  Biso   1.000  N
  H151     1.0000 0.78630  0.85960  0.71120  Biso   1.000  H
  H152     1.0000 0.85990  0.89360  0.67990  Biso   1.000  H
  C125     1.0000 0.99720  0.81480  0.65370  Biso   1.000  C
  H153     1.0000 0.01970  0.84990  0.64070  Biso   1.000  H
  C126     1.0000 0.05640  0.76300  0.64380  Biso   1.000  C
  H154     1.0000 0.12180  0.76300  0.62500  Biso   1.000  H
  H155     1.0000 0.30560  0.01400  0.52140  Biso   1.000  H
  O71      1.0000 0.66880  0.16660  0.62034  Biso   1.000  O
  O72      1.0000 0.52050  0.05400  0.64219  Biso   1.000  O
  O73      1.0000 0.48240  0.06733  0.56038  Biso   1.000  O
  O74      1.0000 0.64420  0.13650  0.50670  Biso   1.000  O
  C127     1.0000 0.57690  0.15510  0.65090  Biso   1.000  C
  H156     1.0000 0.61320  0.13810  0.67670  Biso   1.000  H
  C128     1.0000 0.48880  0.11160  0.63147  Biso   1.000  C
  H157     1.0000 0.40500  0.12050  0.63950  Biso   1.000  H
  C129     1.0000 0.50920  0.11920  0.58386  Biso   1.000  C
  H158     1.0000 0.46090  0.15210  0.57310  Biso   1.000  H
  C130     1.0000 0.64550  0.13450  0.58220  Biso   1.000  C
  H159     1.0000 0.69350  0.09830  0.58210  Biso   1.000  H
  C131     1.0000 0.67730  0.17080  0.54400  Biso   1.000  C
  H160     1.0000 0.63310  0.20750  0.54440  Biso   1.000  H
  H161     1.0000 0.76340  0.17940  0.54370  Biso   1.000  H
  N43      1.0000 0.51810  0.21290  0.66167  Biso   1.000  N
  C132     1.0000 0.43370  0.21320  0.69355  Biso   1.000  C
  O75      1.0000 0.40720  0.16571  0.71269  Biso   1.000  O
  N44      1.0000 0.37610  0.26290  0.70345  Biso   1.000  N
  C133     1.0000 0.40440  0.31350  0.68310  Biso   1.000  C
  N45      1.0000 0.34320  0.36100  0.69250  Biso   1.000  N
  H162     1.0000 0.28630  0.35960  0.71120  Biso   1.000  H
  H163     1.0000 0.35990  0.39360  0.67990  Biso   1.000  H
  C134     1.0000 0.49720  0.31480  0.65370  Biso   1.000  C
  H164     1.0000 0.51970  0.34990  0.64070  Biso   1.000  H
  C135     1.0000 0.55640  0.26300  0.64380  Biso   1.000  C
  H165     1.0000 0.62180  0.26300  0.62500  Biso   1.000  H
  H166     1.0000 0.30560  0.51400  0.02140  Biso   1.000  H
  O76      1.0000 0.66880  0.66660  0.12034  Biso   1.000  O
  O77      1.0000 0.52050  0.55400  0.14219  Biso   1.000  O
  O78      1.0000 0.48240  0.56733  0.06038  Biso   1.000  O
  O79      1.0000 0.64420  0.63650  0.00670  Biso   1.000  O
  C136     1.0000 0.57690  0.65510  0.15090  Biso   1.000  C
  H167     1.0000 0.61320  0.63810  0.17670  Biso   1.000  H
  C137     1.0000 0.48880  0.61160  0.13147  Biso   1.000  C
  H168     1.0000 0.40500  0.62050  0.13950  Biso   1.000  H
  C138     1.0000 0.50920  0.61920  0.08386  Biso   1.000  C
  H169     1.0000 0.46090  0.65210  0.07310  Biso   1.000  H
  C139     1.0000 0.64550  0.63450  0.08220  Biso   1.000  C
  H170     1.0000 0.69350  0.59830  0.08210  Biso   1.000  H
  C140     1.0000 0.67730  0.67080  0.04400  Biso   1.000  C
  H171     1.0000 0.63310  0.70750  0.04440  Biso   1.000  H
  H172     1.0000 0.76340  0.67940  0.04370  Biso   1.000  H
  N46      1.0000 0.51810  0.71290  0.16167  Biso   1.000  N
  C141     1.0000 0.43370  0.71320  0.19355  Biso   1.000  C
  O80      1.0000 0.40720  0.66571  0.21269  Biso   1.000  O
  N47      1.0000 0.37610  0.76290  0.20345  Biso   1.000  N
  C142     1.0000 0.40440  0.81350  0.18310  Biso   1.000  C
  N48      1.0000 0.34320  0.86100  0.19250  Biso   1.000  N
  H173     1.0000 0.28630  0.85960  0.21120  Biso   1.000  H
  H174     1.0000 0.35990  0.89360  0.17990  Biso   1.000  H
  C143     1.0000 0.49720  0.81480  0.15370  Biso   1.000  C
  H175     1.0000 0.51970  0.84990  0.14070  Biso   1.000  H
  C144     1.0000 0.55640  0.76300  0.14380  Biso   1.000  C
  H176     1.0000 0.62180  0.76300  0.12500  Biso   1.000  H
  Cu1      1.0000 0.00000  0.92766  0.00000  Biso   1.000  Cu
  Cu2      1.0000 0.00000  0.42766  0.50000  Biso   1.000  Cu
  Cu3      1.0000 0.50000  0.92766  0.50000  Biso   1.000  Cu
  Cu4      1.0000 0.50000  0.42766  0.00000  Biso   1.000  Cu
  Cu5      1.0000 0.00000  0.07234  0.00000  Biso   1.000  Cu
  Cu6      1.0000 0.00000  0.57234  0.50000  Biso   1.000  Cu
  Cu7      1.0000 0.50000  0.07234  0.50000  Biso   1.000  Cu
  Cu8      1.0000 0.50000  0.57234  0.00000  Biso   1.000  Cu
  Cu9      1.0000 0.00000  0.00000  0.90309  Biso   1.000  Cu
  Cu10     1.0000 0.00000  0.00000  0.81017  Biso   1.000  Cu
  Cu11     1.0000 0.00000  0.50000  0.40309  Biso   1.000  Cu
  Cu12     1.0000 0.00000  0.50000  0.31017  Biso   1.000  Cu
  Cu13     1.0000 0.50000  0.00000  0.40309  Biso   1.000  Cu
  Cu14     1.0000 0.50000  0.00000  0.31017  Biso   1.000  Cu
  Cu15     1.0000 0.50000  0.50000  0.90309  Biso   1.000  Cu
  Cu16     1.0000 0.50000  0.50000  0.81017  Biso   1.000  Cu
  Cu17     1.0000 0.00000  0.00000  0.09691  Biso   1.000  Cu
  Cu18     1.0000 0.00000  0.00000  0.18983  Biso   1.000  Cu
  Cu19     1.0000 0.00000  0.50000  0.59691  Biso   1.000  Cu
  Cu20     1.0000 0.00000  0.50000  0.68983  Biso   1.000  Cu
  Cu21     1.0000 0.50000  0.00000  0.59691  Biso   1.000  Cu
  Cu22     1.0000 0.50000  0.00000  0.68983  Biso   1.000  Cu
  Cu23     1.0000 0.50000  0.50000  0.09691  Biso   1.000  Cu
  Cu24     1.0000 0.50000  0.50000  0.18983  Biso   1.000  Cu
  Cu25     1.0000 0.75000  0.75000  0.75000  Biso   1.000  Cu
  Cu26     1.0000 0.75000  0.25000  0.25000  Biso   1.000  Cu
  Cu27     1.0000 0.25000  0.75000  0.25000  Biso   1.000  Cu
  Cu28     1.0000 0.25000  0.25000  0.75000  Biso   1.000  Cu
  O81      1.0000 0.86200  0.00000  0.00000  Biso   1.000  O
  O82      1.0000 0.86200  0.50000  0.50000  Biso   1.000  O
  O83      1.0000 0.36200  0.00000  0.50000  Biso   1.000  O
  O84      1.0000 0.36200  0.50000  0.00000  Biso   1.000  O
  O85      1.0000 0.13800  0.00000  0.00000  Biso   1.000  O
  O86      1.0000 0.13800  0.50000  0.50000  Biso   1.000  O
  O87      1.0000 0.63800  0.00000  0.50000  Biso   1.000  O
  O88      1.0000 0.63800  0.50000  0.00000  Biso   1.000  O
