data_image0
_cell_length_a       32.118
_cell_length_b       15.2133
_cell_length_c       13.1789
_cell_angle_alpha    90
_cell_angle_beta     95.256
_cell_angle_gamma    90

_symmetry_space_group_name_H-M    "P 1"
_symmetry_int_tables_number       1

loop_
  _symmetry_equiv_pos_as_xyz
  'x, y, z'

loop_
  _atom_site_label
  _atom_site_occupancy
  _atom_site_fract_x
  _atom_site_fract_y
  _atom_site_fract_z
  _atom_site_thermal_displace_type
  _atom_site_B_iso_or_equiv
  _atom_site_type_symbol
  La1      1.0000 0.81188  0.79352  0.52861  Biso   1.000  La
  O1       1.0000 0.86373  0.67320  0.49720  Biso   1.000  O
  O2       1.0000 0.88440  0.80720  0.45830  Biso   1.000  O
  O3       1.0000 0.23031  0.34010  0.44660  Biso   1.000  O
  O4       1.0000 0.28446  0.42080  0.41720  Biso   1.000  O
  O5       1.0000 0.20612  0.72990  0.14450  Biso   1.000  O
  O6       1.0000 0.26574  0.65480  0.15850  Biso   1.000  O
  C1       1.0000 0.92969  0.68610  0.43200  Biso   1.000  C
  C2       1.0000 0.93408  0.59520  0.43100  Biso   1.000  C
  C3       1.0000 0.97103  0.55774  0.40440  Biso   1.000  C
  C4       1.0000 0.00360  0.61115  0.37893  Biso   1.000  C
  C5       1.0000 0.99922  0.70204  0.38000  Biso   1.000  C
  C6       1.0000 0.96227  0.73951  0.40650  Biso   1.000  C
  C7       1.0000 0.04197  0.57402  0.35333  Biso   1.000  C
  C8       1.0000 0.08243  0.60948  0.34530  Biso   1.000  C
  N1       1.0000 0.10951  0.53920  0.32470  Biso   1.000  N
  N2       1.0000 0.08578  0.46033  0.31990  Biso   1.000  N
  N3       1.0000 0.04403  0.48184  0.33760  Biso   1.000  N
  C9       1.0000 0.15005  0.53870  0.31440  Biso   1.000  C
  C10      1.0000 0.17532  0.47500  0.36420  Biso   1.000  C
  C11      1.0000 0.21804  0.47420  0.35430  Biso   1.000  C
  C12      1.0000 0.23549  0.53720  0.29460  Biso   1.000  C
  C13      1.0000 0.21022  0.60090  0.24480  Biso   1.000  C
  C14      1.0000 0.16750  0.60170  0.25470  Biso   1.000  C
  C15      1.0000 0.89050  0.72540  0.46450  Biso   1.000  C
  C16      1.0000 0.24600  0.40720  0.40820  Biso   1.000  C
  C17      1.0000 0.22910  0.66720  0.17720  Biso   1.000  C
  La2      1.0000 0.31188  0.29352  0.52861  Biso   1.000  La
  O7       1.0000 0.36373  0.17320  0.49720  Biso   1.000  O
  O8       1.0000 0.38440  0.30720  0.45830  Biso   1.000  O
  O9       1.0000 0.73031  0.84010  0.44660  Biso   1.000  O
  O10      1.0000 0.78446  0.92080  0.41720  Biso   1.000  O
  O11      1.0000 0.70612  0.22990  0.14450  Biso   1.000  O
  O12      1.0000 0.76574  0.15480  0.15850  Biso   1.000  O
  C18      1.0000 0.42969  0.18610  0.43200  Biso   1.000  C
  C19      1.0000 0.43408  0.09520  0.43100  Biso   1.000  C
  C20      1.0000 0.47103  0.05774  0.40440  Biso   1.000  C
  C21      1.0000 0.50360  0.11115  0.37893  Biso   1.000  C
  C22      1.0000 0.49922  0.20204  0.38000  Biso   1.000  C
  C23      1.0000 0.46227  0.23951  0.40650  Biso   1.000  C
  C24      1.0000 0.54197  0.07402  0.35333  Biso   1.000  C
  C25      1.0000 0.58243  0.10948  0.34530  Biso   1.000  C
  N4       1.0000 0.60951  0.03920  0.32470  Biso   1.000  N
  N5       1.0000 0.58578  0.96033  0.31990  Biso   1.000  N
  N6       1.0000 0.54403  0.98184  0.33760  Biso   1.000  N
  C26      1.0000 0.65005  0.03870  0.31440  Biso   1.000  C
  C27      1.0000 0.67532  0.97500  0.36420  Biso   1.000  C
  C28      1.0000 0.71804  0.97420  0.35430  Biso   1.000  C
  C29      1.0000 0.73549  0.03720  0.29460  Biso   1.000  C
  C30      1.0000 0.71022  0.10090  0.24480  Biso   1.000  C
  C31      1.0000 0.66750  0.10170  0.25470  Biso   1.000  C
  C32      1.0000 0.39050  0.22540  0.46450  Biso   1.000  C
  C33      1.0000 0.74600  0.90720  0.40820  Biso   1.000  C
  C34      1.0000 0.72910  0.16720  0.17720  Biso   1.000  C
  La3      1.0000 0.18812  0.79352  0.97139  Biso   1.000  La
  O13      1.0000 0.13627  0.67320  0.00280  Biso   1.000  O
  O14      1.0000 0.11560  0.80720  0.04170  Biso   1.000  O
  O15      1.0000 0.76969  0.34010  0.05340  Biso   1.000  O
  O16      1.0000 0.71554  0.42080  0.08280  Biso   1.000  O
  O17      1.0000 0.79388  0.72990  0.35550  Biso   1.000  O
  O18      1.0000 0.73426  0.65480  0.34150  Biso   1.000  O
  C35      1.0000 0.07031  0.68610  0.06800  Biso   1.000  C
  C36      1.0000 0.06592  0.59520  0.06900  Biso   1.000  C
  C37      1.0000 0.02897  0.55774  0.09560  Biso   1.000  C
  C38      1.0000 0.99640  0.61115  0.12107  Biso   1.000  C
  C39      1.0000 0.00078  0.70204  0.12000  Biso   1.000  C
  C40      1.0000 0.03773  0.73951  0.09350  Biso   1.000  C
  C41      1.0000 0.95803  0.57402  0.14667  Biso   1.000  C
  C42      1.0000 0.91757  0.60948  0.15470  Biso   1.000  C
  N7       1.0000 0.89049  0.53920  0.17530  Biso   1.000  N
  N8       1.0000 0.91422  0.46033  0.18010  Biso   1.000  N
  N9       1.0000 0.95597  0.48184  0.16240  Biso   1.000  N
  C43      1.0000 0.84995  0.53870  0.18560  Biso   1.000  C
  C44      1.0000 0.82468  0.47500  0.13580  Biso   1.000  C
  C45      1.0000 0.78196  0.47420  0.14570  Biso   1.000  C
  C46      1.0000 0.76451  0.53720  0.20540  Biso   1.000  C
  C47      1.0000 0.78978  0.60090  0.25520  Biso   1.000  C
  C48      1.0000 0.83250  0.60170  0.24530  Biso   1.000  C
  C49      1.0000 0.10950  0.72540  0.03550  Biso   1.000  C
  C50      1.0000 0.75400  0.40720  0.09180  Biso   1.000  C
  C51      1.0000 0.77090  0.66720  0.32280  Biso   1.000  C
  La4      1.0000 0.68812  0.29352  0.97139  Biso   1.000  La
  O19      1.0000 0.63627  0.17320  0.00280  Biso   1.000  O
  O20      1.0000 0.61560  0.30720  0.04170  Biso   1.000  O
  O21      1.0000 0.26969  0.84010  0.05340  Biso   1.000  O
  O22      1.0000 0.21554  0.92080  0.08280  Biso   1.000  O
  O23      1.0000 0.29388  0.22990  0.35550  Biso   1.000  O
  O24      1.0000 0.23426  0.15480  0.34150  Biso   1.000  O
  C52      1.0000 0.57031  0.18610  0.06800  Biso   1.000  C
  C53      1.0000 0.56592  0.09520  0.06900  Biso   1.000  C
  C54      1.0000 0.52897  0.05774  0.09560  Biso   1.000  C
  C55      1.0000 0.49640  0.11115  0.12107  Biso   1.000  C
  C56      1.0000 0.50078  0.20204  0.12000  Biso   1.000  C
  C57      1.0000 0.53773  0.23951  0.09350  Biso   1.000  C
  C58      1.0000 0.45803  0.07402  0.14667  Biso   1.000  C
  C59      1.0000 0.41757  0.10948  0.15470  Biso   1.000  C
  N10      1.0000 0.39049  0.03920  0.17530  Biso   1.000  N
  N11      1.0000 0.41422  0.96033  0.18010  Biso   1.000  N
  N12      1.0000 0.45597  0.98184  0.16240  Biso   1.000  N
  C60      1.0000 0.34995  0.03870  0.18560  Biso   1.000  C
  C61      1.0000 0.32468  0.97500  0.13580  Biso   1.000  C
  C62      1.0000 0.28196  0.97420  0.14570  Biso   1.000  C
  C63      1.0000 0.26451  0.03720  0.20540  Biso   1.000  C
  C64      1.0000 0.28978  0.10090  0.25520  Biso   1.000  C
  C65      1.0000 0.33250  0.10170  0.24530  Biso   1.000  C
  C66      1.0000 0.60950  0.22540  0.03550  Biso   1.000  C
  C67      1.0000 0.25400  0.90720  0.09180  Biso   1.000  C
  C68      1.0000 0.27090  0.16720  0.32280  Biso   1.000  C
  La5      1.0000 0.18812  0.20648  0.47139  Biso   1.000  La
  O25      1.0000 0.13627  0.32680  0.50280  Biso   1.000  O
  O26      1.0000 0.11560  0.19280  0.54170  Biso   1.000  O
  O27      1.0000 0.76969  0.65990  0.55340  Biso   1.000  O
  O28      1.0000 0.71554  0.57920  0.58280  Biso   1.000  O
  O29      1.0000 0.79388  0.27010  0.85550  Biso   1.000  O
  O30      1.0000 0.73426  0.34520  0.84150  Biso   1.000  O
  C69      1.0000 0.07031  0.31390  0.56800  Biso   1.000  C
  C70      1.0000 0.06592  0.40480  0.56900  Biso   1.000  C
  C71      1.0000 0.02897  0.44226  0.59560  Biso   1.000  C
  C72      1.0000 0.99640  0.38885  0.62107  Biso   1.000  C
  C73      1.0000 0.00078  0.29796  0.62000  Biso   1.000  C
  C74      1.0000 0.03773  0.26049  0.59350  Biso   1.000  C
  C75      1.0000 0.95803  0.42598  0.64667  Biso   1.000  C
  C76      1.0000 0.91757  0.39052  0.65470  Biso   1.000  C
  N13      1.0000 0.89049  0.46080  0.67530  Biso   1.000  N
  N14      1.0000 0.91422  0.53967  0.68010  Biso   1.000  N
  N15      1.0000 0.95597  0.51816  0.66240  Biso   1.000  N
  C77      1.0000 0.84995  0.46130  0.68560  Biso   1.000  C
  C78      1.0000 0.82468  0.52500  0.63580  Biso   1.000  C
  C79      1.0000 0.78196  0.52580  0.64570  Biso   1.000  C
  C80      1.0000 0.76451  0.46280  0.70540  Biso   1.000  C
  C81      1.0000 0.78978  0.39910  0.75520  Biso   1.000  C
  C82      1.0000 0.83250  0.39830  0.74530  Biso   1.000  C
  C83      1.0000 0.10950  0.27460  0.53550  Biso   1.000  C
  C84      1.0000 0.75400  0.59280  0.59180  Biso   1.000  C
  C85      1.0000 0.77090  0.33280  0.82280  Biso   1.000  C
  La6      1.0000 0.68812  0.70648  0.47139  Biso   1.000  La
  O31      1.0000 0.63627  0.82680  0.50280  Biso   1.000  O
  O32      1.0000 0.61560  0.69280  0.54170  Biso   1.000  O
  O33      1.0000 0.26969  0.15990  0.55340  Biso   1.000  O
  O34      1.0000 0.21554  0.07920  0.58280  Biso   1.000  O
  O35      1.0000 0.29388  0.77010  0.85550  Biso   1.000  O
  O36      1.0000 0.23426  0.84520  0.84150  Biso   1.000  O
  C86      1.0000 0.57031  0.81390  0.56800  Biso   1.000  C
  C87      1.0000 0.56592  0.90480  0.56900  Biso   1.000  C
  C88      1.0000 0.52897  0.94226  0.59560  Biso   1.000  C
  C89      1.0000 0.49640  0.88885  0.62107  Biso   1.000  C
  C90      1.0000 0.50078  0.79796  0.62000  Biso   1.000  C
  C91      1.0000 0.53773  0.76049  0.59350  Biso   1.000  C
  C92      1.0000 0.45803  0.92598  0.64667  Biso   1.000  C
  C93      1.0000 0.41757  0.89052  0.65470  Biso   1.000  C
  N16      1.0000 0.39049  0.96080  0.67530  Biso   1.000  N
  N17      1.0000 0.41422  0.03967  0.68010  Biso   1.000  N
  N18      1.0000 0.45597  0.01816  0.66240  Biso   1.000  N
  C94      1.0000 0.34995  0.96130  0.68560  Biso   1.000  C
  C95      1.0000 0.32468  0.02500  0.63580  Biso   1.000  C
  C96      1.0000 0.28196  0.02580  0.64570  Biso   1.000  C
  C97      1.0000 0.26451  0.96280  0.70540  Biso   1.000  C
  C98      1.0000 0.28978  0.89910  0.75520  Biso   1.000  C
  C99      1.0000 0.33250  0.89830  0.74530  Biso   1.000  C
  C100     1.0000 0.60950  0.77460  0.53550  Biso   1.000  C
  C101     1.0000 0.25400  0.09280  0.59180  Biso   1.000  C
  C102     1.0000 0.27090  0.83280  0.82280  Biso   1.000  C
  La7      1.0000 0.81188  0.20648  0.02861  Biso   1.000  La
  O37      1.0000 0.86373  0.32680  0.99720  Biso   1.000  O
  O38      1.0000 0.88440  0.19280  0.95830  Biso   1.000  O
  O39      1.0000 0.23031  0.65990  0.94660  Biso   1.000  O
  O40      1.0000 0.28446  0.57920  0.91720  Biso   1.000  O
  O41      1.0000 0.20612  0.27010  0.64450  Biso   1.000  O
  O42      1.0000 0.26574  0.34520  0.65850  Biso   1.000  O
  C103     1.0000 0.92969  0.31390  0.93200  Biso   1.000  C
  C104     1.0000 0.93408  0.40480  0.93100  Biso   1.000  C
  C105     1.0000 0.97103  0.44226  0.90440  Biso   1.000  C
  C106     1.0000 0.00360  0.38885  0.87893  Biso   1.000  C
  C107     1.0000 0.99922  0.29796  0.88000  Biso   1.000  C
  C108     1.0000 0.96227  0.26049  0.90650  Biso   1.000  C
  C109     1.0000 0.04197  0.42598  0.85333  Biso   1.000  C
  C110     1.0000 0.08243  0.39052  0.84530  Biso   1.000  C
  N19      1.0000 0.10951  0.46080  0.82470  Biso   1.000  N
  N20      1.0000 0.08578  0.53967  0.81990  Biso   1.000  N
  N21      1.0000 0.04403  0.51816  0.83760  Biso   1.000  N
  C111     1.0000 0.15005  0.46130  0.81440  Biso   1.000  C
  C112     1.0000 0.17532  0.52500  0.86420  Biso   1.000  C
  C113     1.0000 0.21804  0.52580  0.85430  Biso   1.000  C
  C114     1.0000 0.23549  0.46280  0.79460  Biso   1.000  C
  C115     1.0000 0.21022  0.39910  0.74480  Biso   1.000  C
  C116     1.0000 0.16750  0.39830  0.75470  Biso   1.000  C
  C117     1.0000 0.89050  0.27460  0.96450  Biso   1.000  C
  C118     1.0000 0.24600  0.59280  0.90820  Biso   1.000  C
  C119     1.0000 0.22910  0.33280  0.67720  Biso   1.000  C
  La8      1.0000 0.31188  0.70648  0.02861  Biso   1.000  La
  O43      1.0000 0.36373  0.82680  0.99720  Biso   1.000  O
  O44      1.0000 0.38440  0.69280  0.95830  Biso   1.000  O
  O45      1.0000 0.73031  0.15990  0.94660  Biso   1.000  O
  O46      1.0000 0.78446  0.07920  0.91720  Biso   1.000  O
  O47      1.0000 0.70612  0.77010  0.64450  Biso   1.000  O
  O48      1.0000 0.76574  0.84520  0.65850  Biso   1.000  O
  C120     1.0000 0.42969  0.81390  0.93200  Biso   1.000  C
  C121     1.0000 0.43408  0.90480  0.93100  Biso   1.000  C
  C122     1.0000 0.47103  0.94226  0.90440  Biso   1.000  C
  C123     1.0000 0.50360  0.88885  0.87893  Biso   1.000  C
  C124     1.0000 0.49922  0.79796  0.88000  Biso   1.000  C
  C125     1.0000 0.46227  0.76049  0.90650  Biso   1.000  C
  C126     1.0000 0.54197  0.92598  0.85333  Biso   1.000  C
  C127     1.0000 0.58243  0.89052  0.84530  Biso   1.000  C
  N22      1.0000 0.60951  0.96080  0.82470  Biso   1.000  N
  N23      1.0000 0.58578  0.03967  0.81990  Biso   1.000  N
  N24      1.0000 0.54403  0.01816  0.83760  Biso   1.000  N
  C128     1.0000 0.65005  0.96130  0.81440  Biso   1.000  C
  C129     1.0000 0.67532  0.02500  0.86420  Biso   1.000  C
  C130     1.0000 0.71804  0.02580  0.85430  Biso   1.000  C
  C131     1.0000 0.73549  0.96280  0.79460  Biso   1.000  C
  C132     1.0000 0.71022  0.89910  0.74480  Biso   1.000  C
  C133     1.0000 0.66750  0.89830  0.75470  Biso   1.000  C
  C134     1.0000 0.39050  0.77460  0.96450  Biso   1.000  C
  C135     1.0000 0.74600  0.09280  0.90820  Biso   1.000  C
  C136     1.0000 0.72910  0.83280  0.67720  Biso   1.000  C
