data_image0
_cell_length_a       31.81
_cell_length_b       14.993
_cell_length_c       13.22
_cell_angle_alpha    90
_cell_angle_beta     96.01
_cell_angle_gamma    90

_symmetry_space_group_name_H-M    "P 1"
_symmetry_int_tables_number       1

loop_
  _symmetry_equiv_pos_as_xyz
  'x, y, z'

loop_
  _atom_site_label
  _atom_site_occupancy
  _atom_site_fract_x
  _atom_site_fract_y
  _atom_site_fract_z
  _atom_site_thermal_displace_type
  _atom_site_B_iso_or_equiv
  _atom_site_type_symbol
  C1       1.0000 0.21056  0.39914  0.74211  Biso   1.000  C
  C2       1.0000 0.23587  0.46434  0.79230  Biso   1.000  C
  C3       1.0000 0.21820  0.52663  0.85325  Biso   1.000  C
  C4       1.0000 0.17523  0.52372  0.86401  Biso   1.000  C
  C5       1.0000 0.14991  0.45853  0.81382  Biso   1.000  C
  C6       1.0000 0.16758  0.39624  0.75288  Biso   1.000  C
  C7       1.0000 0.99753  0.29039  0.87921  Biso   1.000  C
  C8       1.0000 0.00263  0.38405  0.87957  Biso   1.000  C
  C9       1.0000 0.96995  0.43856  0.90570  Biso   1.000  C
  C10      1.0000 0.93275  0.39970  0.93229  Biso   1.000  C
  C11      1.0000 0.92810  0.30860  0.93240  Biso   1.000  C
  C12      1.0000 0.95994  0.25451  0.90583  Biso   1.000  C
  C13      1.0000 0.04073  0.42260  0.85542  Biso   1.000  C
  C14      1.0000 0.08123  0.38602  0.84502  Biso   1.000  C
  N1       1.0000 0.10834  0.45683  0.82223  Biso   1.000  N
  N2       1.0000 0.08460  0.53719  0.81854  Biso   1.000  N
  N3       1.0000 0.04282  0.51603  0.83905  Biso   1.000  N
  C15      1.0000 0.22905  0.33500  0.66980  Biso   1.000  C
  C16      1.0000 0.24623  0.59630  0.91020  Biso   1.000  C
  C17      1.0000 0.88841  0.26960  0.96660  Biso   1.000  C
  Eu1      1.0000 0.18936  0.20674  0.47045  Biso   1.000  Eu
  O1       1.0000 0.22986  0.66350  0.94410  Biso   1.000  O
  O2       1.0000 0.28539  0.58232  0.92110  Biso   1.000  O
  O3       1.0000 0.87931  0.18860  0.95340  Biso   1.000  O
  O4       1.0000 0.86357  0.32110  0.00690  Biso   1.000  O
  O5       1.0000 0.20530  0.27185  0.63640  Biso   1.000  O
  O6       1.0000 0.26569  0.34992  0.64930  Biso   1.000  O
  C18      1.0000 0.71056  0.89914  0.74211  Biso   1.000  C
  C19      1.0000 0.73587  0.96434  0.79230  Biso   1.000  C
  C20      1.0000 0.71820  0.02663  0.85325  Biso   1.000  C
  C21      1.0000 0.67523  0.02372  0.86401  Biso   1.000  C
  C22      1.0000 0.64991  0.95853  0.81382  Biso   1.000  C
  C23      1.0000 0.66758  0.89624  0.75288  Biso   1.000  C
  C24      1.0000 0.49753  0.79039  0.87921  Biso   1.000  C
  C25      1.0000 0.50263  0.88405  0.87957  Biso   1.000  C
  C26      1.0000 0.46995  0.93856  0.90570  Biso   1.000  C
  C27      1.0000 0.43275  0.89970  0.93229  Biso   1.000  C
  C28      1.0000 0.42810  0.80860  0.93240  Biso   1.000  C
  C29      1.0000 0.45994  0.75451  0.90583  Biso   1.000  C
  C30      1.0000 0.54073  0.92260  0.85542  Biso   1.000  C
  C31      1.0000 0.58123  0.88602  0.84502  Biso   1.000  C
  N4       1.0000 0.60834  0.95683  0.82223  Biso   1.000  N
  N5       1.0000 0.58460  0.03719  0.81854  Biso   1.000  N
  N6       1.0000 0.54282  0.01603  0.83905  Biso   1.000  N
  C32      1.0000 0.72905  0.83500  0.66980  Biso   1.000  C
  C33      1.0000 0.74623  0.09630  0.91020  Biso   1.000  C
  C34      1.0000 0.38841  0.76960  0.96660  Biso   1.000  C
  Eu2      1.0000 0.68936  0.70674  0.47045  Biso   1.000  Eu
  O7       1.0000 0.72986  0.16350  0.94410  Biso   1.000  O
  O8       1.0000 0.78539  0.08232  0.92110  Biso   1.000  O
  O9       1.0000 0.37931  0.68860  0.95340  Biso   1.000  O
  O10      1.0000 0.36357  0.82110  0.00690  Biso   1.000  O
  O11      1.0000 0.70530  0.77185  0.63640  Biso   1.000  O
  O12      1.0000 0.76569  0.84992  0.64930  Biso   1.000  O
  C35      1.0000 0.78944  0.39914  0.75789  Biso   1.000  C
  C36      1.0000 0.76413  0.46434  0.70770  Biso   1.000  C
  C37      1.0000 0.78180  0.52663  0.64675  Biso   1.000  C
  C38      1.0000 0.82477  0.52372  0.63599  Biso   1.000  C
  C39      1.0000 0.85009  0.45853  0.68618  Biso   1.000  C
  C40      1.0000 0.83242  0.39624  0.74712  Biso   1.000  C
  C41      1.0000 0.00247  0.29039  0.62079  Biso   1.000  C
  C42      1.0000 0.99737  0.38405  0.62043  Biso   1.000  C
  C43      1.0000 0.03005  0.43856  0.59430  Biso   1.000  C
  C44      1.0000 0.06725  0.39970  0.56771  Biso   1.000  C
  C45      1.0000 0.07190  0.30860  0.56760  Biso   1.000  C
  C46      1.0000 0.04006  0.25451  0.59417  Biso   1.000  C
  C47      1.0000 0.95927  0.42260  0.64458  Biso   1.000  C
  C48      1.0000 0.91877  0.38602  0.65498  Biso   1.000  C
  N7       1.0000 0.89166  0.45683  0.67777  Biso   1.000  N
  N8       1.0000 0.91540  0.53719  0.68146  Biso   1.000  N
  N9       1.0000 0.95718  0.51603  0.66095  Biso   1.000  N
  C49      1.0000 0.77095  0.33500  0.83020  Biso   1.000  C
  C50      1.0000 0.75377  0.59630  0.58980  Biso   1.000  C
  C51      1.0000 0.11159  0.26960  0.53340  Biso   1.000  C
  Eu3      1.0000 0.81064  0.20674  0.02955  Biso   1.000  Eu
  O13      1.0000 0.77014  0.66350  0.55590  Biso   1.000  O
  O14      1.0000 0.71461  0.58232  0.57890  Biso   1.000  O
  O15      1.0000 0.12069  0.18860  0.54660  Biso   1.000  O
  O16      1.0000 0.13643  0.32110  0.49310  Biso   1.000  O
  O17      1.0000 0.79470  0.27185  0.86360  Biso   1.000  O
  O18      1.0000 0.73431  0.34992  0.85070  Biso   1.000  O
  C52      1.0000 0.28944  0.89914  0.75789  Biso   1.000  C
  C53      1.0000 0.26413  0.96434  0.70770  Biso   1.000  C
  C54      1.0000 0.28180  0.02663  0.64675  Biso   1.000  C
  C55      1.0000 0.32477  0.02372  0.63599  Biso   1.000  C
  C56      1.0000 0.35009  0.95853  0.68618  Biso   1.000  C
  C57      1.0000 0.33242  0.89624  0.74712  Biso   1.000  C
  C58      1.0000 0.50247  0.79039  0.62079  Biso   1.000  C
  C59      1.0000 0.49737  0.88405  0.62043  Biso   1.000  C
  C60      1.0000 0.53005  0.93856  0.59430  Biso   1.000  C
  C61      1.0000 0.56725  0.89970  0.56771  Biso   1.000  C
  C62      1.0000 0.57190  0.80860  0.56760  Biso   1.000  C
  C63      1.0000 0.54006  0.75451  0.59417  Biso   1.000  C
  C64      1.0000 0.45927  0.92260  0.64458  Biso   1.000  C
  C65      1.0000 0.41877  0.88602  0.65498  Biso   1.000  C
  N10      1.0000 0.39166  0.95683  0.67777  Biso   1.000  N
  N11      1.0000 0.41540  0.03719  0.68146  Biso   1.000  N
  N12      1.0000 0.45718  0.01603  0.66095  Biso   1.000  N
  C66      1.0000 0.27095  0.83500  0.83020  Biso   1.000  C
  C67      1.0000 0.25377  0.09630  0.58980  Biso   1.000  C
  C68      1.0000 0.61159  0.76960  0.53340  Biso   1.000  C
  Eu4      1.0000 0.31064  0.70674  0.02955  Biso   1.000  Eu
  O19      1.0000 0.27014  0.16350  0.55590  Biso   1.000  O
  O20      1.0000 0.21461  0.08232  0.57890  Biso   1.000  O
  O21      1.0000 0.62069  0.68860  0.54660  Biso   1.000  O
  O22      1.0000 0.63643  0.82110  0.49310  Biso   1.000  O
  O23      1.0000 0.29470  0.77185  0.86360  Biso   1.000  O
  O24      1.0000 0.23431  0.84992  0.85070  Biso   1.000  O
  C69      1.0000 0.78944  0.60086  0.25789  Biso   1.000  C
  C70      1.0000 0.76413  0.53566  0.20770  Biso   1.000  C
  C71      1.0000 0.78180  0.47337  0.14675  Biso   1.000  C
  C72      1.0000 0.82477  0.47628  0.13599  Biso   1.000  C
  C73      1.0000 0.85009  0.54147  0.18618  Biso   1.000  C
  C74      1.0000 0.83242  0.60376  0.24712  Biso   1.000  C
  C75      1.0000 0.00247  0.70961  0.12079  Biso   1.000  C
  C76      1.0000 0.99737  0.61595  0.12043  Biso   1.000  C
  C77      1.0000 0.03005  0.56144  0.09430  Biso   1.000  C
  C78      1.0000 0.06725  0.60030  0.06771  Biso   1.000  C
  C79      1.0000 0.07190  0.69140  0.06760  Biso   1.000  C
  C80      1.0000 0.04006  0.74549  0.09417  Biso   1.000  C
  C81      1.0000 0.95927  0.57740  0.14458  Biso   1.000  C
  C82      1.0000 0.91877  0.61398  0.15498  Biso   1.000  C
  N13      1.0000 0.89166  0.54317  0.17777  Biso   1.000  N
  N14      1.0000 0.91540  0.46281  0.18146  Biso   1.000  N
  N15      1.0000 0.95718  0.48397  0.16095  Biso   1.000  N
  C83      1.0000 0.77095  0.66500  0.33020  Biso   1.000  C
  C84      1.0000 0.75377  0.40370  0.08980  Biso   1.000  C
  C85      1.0000 0.11159  0.73040  0.03340  Biso   1.000  C
  Eu5      1.0000 0.81064  0.79326  0.52955  Biso   1.000  Eu
  O25      1.0000 0.77014  0.33650  0.05590  Biso   1.000  O
  O26      1.0000 0.71461  0.41768  0.07890  Biso   1.000  O
  O27      1.0000 0.12069  0.81140  0.04660  Biso   1.000  O
  O28      1.0000 0.13643  0.67890  0.99310  Biso   1.000  O
  O29      1.0000 0.79470  0.72815  0.36360  Biso   1.000  O
  O30      1.0000 0.73431  0.65008  0.35070  Biso   1.000  O
  C86      1.0000 0.28944  0.10086  0.25789  Biso   1.000  C
  C87      1.0000 0.26413  0.03566  0.20770  Biso   1.000  C
  C88      1.0000 0.28180  0.97337  0.14675  Biso   1.000  C
  C89      1.0000 0.32477  0.97628  0.13599  Biso   1.000  C
  C90      1.0000 0.35009  0.04147  0.18618  Biso   1.000  C
  C91      1.0000 0.33242  0.10376  0.24712  Biso   1.000  C
  C92      1.0000 0.50247  0.20961  0.12079  Biso   1.000  C
  C93      1.0000 0.49737  0.11595  0.12043  Biso   1.000  C
  C94      1.0000 0.53005  0.06144  0.09430  Biso   1.000  C
  C95      1.0000 0.56725  0.10030  0.06771  Biso   1.000  C
  C96      1.0000 0.57190  0.19140  0.06760  Biso   1.000  C
  C97      1.0000 0.54006  0.24549  0.09417  Biso   1.000  C
  C98      1.0000 0.45927  0.07740  0.14458  Biso   1.000  C
  C99      1.0000 0.41877  0.11398  0.15498  Biso   1.000  C
  N16      1.0000 0.39166  0.04317  0.17777  Biso   1.000  N
  N17      1.0000 0.41540  0.96281  0.18146  Biso   1.000  N
  N18      1.0000 0.45718  0.98397  0.16095  Biso   1.000  N
  C100     1.0000 0.27095  0.16500  0.33020  Biso   1.000  C
  C101     1.0000 0.25377  0.90370  0.08980  Biso   1.000  C
  C102     1.0000 0.61159  0.23040  0.03340  Biso   1.000  C
  Eu6      1.0000 0.31064  0.29326  0.52955  Biso   1.000  Eu
  O31      1.0000 0.27014  0.83650  0.05590  Biso   1.000  O
  O32      1.0000 0.21461  0.91768  0.07890  Biso   1.000  O
  O33      1.0000 0.62069  0.31140  0.04660  Biso   1.000  O
  O34      1.0000 0.63643  0.17890  0.99310  Biso   1.000  O
  O35      1.0000 0.29470  0.22815  0.36360  Biso   1.000  O
  O36      1.0000 0.23431  0.15008  0.35070  Biso   1.000  O
  C103     1.0000 0.21056  0.60086  0.24211  Biso   1.000  C
  C104     1.0000 0.23587  0.53566  0.29230  Biso   1.000  C
  C105     1.0000 0.21820  0.47337  0.35325  Biso   1.000  C
  C106     1.0000 0.17523  0.47628  0.36401  Biso   1.000  C
  C107     1.0000 0.14991  0.54147  0.31382  Biso   1.000  C
  C108     1.0000 0.16758  0.60376  0.25288  Biso   1.000  C
  C109     1.0000 0.99753  0.70961  0.37921  Biso   1.000  C
  C110     1.0000 0.00263  0.61595  0.37957  Biso   1.000  C
  C111     1.0000 0.96995  0.56144  0.40570  Biso   1.000  C
  C112     1.0000 0.93275  0.60030  0.43229  Biso   1.000  C
  C113     1.0000 0.92810  0.69140  0.43240  Biso   1.000  C
  C114     1.0000 0.95994  0.74549  0.40583  Biso   1.000  C
  C115     1.0000 0.04073  0.57740  0.35542  Biso   1.000  C
  C116     1.0000 0.08123  0.61398  0.34502  Biso   1.000  C
  N19      1.0000 0.10834  0.54317  0.32223  Biso   1.000  N
  N20      1.0000 0.08460  0.46281  0.31854  Biso   1.000  N
  N21      1.0000 0.04282  0.48397  0.33905  Biso   1.000  N
  C117     1.0000 0.22905  0.66500  0.16980  Biso   1.000  C
  C118     1.0000 0.24623  0.40370  0.41020  Biso   1.000  C
  C119     1.0000 0.88841  0.73040  0.46660  Biso   1.000  C
  Eu7      1.0000 0.18936  0.79326  0.97045  Biso   1.000  Eu
  O37      1.0000 0.22986  0.33650  0.44410  Biso   1.000  O
  O38      1.0000 0.28539  0.41768  0.42110  Biso   1.000  O
  O39      1.0000 0.87931  0.81140  0.45340  Biso   1.000  O
  O40      1.0000 0.86357  0.67890  0.50690  Biso   1.000  O
  O41      1.0000 0.20530  0.72815  0.13640  Biso   1.000  O
  O42      1.0000 0.26569  0.65008  0.14930  Biso   1.000  O
  C120     1.0000 0.71056  0.10086  0.24211  Biso   1.000  C
  C121     1.0000 0.73587  0.03566  0.29230  Biso   1.000  C
  C122     1.0000 0.71820  0.97337  0.35325  Biso   1.000  C
  C123     1.0000 0.67523  0.97628  0.36401  Biso   1.000  C
  C124     1.0000 0.64991  0.04147  0.31382  Biso   1.000  C
  C125     1.0000 0.66758  0.10376  0.25288  Biso   1.000  C
  C126     1.0000 0.49753  0.20961  0.37921  Biso   1.000  C
  C127     1.0000 0.50263  0.11595  0.37957  Biso   1.000  C
  C128     1.0000 0.46995  0.06144  0.40570  Biso   1.000  C
  C129     1.0000 0.43275  0.10030  0.43229  Biso   1.000  C
  C130     1.0000 0.42810  0.19140  0.43240  Biso   1.000  C
  C131     1.0000 0.45994  0.24549  0.40583  Biso   1.000  C
  C132     1.0000 0.54073  0.07740  0.35542  Biso   1.000  C
  C133     1.0000 0.58123  0.11398  0.34502  Biso   1.000  C
  N22      1.0000 0.60834  0.04317  0.32223  Biso   1.000  N
  N23      1.0000 0.58460  0.96281  0.31854  Biso   1.000  N
  N24      1.0000 0.54282  0.98397  0.33905  Biso   1.000  N
  C134     1.0000 0.72905  0.16500  0.16980  Biso   1.000  C
  C135     1.0000 0.74623  0.90370  0.41020  Biso   1.000  C
  C136     1.0000 0.38841  0.23040  0.46660  Biso   1.000  C
  Eu8      1.0000 0.68936  0.29326  0.97045  Biso   1.000  Eu
  O43      1.0000 0.72986  0.83650  0.44410  Biso   1.000  O
  O44      1.0000 0.78539  0.91768  0.42110  Biso   1.000  O
  O45      1.0000 0.37931  0.31140  0.45340  Biso   1.000  O
  O46      1.0000 0.36357  0.17890  0.50690  Biso   1.000  O
  O47      1.0000 0.70530  0.22815  0.13640  Biso   1.000  O
  O48      1.0000 0.76569  0.15008  0.14930  Biso   1.000  O
