data_image0
_cell_length_a       31.6491
_cell_length_b       14.9143
_cell_length_c       13.2656
_cell_angle_alpha    90
_cell_angle_beta     96.466
_cell_angle_gamma    90

_symmetry_space_group_name_H-M    "P 1"
_symmetry_int_tables_number       1

loop_
  _symmetry_equiv_pos_as_xyz
  'x, y, z'

loop_
  _atom_site_label
  _atom_site_occupancy
  _atom_site_fract_x
  _atom_site_fract_y
  _atom_site_fract_z
  _atom_site_thermal_displace_type
  _atom_site_B_iso_or_equiv
  _atom_site_type_symbol
  Tb1      1.0000 0.18948  0.20545  0.46936  Biso   1.000  Tb
  O1       1.0000 0.12167  0.18830  0.54480  Biso   1.000  O
  O2       1.0000 0.13583  0.31710  0.48580  Biso   1.000  O
  O3       1.0000 0.79555  0.27610  0.87120  Biso   1.000  O
  O4       1.0000 0.73482  0.35490  0.85690  Biso   1.000  O
  O5       1.0000 0.77052  0.66720  0.56020  Biso   1.000  O
  O6       1.0000 0.71508  0.58540  0.58300  Biso   1.000  O
  C1       1.0000 0.85011  0.45872  0.68881  Biso   1.000  C
  C2       1.0000 0.82475  0.52474  0.63894  Biso   1.000  C
  C3       1.0000 0.78176  0.52940  0.65123  Biso   1.000  C
  C4       1.0000 0.76414  0.46803  0.71339  Biso   1.000  C
  C5       1.0000 0.78951  0.40201  0.76326  Biso   1.000  C
  C6       1.0000 0.83249  0.39735  0.75097  Biso   1.000  C
  C7       1.0000 0.99739  0.38153  0.61882  Biso   1.000  C
  C8       1.0000 0.00246  0.28895  0.62054  Biso   1.000  C
  C9       1.0000 0.03979  0.25103  0.59405  Biso   1.000  C
  C10      1.0000 0.07204  0.30570  0.56584  Biso   1.000  C
  C11      1.0000 0.06695  0.39828  0.56413  Biso   1.000  C
  C12      1.0000 0.02964  0.43619  0.59061  Biso   1.000  C
  N1       1.0000 0.89466  0.45642  0.67705  Biso   1.000  N
  N2       1.0000 0.91741  0.53331  0.68134  Biso   1.000  N
  N3       1.0000 0.95549  0.51186  0.66253  Biso   1.000  N
  C13      1.0000 0.95794  0.42264  0.64489  Biso   1.000  C
  C14      1.0000 0.91844  0.38390  0.65767  Biso   1.000  C
  C15      1.0000 0.75439  0.60020  0.59490  Biso   1.000  C
  C16      1.0000 0.77199  0.33958  0.83716  Biso   1.000  C
  C17      1.0000 0.11212  0.26660  0.53090  Biso   1.000  C
  Tb2      1.0000 0.68948  0.70545  0.46936  Biso   1.000  Tb
  O7       1.0000 0.62167  0.68830  0.54480  Biso   1.000  O
  O8       1.0000 0.63583  0.81710  0.48580  Biso   1.000  O
  O9       1.0000 0.29555  0.77610  0.87120  Biso   1.000  O
  O10      1.0000 0.23482  0.85490  0.85690  Biso   1.000  O
  O11      1.0000 0.27052  0.16720  0.56020  Biso   1.000  O
  O12      1.0000 0.21508  0.08540  0.58300  Biso   1.000  O
  C18      1.0000 0.35011  0.95872  0.68881  Biso   1.000  C
  C19      1.0000 0.32475  0.02474  0.63894  Biso   1.000  C
  C20      1.0000 0.28176  0.02940  0.65123  Biso   1.000  C
  C21      1.0000 0.26414  0.96803  0.71339  Biso   1.000  C
  C22      1.0000 0.28951  0.90201  0.76326  Biso   1.000  C
  C23      1.0000 0.33249  0.89735  0.75097  Biso   1.000  C
  C24      1.0000 0.49739  0.88153  0.61882  Biso   1.000  C
  C25      1.0000 0.50246  0.78895  0.62054  Biso   1.000  C
  C26      1.0000 0.53979  0.75103  0.59405  Biso   1.000  C
  C27      1.0000 0.57204  0.80570  0.56584  Biso   1.000  C
  C28      1.0000 0.56695  0.89828  0.56413  Biso   1.000  C
  C29      1.0000 0.52964  0.93619  0.59061  Biso   1.000  C
  N4       1.0000 0.39466  0.95642  0.67705  Biso   1.000  N
  N5       1.0000 0.41741  0.03331  0.68134  Biso   1.000  N
  N6       1.0000 0.45549  0.01186  0.66253  Biso   1.000  N
  C30      1.0000 0.45794  0.92264  0.64489  Biso   1.000  C
  C31      1.0000 0.41844  0.88390  0.65767  Biso   1.000  C
  C32      1.0000 0.25439  0.10020  0.59490  Biso   1.000  C
  C33      1.0000 0.27199  0.83958  0.83716  Biso   1.000  C
  C34      1.0000 0.61212  0.76660  0.53090  Biso   1.000  C
  Tb3      1.0000 0.81052  0.20545  0.03064  Biso   1.000  Tb
  O13      1.0000 0.87833  0.18830  0.95520  Biso   1.000  O
  O14      1.0000 0.86417  0.31710  0.01420  Biso   1.000  O
  O15      1.0000 0.20445  0.27610  0.62880  Biso   1.000  O
  O16      1.0000 0.26518  0.35490  0.64310  Biso   1.000  O
  O17      1.0000 0.22948  0.66720  0.93980  Biso   1.000  O
  O18      1.0000 0.28492  0.58540  0.91700  Biso   1.000  O
  C35      1.0000 0.14989  0.45872  0.81119  Biso   1.000  C
  C36      1.0000 0.17525  0.52474  0.86106  Biso   1.000  C
  C37      1.0000 0.21824  0.52940  0.84877  Biso   1.000  C
  C38      1.0000 0.23586  0.46803  0.78661  Biso   1.000  C
  C39      1.0000 0.21049  0.40201  0.73674  Biso   1.000  C
  C40      1.0000 0.16751  0.39735  0.74903  Biso   1.000  C
  C41      1.0000 0.00261  0.38153  0.88118  Biso   1.000  C
  C42      1.0000 0.99754  0.28895  0.87946  Biso   1.000  C
  C43      1.0000 0.96021  0.25103  0.90595  Biso   1.000  C
  C44      1.0000 0.92796  0.30570  0.93416  Biso   1.000  C
  C45      1.0000 0.93305  0.39828  0.93587  Biso   1.000  C
  C46      1.0000 0.97036  0.43619  0.90939  Biso   1.000  C
  N7       1.0000 0.10534  0.45642  0.82295  Biso   1.000  N
  N8       1.0000 0.08259  0.53331  0.81866  Biso   1.000  N
  N9       1.0000 0.04451  0.51186  0.83747  Biso   1.000  N
  C47      1.0000 0.04206  0.42264  0.85511  Biso   1.000  C
  C48      1.0000 0.08156  0.38390  0.84233  Biso   1.000  C
  C49      1.0000 0.24561  0.60020  0.90510  Biso   1.000  C
  C50      1.0000 0.22801  0.33958  0.66284  Biso   1.000  C
  C51      1.0000 0.88788  0.26660  0.96910  Biso   1.000  C
  Tb4      1.0000 0.31052  0.70545  0.03064  Biso   1.000  Tb
  O19      1.0000 0.37833  0.68830  0.95520  Biso   1.000  O
  O20      1.0000 0.36417  0.81710  0.01420  Biso   1.000  O
  O21      1.0000 0.70445  0.77610  0.62880  Biso   1.000  O
  O22      1.0000 0.76518  0.85490  0.64310  Biso   1.000  O
  O23      1.0000 0.72948  0.16720  0.93980  Biso   1.000  O
  O24      1.0000 0.78492  0.08540  0.91700  Biso   1.000  O
  C52      1.0000 0.64989  0.95872  0.81119  Biso   1.000  C
  C53      1.0000 0.67525  0.02474  0.86106  Biso   1.000  C
  C54      1.0000 0.71824  0.02940  0.84877  Biso   1.000  C
  C55      1.0000 0.73586  0.96803  0.78661  Biso   1.000  C
  C56      1.0000 0.71049  0.90201  0.73674  Biso   1.000  C
  C57      1.0000 0.66751  0.89735  0.74903  Biso   1.000  C
  C58      1.0000 0.50261  0.88153  0.88118  Biso   1.000  C
  C59      1.0000 0.49754  0.78895  0.87946  Biso   1.000  C
  C60      1.0000 0.46021  0.75103  0.90595  Biso   1.000  C
  C61      1.0000 0.42796  0.80570  0.93416  Biso   1.000  C
  C62      1.0000 0.43305  0.89828  0.93587  Biso   1.000  C
  C63      1.0000 0.47036  0.93619  0.90939  Biso   1.000  C
  N10      1.0000 0.60534  0.95642  0.82295  Biso   1.000  N
  N11      1.0000 0.58259  0.03331  0.81866  Biso   1.000  N
  N12      1.0000 0.54451  0.01186  0.83747  Biso   1.000  N
  C64      1.0000 0.54206  0.92264  0.85511  Biso   1.000  C
  C65      1.0000 0.58156  0.88390  0.84233  Biso   1.000  C
  C66      1.0000 0.74561  0.10020  0.90510  Biso   1.000  C
  C67      1.0000 0.72801  0.83958  0.66284  Biso   1.000  C
  C68      1.0000 0.38788  0.76660  0.96910  Biso   1.000  C
  Tb5      1.0000 0.81052  0.79455  0.53064  Biso   1.000  Tb
  O25      1.0000 0.87833  0.81170  0.45520  Biso   1.000  O
  O26      1.0000 0.86417  0.68290  0.51420  Biso   1.000  O
  O27      1.0000 0.20445  0.72390  0.12880  Biso   1.000  O
  O28      1.0000 0.26518  0.64510  0.14310  Biso   1.000  O
  O29      1.0000 0.22948  0.33280  0.43980  Biso   1.000  O
  O30      1.0000 0.28492  0.41460  0.41700  Biso   1.000  O
  C69      1.0000 0.14989  0.54128  0.31119  Biso   1.000  C
  C70      1.0000 0.17525  0.47526  0.36106  Biso   1.000  C
  C71      1.0000 0.21824  0.47060  0.34877  Biso   1.000  C
  C72      1.0000 0.23586  0.53197  0.28661  Biso   1.000  C
  C73      1.0000 0.21049  0.59799  0.23674  Biso   1.000  C
  C74      1.0000 0.16751  0.60265  0.24903  Biso   1.000  C
  C75      1.0000 0.00261  0.61847  0.38118  Biso   1.000  C
  C76      1.0000 0.99754  0.71105  0.37946  Biso   1.000  C
  C77      1.0000 0.96021  0.74897  0.40595  Biso   1.000  C
  C78      1.0000 0.92796  0.69430  0.43416  Biso   1.000  C
  C79      1.0000 0.93305  0.60172  0.43587  Biso   1.000  C
  C80      1.0000 0.97036  0.56381  0.40939  Biso   1.000  C
  N13      1.0000 0.10534  0.54358  0.32295  Biso   1.000  N
  N14      1.0000 0.08259  0.46669  0.31866  Biso   1.000  N
  N15      1.0000 0.04451  0.48814  0.33747  Biso   1.000  N
  C81      1.0000 0.04206  0.57736  0.35511  Biso   1.000  C
  C82      1.0000 0.08156  0.61610  0.34233  Biso   1.000  C
  C83      1.0000 0.24561  0.39980  0.40510  Biso   1.000  C
  C84      1.0000 0.22801  0.66042  0.16284  Biso   1.000  C
  C85      1.0000 0.88788  0.73340  0.46910  Biso   1.000  C
  Tb6      1.0000 0.31052  0.29455  0.53064  Biso   1.000  Tb
  O31      1.0000 0.37833  0.31170  0.45520  Biso   1.000  O
  O32      1.0000 0.36417  0.18290  0.51420  Biso   1.000  O
  O33      1.0000 0.70445  0.22390  0.12880  Biso   1.000  O
  O34      1.0000 0.76518  0.14510  0.14310  Biso   1.000  O
  O35      1.0000 0.72948  0.83280  0.43980  Biso   1.000  O
  O36      1.0000 0.78492  0.91460  0.41700  Biso   1.000  O
  C86      1.0000 0.64989  0.04128  0.31119  Biso   1.000  C
  C87      1.0000 0.67525  0.97526  0.36106  Biso   1.000  C
  C88      1.0000 0.71824  0.97060  0.34877  Biso   1.000  C
  C89      1.0000 0.73586  0.03197  0.28661  Biso   1.000  C
  C90      1.0000 0.71049  0.09799  0.23674  Biso   1.000  C
  C91      1.0000 0.66751  0.10265  0.24903  Biso   1.000  C
  C92      1.0000 0.50261  0.11847  0.38118  Biso   1.000  C
  C93      1.0000 0.49754  0.21105  0.37946  Biso   1.000  C
  C94      1.0000 0.46021  0.24897  0.40595  Biso   1.000  C
  C95      1.0000 0.42796  0.19430  0.43416  Biso   1.000  C
  C96      1.0000 0.43305  0.10172  0.43587  Biso   1.000  C
  C97      1.0000 0.47036  0.06381  0.40939  Biso   1.000  C
  N16      1.0000 0.60534  0.04358  0.32295  Biso   1.000  N
  N17      1.0000 0.58259  0.96669  0.31866  Biso   1.000  N
  N18      1.0000 0.54451  0.98814  0.33747  Biso   1.000  N
  C98      1.0000 0.54206  0.07736  0.35511  Biso   1.000  C
  C99      1.0000 0.58156  0.11610  0.34233  Biso   1.000  C
  C100     1.0000 0.74561  0.89980  0.40510  Biso   1.000  C
  C101     1.0000 0.72801  0.16042  0.16284  Biso   1.000  C
  C102     1.0000 0.38788  0.23340  0.46910  Biso   1.000  C
  Tb7      1.0000 0.18948  0.79455  0.96936  Biso   1.000  Tb
  O37      1.0000 0.12167  0.81170  0.04480  Biso   1.000  O
  O38      1.0000 0.13583  0.68290  0.98580  Biso   1.000  O
  O39      1.0000 0.79555  0.72390  0.37120  Biso   1.000  O
  O40      1.0000 0.73482  0.64510  0.35690  Biso   1.000  O
  O41      1.0000 0.77052  0.33280  0.06020  Biso   1.000  O
  O42      1.0000 0.71508  0.41460  0.08300  Biso   1.000  O
  C103     1.0000 0.85011  0.54128  0.18881  Biso   1.000  C
  C104     1.0000 0.82475  0.47526  0.13894  Biso   1.000  C
  C105     1.0000 0.78176  0.47060  0.15123  Biso   1.000  C
  C106     1.0000 0.76414  0.53197  0.21339  Biso   1.000  C
  C107     1.0000 0.78951  0.59799  0.26326  Biso   1.000  C
  C108     1.0000 0.83249  0.60265  0.25097  Biso   1.000  C
  C109     1.0000 0.99739  0.61847  0.11882  Biso   1.000  C
  C110     1.0000 0.00246  0.71105  0.12054  Biso   1.000  C
  C111     1.0000 0.03979  0.74897  0.09405  Biso   1.000  C
  C112     1.0000 0.07204  0.69430  0.06584  Biso   1.000  C
  C113     1.0000 0.06695  0.60172  0.06413  Biso   1.000  C
  C114     1.0000 0.02964  0.56381  0.09061  Biso   1.000  C
  N19      1.0000 0.89466  0.54358  0.17705  Biso   1.000  N
  N20      1.0000 0.91741  0.46669  0.18134  Biso   1.000  N
  N21      1.0000 0.95549  0.48814  0.16253  Biso   1.000  N
  C115     1.0000 0.95794  0.57736  0.14489  Biso   1.000  C
  C116     1.0000 0.91844  0.61610  0.15767  Biso   1.000  C
  C117     1.0000 0.75439  0.39980  0.09490  Biso   1.000  C
  C118     1.0000 0.77199  0.66042  0.33716  Biso   1.000  C
  C119     1.0000 0.11212  0.73340  0.03090  Biso   1.000  C
  Tb8      1.0000 0.68948  0.29455  0.96936  Biso   1.000  Tb
  O43      1.0000 0.62167  0.31170  0.04480  Biso   1.000  O
  O44      1.0000 0.63583  0.18290  0.98580  Biso   1.000  O
  O45      1.0000 0.29555  0.22390  0.37120  Biso   1.000  O
  O46      1.0000 0.23482  0.14510  0.35690  Biso   1.000  O
  O47      1.0000 0.27052  0.83280  0.06020  Biso   1.000  O
  O48      1.0000 0.21508  0.91460  0.08300  Biso   1.000  O
  C120     1.0000 0.35011  0.04128  0.18881  Biso   1.000  C
  C121     1.0000 0.32475  0.97526  0.13894  Biso   1.000  C
  C122     1.0000 0.28176  0.97060  0.15123  Biso   1.000  C
  C123     1.0000 0.26414  0.03197  0.21339  Biso   1.000  C
  C124     1.0000 0.28951  0.09799  0.26326  Biso   1.000  C
  C125     1.0000 0.33249  0.10265  0.25097  Biso   1.000  C
  C126     1.0000 0.49739  0.11847  0.11882  Biso   1.000  C
  C127     1.0000 0.50246  0.21105  0.12054  Biso   1.000  C
  C128     1.0000 0.53979  0.24897  0.09405  Biso   1.000  C
  C129     1.0000 0.57204  0.19430  0.06584  Biso   1.000  C
  C130     1.0000 0.56695  0.10172  0.06413  Biso   1.000  C
  C131     1.0000 0.52964  0.06381  0.09061  Biso   1.000  C
  N22      1.0000 0.39466  0.04358  0.17705  Biso   1.000  N
  N23      1.0000 0.41741  0.96669  0.18134  Biso   1.000  N
  N24      1.0000 0.45549  0.98814  0.16253  Biso   1.000  N
  C132     1.0000 0.45794  0.07736  0.14489  Biso   1.000  C
  C133     1.0000 0.41844  0.11610  0.15767  Biso   1.000  C
  C134     1.0000 0.25439  0.89980  0.09490  Biso   1.000  C
  C135     1.0000 0.27199  0.16042  0.33716  Biso   1.000  C
  C136     1.0000 0.61212  0.23340  0.03090  Biso   1.000  C
