data_image0
_cell_length_a       10.104
_cell_length_b       10.81
_cell_length_c       10.993
_cell_angle_alpha    90
_cell_angle_beta     90
_cell_angle_gamma    90

_symmetry_space_group_name_H-M    "P 1"
_symmetry_int_tables_number       1

loop_
  _symmetry_equiv_pos_as_xyz
  'x, y, z'

loop_
  _atom_site_label
  _atom_site_occupancy
  _atom_site_fract_x
  _atom_site_fract_y
  _atom_site_fract_z
  _atom_site_thermal_displace_type
  _atom_site_B_iso_or_equiv
  _atom_site_type_symbol
  O1       1.0000 0.20019  0.02758  0.54562  Biso   1.000  O
  O2       1.0000 0.55340  0.65758  0.26820  Biso   1.000  O
  O3       1.0000 0.30965  0.69153  0.22555  Biso   1.000  O
  O4       1.0000 0.19918  0.02642  0.31719  Biso   1.000  O
  O5       1.0000 0.99166  0.97590  0.42845  Biso   1.000  O
  O6       1.0000 0.46362  0.86834  0.27610  Biso   1.000  O
  P1       1.0000 0.14181  0.97025  0.43213  Biso   1.000  P
  P2       1.0000 0.43154  0.73320  0.29475  Biso   1.000  P
  Co1      1.0000 0.35445  0.00184  0.21405  Biso   1.000  Co
  H1       1.0000 0.16800  0.84690  0.43400  Biso   1.000  H
  H2       1.0000 0.40500  0.72300  0.41660  Biso   1.000  H
  O7       1.0000 0.29981  0.97242  0.04562  Biso   1.000  O
  O8       1.0000 0.94660  0.34242  0.76820  Biso   1.000  O
  O9       1.0000 0.19035  0.30847  0.72555  Biso   1.000  O
  O10      1.0000 0.30082  0.97358  0.81719  Biso   1.000  O
  O11      1.0000 0.50834  0.02410  0.92845  Biso   1.000  O
  O12      1.0000 0.03638  0.13166  0.77610  Biso   1.000  O
  P3       1.0000 0.35819  0.02975  0.93213  Biso   1.000  P
  P4       1.0000 0.06846  0.26680  0.79475  Biso   1.000  P
  Co2      1.0000 0.14555  0.99816  0.71405  Biso   1.000  Co
  H3       1.0000 0.33200  0.15310  0.93400  Biso   1.000  H
  H4       1.0000 0.09500  0.27700  0.91660  Biso   1.000  H
  O13      1.0000 0.79981  0.52758  0.95438  Biso   1.000  O
  O14      1.0000 0.44660  0.15758  0.23180  Biso   1.000  O
  O15      1.0000 0.69035  0.19153  0.27445  Biso   1.000  O
  O16      1.0000 0.80082  0.52642  0.18281  Biso   1.000  O
  O17      1.0000 0.00834  0.47590  0.07155  Biso   1.000  O
  O18      1.0000 0.53638  0.36834  0.22390  Biso   1.000  O
  P5       1.0000 0.85819  0.47025  0.06787  Biso   1.000  P
  P6       1.0000 0.56846  0.23320  0.20525  Biso   1.000  P
  Co3      1.0000 0.64555  0.50184  0.28595  Biso   1.000  Co
  H5       1.0000 0.83200  0.34690  0.06600  Biso   1.000  H
  H6       1.0000 0.59500  0.22300  0.08340  Biso   1.000  H
  O19      1.0000 0.70019  0.47242  0.45438  Biso   1.000  O
  O20      1.0000 0.05340  0.84242  0.73180  Biso   1.000  O
  O21      1.0000 0.80965  0.80847  0.77445  Biso   1.000  O
  O22      1.0000 0.69918  0.47358  0.68281  Biso   1.000  O
  O23      1.0000 0.49166  0.52410  0.57155  Biso   1.000  O
  O24      1.0000 0.96362  0.63166  0.72390  Biso   1.000  O
  P7       1.0000 0.64181  0.52975  0.56787  Biso   1.000  P
  P8       1.0000 0.93154  0.76680  0.70525  Biso   1.000  P
  Co4      1.0000 0.85445  0.49816  0.78595  Biso   1.000  Co
  H7       1.0000 0.66800  0.65310  0.56600  Biso   1.000  H
  H8       1.0000 0.90500  0.77700  0.58340  Biso   1.000  H
