data_image0
_cell_length_a       19.758
_cell_length_b       7.228
_cell_length_c       17.53
_cell_angle_alpha    90
_cell_angle_beta     90
_cell_angle_gamma    90

_symmetry_space_group_name_H-M    "P 1"
_symmetry_int_tables_number       1

loop_
  _symmetry_equiv_pos_as_xyz
  'x, y, z'

loop_
  _atom_site_label
  _atom_site_occupancy
  _atom_site_fract_x
  _atom_site_fract_y
  _atom_site_fract_z
  _atom_site_thermal_displace_type
  _atom_site_B_iso_or_equiv
  _atom_site_type_symbol
  N1       1.0000 0.05600  0.09710  0.32190  Biso   1.000  N
  N2       1.0000 0.03940  0.16110  0.39100  Biso   1.000  N
  C1       1.0000 0.12670  0.10100  0.17190  Biso   1.000  C
  C2       1.0000 0.06180  0.12100  0.15030  Biso   1.000  C
  C3       1.0000 0.07800  0.12900  0.07200  Biso   1.000  C
  C4       1.0000 0.14430  0.10100  0.09340  Biso   1.000  C
  N3       1.0000 0.44400  0.90290  0.82190  Biso   1.000  N
  N4       1.0000 0.46060  0.83890  0.89100  Biso   1.000  N
  C5       1.0000 0.37330  0.89900  0.67190  Biso   1.000  C
  C6       1.0000 0.43820  0.87900  0.65030  Biso   1.000  C
  C7       1.0000 0.42200  0.87100  0.57200  Biso   1.000  C
  C8       1.0000 0.35570  0.89900  0.59340  Biso   1.000  C
  N5       1.0000 0.94400  0.59710  0.67810  Biso   1.000  N
  N6       1.0000 0.96060  0.66110  0.60900  Biso   1.000  N
  C9       1.0000 0.87330  0.60100  0.82810  Biso   1.000  C
  C10      1.0000 0.93820  0.62100  0.84970  Biso   1.000  C
  C11      1.0000 0.92200  0.62900  0.92800  Biso   1.000  C
  C12      1.0000 0.85570  0.60100  0.90660  Biso   1.000  C
  N7       1.0000 0.55600  0.40290  0.17810  Biso   1.000  N
  N8       1.0000 0.53940  0.33890  0.10900  Biso   1.000  N
  C13      1.0000 0.62670  0.39900  0.32810  Biso   1.000  C
  C14      1.0000 0.56180  0.37900  0.34970  Biso   1.000  C
  C15      1.0000 0.57800  0.37100  0.42800  Biso   1.000  C
  C16      1.0000 0.64430  0.39900  0.40660  Biso   1.000  C
  N9       1.0000 0.94400  0.90290  0.67810  Biso   1.000  N
  N10      1.0000 0.96060  0.83890  0.60900  Biso   1.000  N
  C17      1.0000 0.87330  0.89900  0.82810  Biso   1.000  C
  C18      1.0000 0.93820  0.87900  0.84970  Biso   1.000  C
  C19      1.0000 0.92200  0.87100  0.92800  Biso   1.000  C
  C20      1.0000 0.85570  0.89900  0.90660  Biso   1.000  C
  N11      1.0000 0.55600  0.09710  0.17810  Biso   1.000  N
  N12      1.0000 0.53940  0.16110  0.10900  Biso   1.000  N
  C21      1.0000 0.62670  0.10100  0.32810  Biso   1.000  C
  C22      1.0000 0.56180  0.12100  0.34970  Biso   1.000  C
  C23      1.0000 0.57800  0.12900  0.42800  Biso   1.000  C
  C24      1.0000 0.64430  0.10100  0.40660  Biso   1.000  C
  N13      1.0000 0.05600  0.40290  0.32190  Biso   1.000  N
  N14      1.0000 0.03940  0.33890  0.39100  Biso   1.000  N
  C25      1.0000 0.12670  0.39900  0.17190  Biso   1.000  C
  C26      1.0000 0.06180  0.37900  0.15030  Biso   1.000  C
  C27      1.0000 0.07800  0.37100  0.07200  Biso   1.000  C
  C28      1.0000 0.14430  0.39900  0.09340  Biso   1.000  C
  N15      1.0000 0.44400  0.59710  0.82190  Biso   1.000  N
  N16      1.0000 0.46060  0.66110  0.89100  Biso   1.000  N
  C29      1.0000 0.37330  0.60100  0.67190  Biso   1.000  C
  C30      1.0000 0.43820  0.62100  0.65030  Biso   1.000  C
  C31      1.0000 0.42200  0.62900  0.57200  Biso   1.000  C
  C32      1.0000 0.35570  0.60100  0.59340  Biso   1.000  C
  Cd1      1.0000 0.44007  0.25000  0.81937  Biso   1.000  Cd
  O1       1.0000 0.34750  0.25000  0.90470  Biso   1.000  O
  O2       1.0000 0.32580  0.25000  0.78230  Biso   1.000  O
  O3       1.0000 0.00370  0.25000  0.78260  Biso   1.000  O
  O4       1.0000 0.08550  0.25000  0.69800  Biso   1.000  O
  C33      1.0000 0.06580  0.25000  0.28050  Biso   1.000  C
  C34      1.0000 0.30570  0.25000  0.85010  Biso   1.000  C
  C35      1.0000 0.23140  0.25000  0.86910  Biso   1.000  C
  C36      1.0000 0.21050  0.25000  0.94440  Biso   1.000  C
  H1       1.0000 0.24260  0.25000  0.98320  Biso   1.000  H
  C37      1.0000 0.14220  0.25000  0.96280  Biso   1.000  C
  C38      1.0000 0.12070  0.25000  0.04410  Biso   1.000  C
  C39      1.0000 0.06510  0.25000  0.76370  Biso   1.000  C
  C40      1.0000 0.11690  0.25000  0.82920  Biso   1.000  C
  C41      1.0000 0.09650  0.25000  0.90350  Biso   1.000  C
  H2       1.0000 0.05040  0.25000  0.91450  Biso   1.000  H
  C42      1.0000 0.18370  0.25000  0.81070  Biso   1.000  C
  H3       1.0000 0.19730  0.25000  0.76000  Biso   1.000  H
  C43      1.0000 0.08480  0.25000  0.19870  Biso   1.000  C
  O5       1.0000 0.50090  0.25000  0.92800  Biso   1.000  O
  Cd2      1.0000 0.05993  0.75000  0.31937  Biso   1.000  Cd
  O6       1.0000 0.15250  0.75000  0.40470  Biso   1.000  O
  O7       1.0000 0.17420  0.75000  0.28230  Biso   1.000  O
  O8       1.0000 0.49630  0.75000  0.28260  Biso   1.000  O
  O9       1.0000 0.41450  0.75000  0.19800  Biso   1.000  O
  C44      1.0000 0.43420  0.75000  0.78050  Biso   1.000  C
  C45      1.0000 0.19430  0.75000  0.35010  Biso   1.000  C
  C46      1.0000 0.26860  0.75000  0.36910  Biso   1.000  C
  C47      1.0000 0.28950  0.75000  0.44440  Biso   1.000  C
  H4       1.0000 0.25740  0.75000  0.48320  Biso   1.000  H
  C48      1.0000 0.35780  0.75000  0.46280  Biso   1.000  C
  C49      1.0000 0.37930  0.75000  0.54410  Biso   1.000  C
  C50      1.0000 0.43490  0.75000  0.26370  Biso   1.000  C
  C51      1.0000 0.38310  0.75000  0.32920  Biso   1.000  C
  C52      1.0000 0.40350  0.75000  0.40350  Biso   1.000  C
  H5       1.0000 0.44960  0.75000  0.41450  Biso   1.000  H
  C53      1.0000 0.31630  0.75000  0.31070  Biso   1.000  C
  H6       1.0000 0.30270  0.75000  0.26000  Biso   1.000  H
  C54      1.0000 0.41520  0.75000  0.69870  Biso   1.000  C
  O10      1.0000 0.99910  0.75000  0.42800  Biso   1.000  O
  Cd3      1.0000 0.55993  0.75000  0.18063  Biso   1.000  Cd
  O11      1.0000 0.65250  0.75000  0.09530  Biso   1.000  O
  O12      1.0000 0.67420  0.75000  0.21770  Biso   1.000  O
  O13      1.0000 0.99630  0.75000  0.21740  Biso   1.000  O
  O14      1.0000 0.91450  0.75000  0.30200  Biso   1.000  O
  C55      1.0000 0.93420  0.75000  0.71950  Biso   1.000  C
  C56      1.0000 0.69430  0.75000  0.14990  Biso   1.000  C
  C57      1.0000 0.76860  0.75000  0.13090  Biso   1.000  C
  C58      1.0000 0.78950  0.75000  0.05560  Biso   1.000  C
  H7       1.0000 0.75740  0.75000  0.01680  Biso   1.000  H
  C59      1.0000 0.85780  0.75000  0.03720  Biso   1.000  C
  C60      1.0000 0.87930  0.75000  0.95590  Biso   1.000  C
  C61      1.0000 0.93490  0.75000  0.23630  Biso   1.000  C
  C62      1.0000 0.88310  0.75000  0.17080  Biso   1.000  C
  C63      1.0000 0.90350  0.75000  0.09650  Biso   1.000  C
  H8       1.0000 0.94960  0.75000  0.08550  Biso   1.000  H
  C64      1.0000 0.81630  0.75000  0.18930  Biso   1.000  C
  H9       1.0000 0.80270  0.75000  0.24000  Biso   1.000  H
  C65      1.0000 0.91520  0.75000  0.80130  Biso   1.000  C
  O15      1.0000 0.49910  0.75000  0.07200  Biso   1.000  O
  Cd4      1.0000 0.94007  0.25000  0.68063  Biso   1.000  Cd
  O16      1.0000 0.84750  0.25000  0.59530  Biso   1.000  O
  O17      1.0000 0.82580  0.25000  0.71770  Biso   1.000  O
  O18      1.0000 0.50370  0.25000  0.71740  Biso   1.000  O
  O19      1.0000 0.58550  0.25000  0.80200  Biso   1.000  O
  C66      1.0000 0.56580  0.25000  0.21950  Biso   1.000  C
  C67      1.0000 0.80570  0.25000  0.64990  Biso   1.000  C
  C68      1.0000 0.73140  0.25000  0.63090  Biso   1.000  C
  C69      1.0000 0.71050  0.25000  0.55560  Biso   1.000  C
  H10      1.0000 0.74260  0.25000  0.51680  Biso   1.000  H
  C70      1.0000 0.64220  0.25000  0.53720  Biso   1.000  C
  C71      1.0000 0.62070  0.25000  0.45590  Biso   1.000  C
  C72      1.0000 0.56510  0.25000  0.73630  Biso   1.000  C
  C73      1.0000 0.61690  0.25000  0.67080  Biso   1.000  C
  C74      1.0000 0.59650  0.25000  0.59650  Biso   1.000  C
  H11      1.0000 0.55040  0.25000  0.58550  Biso   1.000  H
  C75      1.0000 0.68370  0.25000  0.68930  Biso   1.000  C
  H12      1.0000 0.69730  0.25000  0.74000  Biso   1.000  H
  C76      1.0000 0.58480  0.25000  0.30130  Biso   1.000  C
  O20      1.0000 0.00090  0.25000  0.57200  Biso   1.000  O
  Cd5      1.0000 0.50000  0.50000  0.00000  Biso   1.000  Cd
  Cd6      1.0000 0.00000  0.50000  0.50000  Biso   1.000  Cd
  Cd7      1.0000 0.50000  0.00000  0.00000  Biso   1.000  Cd
  Cd8      1.0000 0.00000  0.00000  0.50000  Biso   1.000  Cd
