data_CUVGOQ_clean
_audit_creation_date              2014-07-02
_audit_creation_method            'Materials Studio'
_symmetry_space_group_name_H-M    'P1'
_symmetry_Int_Tables_number       1
_symmetry_cell_setting            triclinic
loop_
_symmetry_equiv_pos_as_xyz
  x,y,z
_cell_length_a                    5.6153
_cell_length_b                    9.3336
_cell_length_c                    13.3398
_cell_angle_alpha                 106.0300
_cell_angle_beta                  93.6110
_cell_angle_gamma                 102.0500
loop_
_atom_site_label
_atom_site_type_symbol
_atom_site_fract_x
_atom_site_fract_y
_atom_site_fract_z
_atom_site_U_iso_or_equiv
_atom_site_adp_type
_atom_site_occupancy
Mn1    Mn    0.00000   0.00000   0.00000   0.01267  Uiso   1.00
H1     H     0.69900   0.43200   0.51400   0.01267  Uiso   1.00
H2     H     0.59400   0.39370   0.92960   0.01267  Uiso   1.00
H3     H     0.23970   0.35090   0.04970   0.01267  Uiso   1.00
H4     H     0.57560   0.91890   0.79990   0.01267  Uiso   1.00
H5     H     0.42590   0.74690   0.63830   0.01267  Uiso   1.00
H6     H     0.00200   0.56240   0.66090   0.01267  Uiso   1.00
H7     H     0.14080   0.74460   0.81870   0.01267  Uiso   1.00
H8     H     0.30100   0.56800   0.48600   0.01267  Uiso   1.00
H9     H     0.40600   0.60630   0.07040   0.01267  Uiso   1.00
H10    H     0.76030   0.64910   0.95030   0.01267  Uiso   1.00
H11    H     0.42440   0.08110   0.20010   0.01267  Uiso   1.00
H12    H     0.57410   0.25310   0.36170   0.01267  Uiso   1.00
H13    H     0.99800   0.43760   0.33910   0.01267  Uiso   1.00
H14    H     0.85920   0.25540   0.18130   0.01267  Uiso   1.00
C1     C     0.56060   0.14230   0.96230   0.01267  Uiso   1.00
C2     C     0.89710   0.34330   0.98760   0.01267  Uiso   1.00
C3     C     0.75760   0.43600   0.95810   0.01267  Uiso   1.00
C4     C     0.14240   0.41020   0.02960   0.01267  Uiso   1.00
C5     C     0.66240   0.84580   0.77160   0.01267  Uiso   1.00
C6     C     0.56920   0.74160   0.67450   0.01267  Uiso   1.00
C7     C     0.69160   0.62830   0.63120   0.01267  Uiso   1.00
C8     C     0.60150   0.50730   0.53110   0.01267  Uiso   1.00
C9     C     0.91040   0.63330   0.68760   0.01267  Uiso   1.00
C10    C     0.99220   0.74320   0.78300   0.01267  Uiso   1.00
C11    C     0.43940   0.85770   0.03770   0.01267  Uiso   1.00
C12    C     0.10290   0.65670   0.01240   0.01267  Uiso   1.00
C13    C     0.24240   0.56400   0.04190   0.01267  Uiso   1.00
C14    C     0.85760   0.58980   0.97040   0.01267  Uiso   1.00
C15    C     0.33760   0.15420   0.22840   0.01267  Uiso   1.00
C16    C     0.43080   0.25840   0.32550   0.01267  Uiso   1.00
C17    C     0.30840   0.37170   0.36880   0.01267  Uiso   1.00
C18    C     0.39850   0.49270   0.46890   0.01267  Uiso   1.00
C19    C     0.08960   0.36670   0.31240   0.01267  Uiso   1.00
C20    C     0.00780   0.25680   0.21700   0.01267  Uiso   1.00
N1     N     0.34490   0.09630   0.94900   0.01267  Uiso   1.00
N2     N     0.79890   0.18510   0.97620   0.01267  Uiso   1.00
N3     N     0.87030   0.84800   0.82750   0.01267  Uiso   1.00
N4     N     0.65510   0.90370   0.05100   0.01267  Uiso   1.00
N5     N     0.20110   0.81490   0.02380   0.01267  Uiso   1.00
N6     N     0.12970   0.15200   0.17250   0.01267  Uiso   1.00
