data_CUVGIK_clean
_audit_creation_date              2014-07-02
_audit_creation_method            'Materials Studio'
_symmetry_space_group_name_H-M    'P1'
_symmetry_Int_Tables_number       1
_symmetry_cell_setting            triclinic
loop_
_symmetry_equiv_pos_as_xyz
  x,y,z
_cell_length_a                    5.5655
_cell_length_b                    9.3702
_cell_length_c                    11.7543
_cell_angle_alpha                 94.3210
_cell_angle_beta                  96.7340
_cell_angle_gamma                 100.8370
loop_
_atom_site_label
_atom_site_type_symbol
_atom_site_fract_x
_atom_site_fract_y
_atom_site_fract_z
_atom_site_U_iso_or_equiv
_atom_site_adp_type
_atom_site_occupancy
Mn1    Mn    0.00000   0.00000   0.00000   0.01267  Uiso   1.00
H1     H     0.18060   0.32450   0.91320   0.01267  Uiso   1.00
H2     H     0.34500   0.56880   0.90990   0.01267  Uiso   1.00
H3     H     0.28860   0.91290   0.79110   0.01267  Uiso   1.00
H4     H     0.28060   0.89840   0.59610   0.01267  Uiso   1.00
H5     H     0.74870   0.11570   0.77490   0.01267  Uiso   1.00
H6     H     0.73140   0.11260   0.58000   0.01267  Uiso   1.00
H7     H     0.81940   0.67550   0.08680   0.01267  Uiso   1.00
H8     H     0.65500   0.43120   0.09010   0.01267  Uiso   1.00
H9     H     0.71140   0.08710   0.20890   0.01267  Uiso   1.00
H10    H     0.71940   0.10160   0.40390   0.01267  Uiso   1.00
H11    H     0.25130   0.88430   0.22510   0.01267  Uiso   1.00
H12    H     0.26860   0.88740   0.42000   0.01267  Uiso   1.00
C1     C     0.10730   0.39440   0.94825   0.01267  Uiso   1.00
C2     C     0.57270   0.16640   0.02026   0.01267  Uiso   1.00
C3     C     0.20610   0.54170   0.94623   0.01267  Uiso   1.00
C4     C     0.00350   0.00300   0.56320   0.01267  Uiso   1.00
C5     C     0.89900   0.35030   0.00237   0.01267  Uiso   1.00
C6     C     0.17020   0.95210   0.74810   0.01267  Uiso   1.00
C7     C     0.16850   0.94410   0.62990   0.01267  Uiso   1.00
C8     C     0.85850   0.07020   0.73890   0.01267  Uiso   1.00
C9     C     0.84650   0.06880   0.62070   0.01267  Uiso   1.00
C10    C     0.89270   0.60560   0.05175   0.01267  Uiso   1.00
C11    C     0.42730   0.83360   0.97974   0.01267  Uiso   1.00
C12    C     0.79390   0.45830   0.05377   0.01267  Uiso   1.00
C13    C     0.99650   0.99700   0.43680   0.01267  Uiso   1.00
C14    C     0.10100   0.64970   0.99763   0.01267  Uiso   1.00
C15    C     0.82980   0.04790   0.25190   0.01267  Uiso   1.00
C16    C     0.83150   0.05590   0.37010   0.01267  Uiso   1.00
C17    C     0.14150   0.92980   0.26110   0.01267  Uiso   1.00
C18    C     0.15350   0.93120   0.37930   0.01267  Uiso   1.00
N1     N     0.01470   0.01160   0.80387   0.01267  Uiso   1.00
N2     N     0.36760   0.13198   0.03802   0.01267  Uiso   1.00
N3     N     0.80040   0.19800   0.00188   0.01267  Uiso   1.00
N4     N     0.98530   0.98840   0.19613   0.01267  Uiso   1.00
N5     N     0.63240   0.86802   0.96198   0.01267  Uiso   1.00
N6     N     0.19960   0.80200   0.99812   0.01267  Uiso   1.00
