data_image0
_cell_length_a       36.405
_cell_length_b       36.405
_cell_length_c       11.6941
_cell_angle_alpha    90
_cell_angle_beta     90
_cell_angle_gamma    120

_symmetry_space_group_name_H-M    "P 1"
_symmetry_int_tables_number       1

loop_
  _symmetry_equiv_pos_as_xyz
  'x, y, z'

loop_
  _atom_site_label
  _atom_site_occupancy
  _atom_site_fract_x
  _atom_site_fract_y
  _atom_site_fract_z
  _atom_site_thermal_displace_type
  _atom_site_B_iso_or_equiv
  _atom_site_type_symbol
  Nd1      1.0000 0.37974  0.14983  0.67494  Biso   1.000  Nd
  O1       1.0000 0.41056  0.22510  0.62780  Biso   1.000  O
  O2       1.0000 0.35941  0.24258  0.63790  Biso   1.000  O
  O3       1.0000 0.44794  0.40512  0.80660  Biso   1.000  O
  O4       1.0000 0.51227  0.41441  0.81660  Biso   1.000  O
  O5       1.0000 0.34083  0.17450  0.78850  Biso   1.000  O
  O6       1.0000 0.29830  0.19050  0.87770  Biso   1.000  O
  C1       1.0000 0.39655  0.25026  0.62350  Biso   1.000  C
  C2       1.0000 0.42751  0.29674  0.59830  Biso   1.000  C
  C3       1.0000 0.44286  0.32557  0.68850  Biso   1.000  C
  C4       1.0000 0.46549  0.36912  0.66880  Biso   1.000  C
  C5       1.0000 0.47670  0.39922  0.77010  Biso   1.000  C
  C6       1.0000 0.47359  0.38358  0.55620  Biso   1.000  C
  C7       1.0000 0.46040  0.35590  0.46150  Biso   1.000  C
  C8       1.0000 0.43724  0.31199  0.48710  Biso   1.000  C
  C9       1.0000 0.32760  0.18240  0.87680  Biso   1.000  C
  N1       1.0000 0.46850  0.37037  0.35120  Biso   1.000  N
  I1       1.0000 0.43329  0.30190  0.85625  Biso   1.000  I
  I2       1.0000 0.50627  0.44923  0.52525  Biso   1.000  I
  I3       1.0000 0.41719  0.26810  0.35274  Biso   1.000  I
  Nd2      1.0000 0.04641  0.48317  0.00827  Biso   1.000  Nd
  O7       1.0000 0.07723  0.55843  0.96113  Biso   1.000  O
  O8       1.0000 0.02608  0.57591  0.97123  Biso   1.000  O
  O9       1.0000 0.11461  0.73845  0.13993  Biso   1.000  O
  O10      1.0000 0.17894  0.74774  0.14993  Biso   1.000  O
  O11      1.0000 0.00750  0.50783  0.12183  Biso   1.000  O
  O12      1.0000 0.96497  0.52383  0.21103  Biso   1.000  O
  C10      1.0000 0.06322  0.58359  0.95683  Biso   1.000  C
  C11      1.0000 0.09418  0.63007  0.93163  Biso   1.000  C
  C12      1.0000 0.10953  0.65890  0.02183  Biso   1.000  C
  C13      1.0000 0.13216  0.70245  0.00213  Biso   1.000  C
  C14      1.0000 0.14337  0.73255  0.10343  Biso   1.000  C
  C15      1.0000 0.14026  0.71691  0.88953  Biso   1.000  C
  C16      1.0000 0.12707  0.68923  0.79483  Biso   1.000  C
  C17      1.0000 0.10391  0.64532  0.82043  Biso   1.000  C
  C18      1.0000 0.99427  0.51573  0.21013  Biso   1.000  C
  N2       1.0000 0.13517  0.70370  0.68453  Biso   1.000  N
  I4       1.0000 0.09996  0.63523  0.18958  Biso   1.000  I
  I5       1.0000 0.17294  0.78256  0.85858  Biso   1.000  I
  I6       1.0000 0.08386  0.60144  0.68607  Biso   1.000  I
  Nd3      1.0000 0.71307  0.81650  0.34161  Biso   1.000  Nd
  O13      1.0000 0.74389  0.89177  0.29447  Biso   1.000  O
  O14      1.0000 0.69274  0.90925  0.30457  Biso   1.000  O
  O15      1.0000 0.78127  0.07179  0.47327  Biso   1.000  O
  O16      1.0000 0.84560  0.08108  0.48327  Biso   1.000  O
  O17      1.0000 0.67416  0.84117  0.45517  Biso   1.000  O
  O18      1.0000 0.63163  0.85717  0.54437  Biso   1.000  O
  C19      1.0000 0.72988  0.91693  0.29017  Biso   1.000  C
  C20      1.0000 0.76084  0.96341  0.26497  Biso   1.000  C
  C21      1.0000 0.77619  0.99224  0.35517  Biso   1.000  C
  C22      1.0000 0.79882  0.03579  0.33547  Biso   1.000  C
  C23      1.0000 0.81003  0.06589  0.43677  Biso   1.000  C
  C24      1.0000 0.80692  0.05025  0.22287  Biso   1.000  C
  C25      1.0000 0.79373  0.02257  0.12817  Biso   1.000  C
  C26      1.0000 0.77057  0.97866  0.15377  Biso   1.000  C
  C27      1.0000 0.66093  0.84907  0.54347  Biso   1.000  C
  N3       1.0000 0.80183  0.03704  0.01787  Biso   1.000  N
  I7       1.0000 0.76662  0.96856  0.52292  Biso   1.000  I
  I8       1.0000 0.83961  0.11589  0.19192  Biso   1.000  I
  I9       1.0000 0.75052  0.93477  0.01941  Biso   1.000  I
  Nd4      1.0000 0.85017  0.22990  0.67494  Biso   1.000  Nd
  O19      1.0000 0.77490  0.18546  0.62780  Biso   1.000  O
  O20      1.0000 0.75742  0.11683  0.63790  Biso   1.000  O
  O21      1.0000 0.59488  0.04282  0.80660  Biso   1.000  O
  O22      1.0000 0.58559  0.09786  0.81660  Biso   1.000  O
  O23      1.0000 0.82550  0.16633  0.78850  Biso   1.000  O
  O24      1.0000 0.80950  0.10780  0.87770  Biso   1.000  O
  C28      1.0000 0.74974  0.14629  0.62350  Biso   1.000  C
  C29      1.0000 0.70326  0.13077  0.59830  Biso   1.000  C
  C30      1.0000 0.67443  0.11729  0.68850  Biso   1.000  C
  C31      1.0000 0.63088  0.09637  0.66880  Biso   1.000  C
  C32      1.0000 0.60078  0.07748  0.77010  Biso   1.000  C
  C33      1.0000 0.61642  0.09001  0.55620  Biso   1.000  C
  C34      1.0000 0.64410  0.10450  0.46150  Biso   1.000  C
  C35      1.0000 0.68801  0.12525  0.48710  Biso   1.000  C
  C36      1.0000 0.81760  0.14520  0.87680  Biso   1.000  C
  N4       1.0000 0.62963  0.09813  0.35120  Biso   1.000  N
  I10      1.0000 0.69810  0.13139  0.85625  Biso   1.000  I
  I11      1.0000 0.55077  0.05705  0.52525  Biso   1.000  I
  I12      1.0000 0.73190  0.14909  0.35274  Biso   1.000  I
  Nd5      1.0000 0.51683  0.56324  0.00827  Biso   1.000  Nd
  O25      1.0000 0.44157  0.51879  0.96113  Biso   1.000  O
  O26      1.0000 0.42409  0.45016  0.97123  Biso   1.000  O
  O27      1.0000 0.26155  0.37615  0.13993  Biso   1.000  O
  O28      1.0000 0.25226  0.43119  0.14993  Biso   1.000  O
  O29      1.0000 0.49217  0.49966  0.12183  Biso   1.000  O
  O30      1.0000 0.47617  0.44113  0.21103  Biso   1.000  O
  C37      1.0000 0.41641  0.47962  0.95683  Biso   1.000  C
  C38      1.0000 0.36993  0.46410  0.93163  Biso   1.000  C
  C39      1.0000 0.34110  0.45062  0.02183  Biso   1.000  C
  C40      1.0000 0.29755  0.42970  0.00213  Biso   1.000  C
  C41      1.0000 0.26745  0.41081  0.10343  Biso   1.000  C
  C42      1.0000 0.28309  0.42334  0.88953  Biso   1.000  C
  C43      1.0000 0.31077  0.43783  0.79483  Biso   1.000  C
  C44      1.0000 0.35468  0.45858  0.82043  Biso   1.000  C
  C45      1.0000 0.48427  0.47853  0.21013  Biso   1.000  C
  N5       1.0000 0.29630  0.43146  0.68453  Biso   1.000  N
  I13      1.0000 0.36477  0.46473  0.18958  Biso   1.000  I
  I14      1.0000 0.21744  0.39038  0.85858  Biso   1.000  I
  I15      1.0000 0.39856  0.48242  0.68607  Biso   1.000  I
  Nd6      1.0000 0.18350  0.89657  0.34161  Biso   1.000  Nd
  O31      1.0000 0.10823  0.85213  0.29447  Biso   1.000  O
  O32      1.0000 0.09075  0.78350  0.30457  Biso   1.000  O
  O33      1.0000 0.92821  0.70949  0.47327  Biso   1.000  O
  O34      1.0000 0.91892  0.76453  0.48327  Biso   1.000  O
  O35      1.0000 0.15883  0.83300  0.45517  Biso   1.000  O
  O36      1.0000 0.14283  0.77447  0.54437  Biso   1.000  O
  C46      1.0000 0.08307  0.81296  0.29017  Biso   1.000  C
  C47      1.0000 0.03659  0.79744  0.26497  Biso   1.000  C
  C48      1.0000 0.00776  0.78396  0.35517  Biso   1.000  C
  C49      1.0000 0.96421  0.76304  0.33547  Biso   1.000  C
  C50      1.0000 0.93411  0.74415  0.43677  Biso   1.000  C
  C51      1.0000 0.94975  0.75668  0.22287  Biso   1.000  C
  C52      1.0000 0.97743  0.77117  0.12817  Biso   1.000  C
  C53      1.0000 0.02134  0.79192  0.15377  Biso   1.000  C
  C54      1.0000 0.15093  0.81187  0.54347  Biso   1.000  C
  N6       1.0000 0.96296  0.76480  0.01787  Biso   1.000  N
  I16      1.0000 0.03144  0.79806  0.52292  Biso   1.000  I
  I17      1.0000 0.88411  0.72371  0.19192  Biso   1.000  I
  I18      1.0000 0.06523  0.81575  0.01941  Biso   1.000  I
  Nd7      1.0000 0.77010  0.62026  0.67494  Biso   1.000  Nd
  O37      1.0000 0.81454  0.58944  0.62780  Biso   1.000  O
  O38      1.0000 0.88317  0.64059  0.63790  Biso   1.000  O
  O39      1.0000 0.95718  0.55206  0.80660  Biso   1.000  O
  O40      1.0000 0.90214  0.48773  0.81660  Biso   1.000  O
  O41      1.0000 0.83367  0.65917  0.78850  Biso   1.000  O
  O42      1.0000 0.89220  0.70170  0.87770  Biso   1.000  O
  C55      1.0000 0.85371  0.60345  0.62350  Biso   1.000  C
  C56      1.0000 0.86923  0.57249  0.59830  Biso   1.000  C
  C57      1.0000 0.88271  0.55714  0.68850  Biso   1.000  C
  C58      1.0000 0.90363  0.53451  0.66880  Biso   1.000  C
  C59      1.0000 0.92252  0.52330  0.77010  Biso   1.000  C
  C60      1.0000 0.90999  0.52641  0.55620  Biso   1.000  C
  C61      1.0000 0.89550  0.53960  0.46150  Biso   1.000  C
  C62      1.0000 0.87475  0.56276  0.48710  Biso   1.000  C
  C63      1.0000 0.85480  0.67240  0.87680  Biso   1.000  C
  N7       1.0000 0.90187  0.53150  0.35120  Biso   1.000  N
  I19      1.0000 0.86861  0.56671  0.85625  Biso   1.000  I
  I20      1.0000 0.94295  0.49373  0.52525  Biso   1.000  I
  I21      1.0000 0.85091  0.58281  0.35274  Biso   1.000  I
  Nd8      1.0000 0.43676  0.95359  0.00827  Biso   1.000  Nd
  O43      1.0000 0.48121  0.92277  0.96113  Biso   1.000  O
  O44      1.0000 0.54984  0.97392  0.97123  Biso   1.000  O
  O45      1.0000 0.62385  0.88539  0.13993  Biso   1.000  O
  O46      1.0000 0.56881  0.82106  0.14993  Biso   1.000  O
  O47      1.0000 0.50034  0.99250  0.12183  Biso   1.000  O
  O48      1.0000 0.55887  0.03503  0.21103  Biso   1.000  O
  C64      1.0000 0.52038  0.93678  0.95683  Biso   1.000  C
  C65      1.0000 0.53590  0.90582  0.93163  Biso   1.000  C
  C66      1.0000 0.54938  0.89047  0.02183  Biso   1.000  C
  C67      1.0000 0.57030  0.86784  0.00213  Biso   1.000  C
  C68      1.0000 0.58919  0.85663  0.10343  Biso   1.000  C
  C69      1.0000 0.57666  0.85974  0.88953  Biso   1.000  C
  C70      1.0000 0.56217  0.87293  0.79483  Biso   1.000  C
  C71      1.0000 0.54142  0.89609  0.82043  Biso   1.000  C
  C72      1.0000 0.52147  0.00573  0.21013  Biso   1.000  C
  N8       1.0000 0.56854  0.86483  0.68453  Biso   1.000  N
  I22      1.0000 0.53527  0.90004  0.18958  Biso   1.000  I
  I23      1.0000 0.60962  0.82706  0.85858  Biso   1.000  I
  I24      1.0000 0.51758  0.91614  0.68607  Biso   1.000  I
  Nd9      1.0000 0.10343  0.28693  0.34161  Biso   1.000  Nd
  O49      1.0000 0.14787  0.25611  0.29447  Biso   1.000  O
  O50      1.0000 0.21650  0.30726  0.30457  Biso   1.000  O
  O51      1.0000 0.29051  0.21873  0.47327  Biso   1.000  O
  O52      1.0000 0.23547  0.15440  0.48327  Biso   1.000  O
  O53      1.0000 0.16700  0.32584  0.45517  Biso   1.000  O
  O54      1.0000 0.22553  0.36837  0.54437  Biso   1.000  O
  C73      1.0000 0.18704  0.27012  0.29017  Biso   1.000  C
  C74      1.0000 0.20256  0.23916  0.26497  Biso   1.000  C
  C75      1.0000 0.21604  0.22381  0.35517  Biso   1.000  C
  C76      1.0000 0.23696  0.20118  0.33547  Biso   1.000  C
  C77      1.0000 0.25585  0.18997  0.43677  Biso   1.000  C
  C78      1.0000 0.24332  0.19308  0.22287  Biso   1.000  C
  C79      1.0000 0.22883  0.20627  0.12817  Biso   1.000  C
  C80      1.0000 0.20808  0.22943  0.15377  Biso   1.000  C
  C81      1.0000 0.18813  0.33907  0.54347  Biso   1.000  C
  N9       1.0000 0.23520  0.19817  0.01787  Biso   1.000  N
  I25      1.0000 0.20194  0.23338  0.52292  Biso   1.000  I
  I26      1.0000 0.27629  0.16039  0.19192  Biso   1.000  I
  I27      1.0000 0.18425  0.24948  0.01941  Biso   1.000  I
  Nd10     1.0000 0.62026  0.85017  0.32506  Biso   1.000  Nd
  O55      1.0000 0.58944  0.77490  0.37220  Biso   1.000  O
  O56      1.0000 0.64059  0.75742  0.36210  Biso   1.000  O
  O57      1.0000 0.55206  0.59488  0.19340  Biso   1.000  O
  O58      1.0000 0.48773  0.58559  0.18340  Biso   1.000  O
  O59      1.0000 0.65917  0.82550  0.21150  Biso   1.000  O
  O60      1.0000 0.70170  0.80950  0.12230  Biso   1.000  O
  C82      1.0000 0.60345  0.74974  0.37650  Biso   1.000  C
  C83      1.0000 0.57249  0.70326  0.40170  Biso   1.000  C
  C84      1.0000 0.55714  0.67443  0.31150  Biso   1.000  C
  C85      1.0000 0.53451  0.63088  0.33120  Biso   1.000  C
  C86      1.0000 0.52330  0.60078  0.22990  Biso   1.000  C
  C87      1.0000 0.52641  0.61642  0.44380  Biso   1.000  C
  C88      1.0000 0.53960  0.64410  0.53850  Biso   1.000  C
  C89      1.0000 0.56276  0.68801  0.51290  Biso   1.000  C
  C90      1.0000 0.67240  0.81760  0.12320  Biso   1.000  C
  N10      1.0000 0.53150  0.62963  0.64880  Biso   1.000  N
  I28      1.0000 0.56671  0.69810  0.14375  Biso   1.000  I
  I29      1.0000 0.49373  0.55077  0.47475  Biso   1.000  I
  I30      1.0000 0.58281  0.73190  0.64726  Biso   1.000  I
  Nd11     1.0000 0.28693  0.18350  0.65839  Biso   1.000  Nd
  O61      1.0000 0.25611  0.10823  0.70553  Biso   1.000  O
  O62      1.0000 0.30726  0.09075  0.69543  Biso   1.000  O
  O63      1.0000 0.21873  0.92821  0.52673  Biso   1.000  O
  O64      1.0000 0.15440  0.91892  0.51673  Biso   1.000  O
  O65      1.0000 0.32584  0.15883  0.54483  Biso   1.000  O
  O66      1.0000 0.36837  0.14283  0.45563  Biso   1.000  O
  C91      1.0000 0.27012  0.08307  0.70983  Biso   1.000  C
  C92      1.0000 0.23916  0.03659  0.73503  Biso   1.000  C
  C93      1.0000 0.22381  0.00776  0.64483  Biso   1.000  C
  C94      1.0000 0.20118  0.96421  0.66453  Biso   1.000  C
  C95      1.0000 0.18997  0.93411  0.56323  Biso   1.000  C
  C96      1.0000 0.19308  0.94975  0.77713  Biso   1.000  C
  C97      1.0000 0.20627  0.97743  0.87183  Biso   1.000  C
  C98      1.0000 0.22943  0.02134  0.84623  Biso   1.000  C
  C99      1.0000 0.33907  0.15093  0.45653  Biso   1.000  C
  N11      1.0000 0.19817  0.96296  0.98213  Biso   1.000  N
  I31      1.0000 0.23338  0.03144  0.47708  Biso   1.000  I
  I32      1.0000 0.16039  0.88411  0.80808  Biso   1.000  I
  I33      1.0000 0.24948  0.06523  0.98059  Biso   1.000  I
  Nd12     1.0000 0.95359  0.51683  0.99173  Biso   1.000  Nd
  O67      1.0000 0.92277  0.44157  0.03887  Biso   1.000  O
  O68      1.0000 0.97392  0.42409  0.02877  Biso   1.000  O
  O69      1.0000 0.88539  0.26155  0.86007  Biso   1.000  O
  O70      1.0000 0.82106  0.25226  0.85007  Biso   1.000  O
  O71      1.0000 0.99250  0.49217  0.87817  Biso   1.000  O
  O72      1.0000 0.03503  0.47617  0.78897  Biso   1.000  O
  C100     1.0000 0.93678  0.41641  0.04317  Biso   1.000  C
  C101     1.0000 0.90582  0.36993  0.06837  Biso   1.000  C
  C102     1.0000 0.89047  0.34110  0.97817  Biso   1.000  C
  C103     1.0000 0.86784  0.29755  0.99787  Biso   1.000  C
  C104     1.0000 0.85663  0.26745  0.89657  Biso   1.000  C
  C105     1.0000 0.85974  0.28309  0.11047  Biso   1.000  C
  C106     1.0000 0.87293  0.31077  0.20517  Biso   1.000  C
  C107     1.0000 0.89609  0.35468  0.17957  Biso   1.000  C
  C108     1.0000 0.00573  0.48427  0.78987  Biso   1.000  C
  N12      1.0000 0.86483  0.29630  0.31547  Biso   1.000  N
  I34      1.0000 0.90004  0.36477  0.81042  Biso   1.000  I
  I35      1.0000 0.82706  0.21744  0.14142  Biso   1.000  I
  I36      1.0000 0.91614  0.39856  0.31393  Biso   1.000  I
  Nd13     1.0000 0.14983  0.77010  0.32506  Biso   1.000  Nd
  O73      1.0000 0.22510  0.81454  0.37220  Biso   1.000  O
  O74      1.0000 0.24258  0.88317  0.36210  Biso   1.000  O
  O75      1.0000 0.40512  0.95718  0.19340  Biso   1.000  O
  O76      1.0000 0.41441  0.90214  0.18340  Biso   1.000  O
  O77      1.0000 0.17450  0.83367  0.21150  Biso   1.000  O
  O78      1.0000 0.19050  0.89220  0.12230  Biso   1.000  O
  C109     1.0000 0.25026  0.85371  0.37650  Biso   1.000  C
  C110     1.0000 0.29674  0.86923  0.40170  Biso   1.000  C
  C111     1.0000 0.32557  0.88271  0.31150  Biso   1.000  C
  C112     1.0000 0.36912  0.90363  0.33120  Biso   1.000  C
  C113     1.0000 0.39922  0.92252  0.22990  Biso   1.000  C
  C114     1.0000 0.38358  0.90999  0.44380  Biso   1.000  C
  C115     1.0000 0.35590  0.89550  0.53850  Biso   1.000  C
  C116     1.0000 0.31199  0.87475  0.51290  Biso   1.000  C
  C117     1.0000 0.18240  0.85480  0.12320  Biso   1.000  C
  N13      1.0000 0.37037  0.90187  0.64880  Biso   1.000  N
  I37      1.0000 0.30190  0.86861  0.14375  Biso   1.000  I
  I38      1.0000 0.44923  0.94295  0.47475  Biso   1.000  I
  I39      1.0000 0.26810  0.85091  0.64726  Biso   1.000  I
  Nd14     1.0000 0.81650  0.10343  0.65839  Biso   1.000  Nd
  O79      1.0000 0.89177  0.14787  0.70553  Biso   1.000  O
  O80      1.0000 0.90925  0.21650  0.69543  Biso   1.000  O
  O81      1.0000 0.07179  0.29051  0.52673  Biso   1.000  O
  O82      1.0000 0.08108  0.23547  0.51673  Biso   1.000  O
  O83      1.0000 0.84117  0.16700  0.54483  Biso   1.000  O
  O84      1.0000 0.85717  0.22553  0.45563  Biso   1.000  O
  C118     1.0000 0.91693  0.18704  0.70983  Biso   1.000  C
  C119     1.0000 0.96341  0.20256  0.73503  Biso   1.000  C
  C120     1.0000 0.99224  0.21604  0.64483  Biso   1.000  C
  C121     1.0000 0.03579  0.23696  0.66453  Biso   1.000  C
  C122     1.0000 0.06589  0.25585  0.56323  Biso   1.000  C
  C123     1.0000 0.05025  0.24332  0.77713  Biso   1.000  C
  C124     1.0000 0.02257  0.22883  0.87183  Biso   1.000  C
  C125     1.0000 0.97866  0.20808  0.84623  Biso   1.000  C
  C126     1.0000 0.84907  0.18813  0.45653  Biso   1.000  C
  N14      1.0000 0.03704  0.23520  0.98213  Biso   1.000  N
  I40      1.0000 0.96856  0.20194  0.47708  Biso   1.000  I
  I41      1.0000 0.11589  0.27629  0.80808  Biso   1.000  I
  I42      1.0000 0.93477  0.18425  0.98059  Biso   1.000  I
  Nd15     1.0000 0.48317  0.43676  0.99173  Biso   1.000  Nd
  O85      1.0000 0.55843  0.48121  0.03887  Biso   1.000  O
  O86      1.0000 0.57591  0.54984  0.02877  Biso   1.000  O
  O87      1.0000 0.73845  0.62385  0.86007  Biso   1.000  O
  O88      1.0000 0.74774  0.56881  0.85007  Biso   1.000  O
  O89      1.0000 0.50783  0.50034  0.87817  Biso   1.000  O
  O90      1.0000 0.52383  0.55887  0.78897  Biso   1.000  O
  C127     1.0000 0.58359  0.52038  0.04317  Biso   1.000  C
  C128     1.0000 0.63007  0.53590  0.06837  Biso   1.000  C
  C129     1.0000 0.65890  0.54938  0.97817  Biso   1.000  C
  C130     1.0000 0.70245  0.57030  0.99787  Biso   1.000  C
  C131     1.0000 0.73255  0.58919  0.89657  Biso   1.000  C
  C132     1.0000 0.71691  0.57666  0.11047  Biso   1.000  C
  C133     1.0000 0.68923  0.56217  0.20517  Biso   1.000  C
  C134     1.0000 0.64532  0.54142  0.17957  Biso   1.000  C
  C135     1.0000 0.51573  0.52147  0.78987  Biso   1.000  C
  N15      1.0000 0.70370  0.56854  0.31547  Biso   1.000  N
  I43      1.0000 0.63523  0.53527  0.81042  Biso   1.000  I
  I44      1.0000 0.78256  0.60962  0.14142  Biso   1.000  I
  I45      1.0000 0.60144  0.51758  0.31393  Biso   1.000  I
  Nd16     1.0000 0.22990  0.37974  0.32506  Biso   1.000  Nd
  O91      1.0000 0.18546  0.41056  0.37220  Biso   1.000  O
  O92      1.0000 0.11683  0.35941  0.36210  Biso   1.000  O
  O93      1.0000 0.04282  0.44794  0.19340  Biso   1.000  O
  O94      1.0000 0.09786  0.51227  0.18340  Biso   1.000  O
  O95      1.0000 0.16633  0.34083  0.21150  Biso   1.000  O
  O96      1.0000 0.10780  0.29830  0.12230  Biso   1.000  O
  C136     1.0000 0.14629  0.39655  0.37650  Biso   1.000  C
  C137     1.0000 0.13077  0.42751  0.40170  Biso   1.000  C
  C138     1.0000 0.11729  0.44286  0.31150  Biso   1.000  C
  C139     1.0000 0.09637  0.46549  0.33120  Biso   1.000  C
  C140     1.0000 0.07748  0.47670  0.22990  Biso   1.000  C
  C141     1.0000 0.09001  0.47359  0.44380  Biso   1.000  C
  C142     1.0000 0.10450  0.46040  0.53850  Biso   1.000  C
  C143     1.0000 0.12525  0.43724  0.51290  Biso   1.000  C
  C144     1.0000 0.14520  0.32760  0.12320  Biso   1.000  C
  N16      1.0000 0.09813  0.46850  0.64880  Biso   1.000  N
  I46      1.0000 0.13139  0.43329  0.14375  Biso   1.000  I
  I47      1.0000 0.05705  0.50627  0.47475  Biso   1.000  I
  I48      1.0000 0.14909  0.41719  0.64726  Biso   1.000  I
  Nd17     1.0000 0.89657  0.71307  0.65839  Biso   1.000  Nd
  O97      1.0000 0.85213  0.74389  0.70553  Biso   1.000  O
  O98      1.0000 0.78350  0.69274  0.69543  Biso   1.000  O
  O99      1.0000 0.70949  0.78127  0.52673  Biso   1.000  O
  O100     1.0000 0.76453  0.84560  0.51673  Biso   1.000  O
  O101     1.0000 0.83300  0.67416  0.54483  Biso   1.000  O
  O102     1.0000 0.77447  0.63163  0.45563  Biso   1.000  O
  C145     1.0000 0.81296  0.72988  0.70983  Biso   1.000  C
  C146     1.0000 0.79744  0.76084  0.73503  Biso   1.000  C
  C147     1.0000 0.78396  0.77619  0.64483  Biso   1.000  C
  C148     1.0000 0.76304  0.79882  0.66453  Biso   1.000  C
  C149     1.0000 0.74415  0.81003  0.56323  Biso   1.000  C
  C150     1.0000 0.75668  0.80692  0.77713  Biso   1.000  C
  C151     1.0000 0.77117  0.79373  0.87183  Biso   1.000  C
  C152     1.0000 0.79192  0.77057  0.84623  Biso   1.000  C
  C153     1.0000 0.81187  0.66093  0.45653  Biso   1.000  C
  N17      1.0000 0.76480  0.80183  0.98213  Biso   1.000  N
  I49      1.0000 0.79806  0.76662  0.47708  Biso   1.000  I
  I50      1.0000 0.72371  0.83961  0.80808  Biso   1.000  I
  I51      1.0000 0.81575  0.75052  0.98059  Biso   1.000  I
  Nd18     1.0000 0.56324  0.04641  0.99173  Biso   1.000  Nd
  O103     1.0000 0.51879  0.07723  0.03887  Biso   1.000  O
  O104     1.0000 0.45016  0.02608  0.02877  Biso   1.000  O
  O105     1.0000 0.37615  0.11461  0.86007  Biso   1.000  O
  O106     1.0000 0.43119  0.17894  0.85007  Biso   1.000  O
  O107     1.0000 0.49966  0.00750  0.87817  Biso   1.000  O
  O108     1.0000 0.44113  0.96497  0.78897  Biso   1.000  O
  C154     1.0000 0.47962  0.06322  0.04317  Biso   1.000  C
  C155     1.0000 0.46410  0.09418  0.06837  Biso   1.000  C
  C156     1.0000 0.45062  0.10953  0.97817  Biso   1.000  C
  C157     1.0000 0.42970  0.13216  0.99787  Biso   1.000  C
  C158     1.0000 0.41081  0.14337  0.89657  Biso   1.000  C
  C159     1.0000 0.42334  0.14026  0.11047  Biso   1.000  C
  C160     1.0000 0.43783  0.12707  0.20517  Biso   1.000  C
  C161     1.0000 0.45858  0.10391  0.17957  Biso   1.000  C
  C162     1.0000 0.47853  0.99427  0.78987  Biso   1.000  C
  N18      1.0000 0.43146  0.13517  0.31547  Biso   1.000  N
  I52      1.0000 0.46473  0.09996  0.81042  Biso   1.000  I
  I53      1.0000 0.39038  0.17294  0.14142  Biso   1.000  I
  I54      1.0000 0.48242  0.08386  0.31393  Biso   1.000  I
