data_CUVHIL01_clean
_audit_creation_date              2014-07-02
_audit_creation_method            'Materials Studio'
_symmetry_space_group_name_H-M    'P1'
_symmetry_Int_Tables_number       1
_symmetry_cell_setting            triclinic
loop_
_symmetry_equiv_pos_as_xyz
  x,y,z
_cell_length_a                    11.6635
_cell_length_b                    21.3807
_cell_length_c                    21.3807
_cell_angle_alpha                 63.2305
_cell_angle_beta                  79.5232
_cell_angle_gamma                 100.4770
loop_
_atom_site_label
_atom_site_type_symbol
_atom_site_fract_x
_atom_site_fract_y
_atom_site_fract_z
_atom_site_U_iso_or_equiv
_atom_site_adp_type
_atom_site_occupancy
Nd1    Nd    0.44474   0.39054   0.07967   0.01267  Uiso   1.00
Nd2    Nd    0.52441   0.07967   0.52979   0.01267  Uiso   1.00
Nd3    Nd    0.05420   0.52979   0.39054   0.01267  Uiso   1.00
Nd4    Nd    0.55527   0.60947   0.92032   0.01267  Uiso   1.00
Nd5    Nd    0.47559   0.92033   0.47021   0.01267  Uiso   1.00
Nd6    Nd    0.94580   0.47021   0.60947   0.01267  Uiso   1.00
H1     H     0.79000   0.50200   0.98800   0.01267  Uiso   1.00
H2     H     0.77800   0.98800   0.51000   0.01267  Uiso   1.00
H3     H     0.28800   0.51000   0.50200   0.01267  Uiso   1.00
H4     H     0.21000   0.49800   0.01200   0.01267  Uiso   1.00
H5     H     0.22200   0.01200   0.49000   0.01267  Uiso   1.00
H6     H     0.71200   0.49000   0.49800   0.01267  Uiso   1.00
C1     C     0.47660   0.45810   0.89580   0.01267  Uiso   1.00
C2     C     0.46770   0.44370   0.83280   0.01267  Uiso   1.00
C3     C     0.57200   0.44170   0.79090   0.01267  Uiso   1.00
C4     C     0.57080   0.43950   0.72690   0.01267  Uiso   1.00
C5     C     0.69430   0.44650   0.67870   0.01267  Uiso   1.00
C6     C     0.46690   0.43810   0.70630   0.01267  Uiso   1.00
C7     C     0.35660   0.43750   0.74830   0.01267  Uiso   1.00
C8     C     0.36390   0.44020   0.81160   0.01267  Uiso   1.00
C9     C     0.73250   0.52590   0.96210   0.01267  Uiso   1.00
C10    C     0.37240   0.89580   0.64610   0.01267  Uiso   1.00
C11    C     0.30050   0.83280   0.72350   0.01267  Uiso   1.00
C12    C     0.36290   0.79090   0.76740   0.01267  Uiso   1.00
C13    C     0.29770   0.72690   0.83360   0.01267  Uiso   1.00
C14    C     0.37300   0.67870   0.87480   0.01267  Uiso   1.00
C15    C     0.17320   0.70630   0.85560   0.01267  Uiso   1.00
C16    C     0.10490   0.74830   0.81420   0.01267  Uiso   1.00
C17    C     0.17550   0.81160   0.74820   0.01267  Uiso   1.00
C18    C     0.69460   0.96210   0.51200   0.01267  Uiso   1.00
C19    C     0.01850   0.64610   0.45810   0.01267  Uiso   1.00
C20    C     0.02400   0.72350   0.44370   0.01267  Uiso   1.00
C21    C     0.13030   0.76740   0.44170   0.01267  Uiso   1.00
C22    C     0.13130   0.83360   0.43950   0.01267  Uiso   1.00
C23    C     0.24780   0.87480   0.44650   0.01267  Uiso   1.00
C24    C     0.02880   0.85560   0.43810   0.01267  Uiso   1.00
C25    C     0.91910   0.81420   0.43750   0.01267  Uiso   1.00
C26    C     0.92370   0.74820   0.44020   0.01267  Uiso   1.00
C27    C     0.20660   0.51200   0.52590   0.01267  Uiso   1.00
C28    C     0.52340   0.54190   0.10420   0.01267  Uiso   1.00
C29    C     0.53230   0.55630   0.16720   0.01267  Uiso   1.00
C30    C     0.42800   0.55830   0.20910   0.01267  Uiso   1.00
C31    C     0.42920   0.56050   0.27310   0.01267  Uiso   1.00
C32    C     0.30570   0.55350   0.32130   0.01267  Uiso   1.00
C33    C     0.53310   0.56190   0.29370   0.01267  Uiso   1.00
C34    C     0.64340   0.56250   0.25170   0.01267  Uiso   1.00
C35    C     0.63610   0.55980   0.18840   0.01267  Uiso   1.00
C36    C     0.26750   0.47410   0.03790   0.01267  Uiso   1.00
C37    C     0.62760   0.10420   0.35390   0.01267  Uiso   1.00
C38    C     0.69950   0.16720   0.27650   0.01267  Uiso   1.00
C39    C     0.63710   0.20910   0.23260   0.01267  Uiso   1.00
C40    C     0.70230   0.27310   0.16640   0.01267  Uiso   1.00
C41    C     0.62700   0.32130   0.12520   0.01267  Uiso   1.00
C42    C     0.82680   0.29370   0.14440   0.01267  Uiso   1.00
C43    C     0.89510   0.25170   0.18580   0.01267  Uiso   1.00
C44    C     0.82450   0.18840   0.25180   0.01267  Uiso   1.00
C45    C     0.30540   0.03790   0.48800   0.01267  Uiso   1.00
C46    C     0.98150   0.35390   0.54190   0.01267  Uiso   1.00
C47    C     0.97600   0.27650   0.55630   0.01267  Uiso   1.00
C48    C     0.86970   0.23260   0.55830   0.01267  Uiso   1.00
C49    C     0.86870   0.16640   0.56050   0.01267  Uiso   1.00
C50    C     0.75220   0.12520   0.55350   0.01267  Uiso   1.00
C51    C     0.97120   0.14440   0.56190   0.01267  Uiso   1.00
C52    C     0.08090   0.18580   0.56250   0.01267  Uiso   1.00
C53    C     0.07630   0.25180   0.55980   0.01267  Uiso   1.00
C54    C     0.79340   0.48800   0.47410   0.01267  Uiso   1.00
I1     I     0.72448   0.43476   0.83010   0.01267  Uiso   1.00
I2     I     0.46823   0.43764   0.60823   0.01267  Uiso   1.00
I3     I     0.20569   0.43789   0.87922   0.01267  Uiso   1.00
I4     I     0.55458   0.83010   0.73514   0.01267  Uiso   1.00
I5     I     0.07646   0.60823   0.95413   0.01267  Uiso   1.00
I6     I     0.08491   0.87922   0.68289   0.01267  Uiso   1.00
I7     I     0.28972   0.73514   0.43476   0.01267  Uiso   1.00
I8     I     0.03059   0.95413   0.43764   0.01267  Uiso   1.00
I9     I     0.76780   0.68289   0.43789   0.01267  Uiso   1.00
I10    I     0.27552   0.56524   0.16990   0.01267  Uiso   1.00
I11    I     0.53177   0.56236   0.39177   0.01267  Uiso   1.00
I12    I     0.79431   0.56211   0.12078   0.01267  Uiso   1.00
I13    I     0.44542   0.16990   0.26486   0.01267  Uiso   1.00
I14    I     0.92354   0.39177   0.04587   0.01267  Uiso   1.00
I15    I     0.91509   0.12078   0.31711   0.01267  Uiso   1.00
I16    I     0.71028   0.26486   0.56524   0.01267  Uiso   1.00
I17    I     0.96941   0.04587   0.56236   0.01267  Uiso   1.00
I18    I     0.23220   0.31711   0.56211   0.01267  Uiso   1.00
N1     N     0.25390   0.43580   0.72710   0.01267  Uiso   1.00
N2     N     0.98100   0.72710   0.83710   0.01267  Uiso   1.00
N3     N     0.81810   0.83710   0.43580   0.01267  Uiso   1.00
N4     N     0.74610   0.56420   0.27290   0.01267  Uiso   1.00
N5     N     0.01900   0.27290   0.16290   0.01267  Uiso   1.00
N6     N     0.18190   0.16290   0.56420   0.01267  Uiso   1.00
O1     O     0.44221   0.40388   0.95975   0.01267  Uiso   1.00
O2     O     0.52183   0.52467   0.87438   0.01267  Uiso   1.00
O3     O     0.71650   0.39040   0.68350   0.01267  Uiso   1.00
O4     O     0.76450   0.50830   0.63850   0.01267  Uiso   1.00
O5     O     0.62300   0.49192   0.99262   0.01267  Uiso   1.00
O6     O     0.76950   0.59370   0.91800   0.01267  Uiso   1.00
O7     O     0.40196   0.95975   0.63637   0.01267  Uiso   1.00
O8     O     0.39621   0.87438   0.60095   0.01267  Uiso   1.00
O9     O     0.40000   0.68350   0.92610   0.01267  Uiso   1.00
O10    O     0.40300   0.63850   0.85320   0.01267  Uiso   1.00
O11    O     0.61562   0.99262   0.51546   0.01267  Uiso   1.00
O12    O     0.68750   0.91800   0.48830   0.01267  Uiso   1.00
O13    O     0.03833   0.63637   0.40388   0.01267  Uiso   1.00
O14    O     0.99716   0.60095   0.52467   0.01267  Uiso   1.00
O15    O     0.32610   0.92610   0.39040   0.01267  Uiso   1.00
O16    O     0.25620   0.85320   0.50830   0.01267  Uiso   1.00
O17    O     0.13108   0.51546   0.49192   0.01267  Uiso   1.00
O18    O     0.17580   0.48830   0.59370   0.01267  Uiso   1.00
O19    O     0.55779   0.59612   0.04025   0.01267  Uiso   1.00
O20    O     0.47817   0.47533   0.12562   0.01267  Uiso   1.00
O21    O     0.28350   0.60960   0.31650   0.01267  Uiso   1.00
O22    O     0.23550   0.49170   0.36150   0.01267  Uiso   1.00
O23    O     0.37700   0.50808   0.00738   0.01267  Uiso   1.00
O24    O     0.23050   0.40630   0.08200   0.01267  Uiso   1.00
O25    O     0.59804   0.04025   0.36363   0.01267  Uiso   1.00
O26    O     0.60379   0.12562   0.39905   0.01267  Uiso   1.00
O27    O     0.60000   0.31650   0.07390   0.01267  Uiso   1.00
O28    O     0.59700   0.36150   0.14680   0.01267  Uiso   1.00
O29    O     0.38438   0.00738   0.48454   0.01267  Uiso   1.00
O30    O     0.31250   0.08200   0.51170   0.01267  Uiso   1.00
O31    O     0.96167   0.36363   0.59612   0.01267  Uiso   1.00
O32    O     0.00284   0.39905   0.47533   0.01267  Uiso   1.00
O33    O     0.67390   0.07390   0.60960   0.01267  Uiso   1.00
O34    O     0.74380   0.14680   0.49170   0.01267  Uiso   1.00
O35    O     0.86892   0.48454   0.50808   0.01267  Uiso   1.00
O36    O     0.82420   0.51170   0.40630   0.01267  Uiso   1.00
