data_image0
_cell_length_a       10.4157
_cell_length_b       11.2176
_cell_length_c       11.806
_cell_angle_alpha    93.298
_cell_angle_beta     109.635
_cell_angle_gamma    106.949

_symmetry_space_group_name_H-M    "P 1"
_symmetry_int_tables_number       1

loop_
  _symmetry_equiv_pos_as_xyz
  'x, y, z'

loop_
  _atom_site_label
  _atom_site_occupancy
  _atom_site_fract_x
  _atom_site_fract_y
  _atom_site_fract_z
  _atom_site_thermal_displace_type
  _atom_site_B_iso_or_equiv
  _atom_site_type_symbol
  Eu1      1.0000 0.39272  0.46538  0.81718  Biso   1.000  Eu
  N1       1.0000 0.89100  0.13200  0.62900  Biso   1.000  N
  N2       1.0000 0.79400  0.34200  0.78100  Biso   1.000  N
  N3       1.0000 0.55700  0.90700  0.22500  Biso   1.000  N
  N4       1.0000 0.42640  0.57720  0.64600  Biso   1.000  N
  N5       1.0000 0.52740  0.65280  0.51470  Biso   1.000  N
  C1       1.0000 0.19480  0.23990  0.65020  Biso   1.000  C
  C2       1.0000 0.09240  0.11640  0.57530  Biso   1.000  C
  C3       1.0000 0.13260  0.05840  0.49310  Biso   1.000  C
  H1       1.0000 0.22170  0.09650  0.48710  Biso   1.000  H
  C4       1.0000 0.96000  0.05790  0.58160  Biso   1.000  C
  C5       1.0000 0.70350  0.49520  0.92100  Biso   1.000  C
  C6       1.0000 0.85660  0.49880  0.96050  Biso   1.000  C
  C7       1.0000 0.89850  0.42420  0.89300  Biso   1.000  C
  C8       1.0000 0.95740  0.57510  0.06570  Biso   1.000  C
  H2       1.0000 0.93090  0.62750  0.11100  Biso   1.000  H
  C9       1.0000 0.52530  0.75010  0.99980  Biso   1.000  C
  C10      1.0000 0.51310  0.87930  0.00410  Biso   1.000  C
  C11      1.0000 0.49080  0.93140  0.89570  Biso   1.000  C
  H3       1.0000 0.48830  0.88630  0.82590  Biso   1.000  H
  C12      1.0000 0.52780  0.94820  0.10800  Biso   1.000  C
  C13      1.0000 0.38000  0.66840  0.59380  Biso   1.000  C
  H4       1.0000 0.31170  0.69530  0.61250  Biso   1.000  H
  C14      1.0000 0.43700  0.71850  0.51290  Biso   1.000  C
  C15      1.0000 0.52100  0.56980  0.59310  Biso   1.000  C
  H5       1.0000 0.57450  0.51510  0.60840  Biso   1.000  H
  C16      1.0000 0.42500  0.82000  0.43700  Biso   1.000  C
  H6       1.0000 0.48030  0.82120  0.38590  Biso   1.000  H
  H7       1.0000 0.46210  0.90100  0.48940  Biso   1.000  H
  H8       1.0000 0.32580  0.80420  0.38670  Biso   1.000  H
  O1       1.0000 0.15990  0.28860  0.73230  Biso   1.000  O
  O2       1.0000 0.30610  0.29410  0.63810  Biso   1.000  O
  O3       1.0000 0.62610  0.46720  0.81200  Biso   1.000  O
  O4       1.0000 0.65790  0.52450  0.00430  Biso   1.000  O
  O5       1.0000 0.49160  0.68440  0.89840  Biso   1.000  O
  O6       1.0000 0.56830  0.71710  0.10090  Biso   1.000  O
  Eu2      1.0000 0.60728  0.53462  0.18282  Biso   1.000  Eu
  N6       1.0000 0.10900  0.86800  0.37100  Biso   1.000  N
  N7       1.0000 0.20600  0.65800  0.21900  Biso   1.000  N
  N8       1.0000 0.44300  0.09300  0.77500  Biso   1.000  N
  N9       1.0000 0.57360  0.42280  0.35400  Biso   1.000  N
  N10      1.0000 0.47260  0.34720  0.48530  Biso   1.000  N
  C17      1.0000 0.80520  0.76010  0.34980  Biso   1.000  C
  C18      1.0000 0.90760  0.88360  0.42470  Biso   1.000  C
  C19      1.0000 0.86740  0.94160  0.50690  Biso   1.000  C
  H9       1.0000 0.77830  0.90350  0.51290  Biso   1.000  H
  C20      1.0000 0.04000  0.94210  0.41840  Biso   1.000  C
  C21      1.0000 0.29650  0.50480  0.07900  Biso   1.000  C
  C22      1.0000 0.14340  0.50120  0.03950  Biso   1.000  C
  C23      1.0000 0.10150  0.57580  0.10700  Biso   1.000  C
  C24      1.0000 0.04260  0.42490  0.93430  Biso   1.000  C
  H10      1.0000 0.06910  0.37250  0.88900  Biso   1.000  H
  C25      1.0000 0.47470  0.24990  0.00020  Biso   1.000  C
  C26      1.0000 0.48690  0.12070  0.99590  Biso   1.000  C
  C27      1.0000 0.50920  0.06860  0.10430  Biso   1.000  C
  H11      1.0000 0.51170  0.11370  0.17410  Biso   1.000  H
  C28      1.0000 0.47220  0.05180  0.89200  Biso   1.000  C
  C29      1.0000 0.62000  0.33160  0.40620  Biso   1.000  C
  H12      1.0000 0.68830  0.30470  0.38750  Biso   1.000  H
  C30      1.0000 0.56300  0.28150  0.48710  Biso   1.000  C
  C31      1.0000 0.47900  0.43020  0.40690  Biso   1.000  C
  H13      1.0000 0.42550  0.48490  0.39160  Biso   1.000  H
  C32      1.0000 0.57500  0.18000  0.56300  Biso   1.000  C
  H14      1.0000 0.51970  0.17880  0.61410  Biso   1.000  H
  H15      1.0000 0.53790  0.09900  0.51060  Biso   1.000  H
  H16      1.0000 0.67420  0.19580  0.61330  Biso   1.000  H
  O7       1.0000 0.84010  0.71140  0.26770  Biso   1.000  O
  O8       1.0000 0.69390  0.70590  0.36190  Biso   1.000  O
  O9       1.0000 0.37390  0.53280  0.18800  Biso   1.000  O
  O10      1.0000 0.34210  0.47550  0.99570  Biso   1.000  O
  O11      1.0000 0.50840  0.31560  0.10160  Biso   1.000  O
  O12      1.0000 0.43170  0.28290  0.89910  Biso   1.000  O
