data_image0
_cell_length_a       10.3363
_cell_length_b       11.2395
_cell_length_c       11.7729
_cell_angle_alpha    91.931
_cell_angle_beta     108.443
_cell_angle_gamma    109.729

_symmetry_space_group_name_H-M    "P 1"
_symmetry_int_tables_number       1

loop_
  _symmetry_equiv_pos_as_xyz
  'x, y, z'

loop_
  _atom_site_label
  _atom_site_occupancy
  _atom_site_fract_x
  _atom_site_fract_y
  _atom_site_fract_z
  _atom_site_thermal_displace_type
  _atom_site_B_iso_or_equiv
  _atom_site_type_symbol
  C1       1.0000 0.31100  0.75900  0.84180  Biso   1.000  C
  C2       1.0000 0.40800  0.88400  0.92290  Biso   1.000  C
  C3       1.0000 0.37620  0.92280  0.01940  Biso   1.000  C
  H1       1.0000 0.29240  0.87150  0.03290  Biso   1.000  H
  C4       1.0000 0.53260  0.96200  0.90210  Biso   1.000  C
  C5       1.0000 0.79450  0.50100  0.58150  Biso   1.000  C
  C6       1.0000 0.64280  0.50040  0.54070  Biso   1.000  C
  C7       1.0000 0.60390  0.57880  0.60570  Biso   1.000  C
  C8       1.0000 0.53710  0.42050  0.43620  Biso   1.000  C
  H2       1.0000 0.56140  0.36530  0.39350  Biso   1.000  H
  C9       1.0000 0.02680  0.75280  0.50020  Biso   1.000  C
  C10      1.0000 0.01580  0.88060  0.50190  Biso   1.000  C
  C11      1.0000 0.99180  0.93430  0.39480  Biso   1.000  C
  H3       1.0000 0.98860  0.89100  0.32470  Biso   1.000  H
  C12      1.0000 0.02710  0.95020  0.60850  Biso   1.000  C
  C13      1.0000 0.98210  0.43630  0.91200  Biso   1.000  C
  H4       1.0000 0.93750  0.49600  0.89390  Biso   1.000  H
  C14      1.0000 0.04740  0.29050  0.00350  Biso   1.000  C
  C15      1.0000 0.10130  0.32250  0.90950  Biso   1.000  C
  C16      1.0000 0.18690  0.25590  0.89170  Biso   1.000  C
  H5       1.0000 0.22730  0.27220  0.83100  Biso   1.000  H
  C17      1.0000 0.21200  0.16530  0.96400  Biso   1.000  C
  H6       1.0000 0.26870  0.11970  0.95300  Biso   1.000  H
  C18      1.0000 0.15000  0.14600  0.05400  Biso   1.000  C
  H7       1.0000 0.16880  0.08510  0.10100  Biso   1.000  H
  C19      1.0000 0.06200  0.20380  0.08370  Biso   1.000  C
  H8       1.0000 0.02250  0.18780  0.14470  Biso   1.000  H
  N1       1.0000 0.57200  0.94600  0.79620  Biso   1.000  N
  N2       1.0000 0.70730  0.66500  0.71460  Biso   1.000  N
  N3       1.0000 0.04000  0.90100  0.72200  Biso   1.000  N
  N4       1.0000 0.06330  0.41360  0.84990  Biso   1.000  N
  N5       1.0000 0.96990  0.36670  0.00240  Biso   1.000  N
  O1       1.0000 0.19510  0.69520  0.85930  Biso   1.000  O
  O2       1.0000 0.34380  0.72010  0.75820  Biso   1.000  O
  O3       1.0000 0.87020  0.52950  0.69100  Biso   1.000  O
  O4       1.0000 0.84280  0.46900  0.50280  Biso   1.000  O
  O5       1.0000 0.98730  0.68570  0.39960  Biso   1.000  O
  O6       1.0000 0.07000  0.71630  0.60110  Biso   1.000  O
  Eu1      1.0000 0.10605  0.53368  0.67894  Biso   1.000  Eu
  C20      1.0000 0.68900  0.24100  0.15820  Biso   1.000  C
  C21      1.0000 0.59200  0.11600  0.07710  Biso   1.000  C
  C22      1.0000 0.62380  0.07720  0.98060  Biso   1.000  C
  H9       1.0000 0.70760  0.12850  0.96710  Biso   1.000  H
  C23      1.0000 0.46740  0.03800  0.09790  Biso   1.000  C
  C24      1.0000 0.20550  0.49900  0.41850  Biso   1.000  C
  C25      1.0000 0.35720  0.49960  0.45930  Biso   1.000  C
  C26      1.0000 0.39610  0.42120  0.39430  Biso   1.000  C
  C27      1.0000 0.46290  0.57950  0.56380  Biso   1.000  C
  H10      1.0000 0.43860  0.63470  0.60650  Biso   1.000  H
  C28      1.0000 0.97320  0.24720  0.49980  Biso   1.000  C
  C29      1.0000 0.98420  0.11940  0.49810  Biso   1.000  C
  C30      1.0000 0.00820  0.06570  0.60520  Biso   1.000  C
  H11      1.0000 0.01140  0.10900  0.67530  Biso   1.000  H
  C31      1.0000 0.97290  0.04980  0.39150  Biso   1.000  C
  C32      1.0000 0.01790  0.56370  0.08800  Biso   1.000  C
  H12      1.0000 0.06250  0.50400  0.10610  Biso   1.000  H
  C33      1.0000 0.95260  0.70950  0.99650  Biso   1.000  C
  C34      1.0000 0.89870  0.67750  0.09050  Biso   1.000  C
  C35      1.0000 0.81310  0.74410  0.10830  Biso   1.000  C
  H13      1.0000 0.77270  0.72780  0.16900  Biso   1.000  H
  C36      1.0000 0.78800  0.83470  0.03600  Biso   1.000  C
  H14      1.0000 0.73130  0.88030  0.04700  Biso   1.000  H
  C37      1.0000 0.85000  0.85400  0.94600  Biso   1.000  C
  H15      1.0000 0.83120  0.91490  0.89900  Biso   1.000  H
  C38      1.0000 0.93800  0.79620  0.91630  Biso   1.000  C
  H16      1.0000 0.97750  0.81220  0.85530  Biso   1.000  H
  N6       1.0000 0.42800  0.05400  0.20380  Biso   1.000  N
  N7       1.0000 0.29270  0.33500  0.28540  Biso   1.000  N
  N8       1.0000 0.96000  0.09900  0.27800  Biso   1.000  N
  N9       1.0000 0.93670  0.58640  0.15010  Biso   1.000  N
  N10      1.0000 0.03010  0.63330  0.99760  Biso   1.000  N
  O7       1.0000 0.80490  0.30480  0.14070  Biso   1.000  O
  O8       1.0000 0.65620  0.27990  0.24180  Biso   1.000  O
  O9       1.0000 0.12980  0.47050  0.30900  Biso   1.000  O
  O10      1.0000 0.15720  0.53100  0.49720  Biso   1.000  O
  O11      1.0000 0.01270  0.31430  0.60040  Biso   1.000  O
  O12      1.0000 0.93000  0.28370  0.39890  Biso   1.000  O
  Eu2      1.0000 0.89395  0.46632  0.32106  Biso   1.000  Eu
