data_image0
_cell_length_a       10.3923
_cell_length_b       11.2942
_cell_length_c       12.3282
_cell_angle_alpha    98.464
_cell_angle_beta     109.478
_cell_angle_gamma    102.788

_symmetry_space_group_name_H-M    "P 1"
_symmetry_int_tables_number       1

loop_
  _symmetry_equiv_pos_as_xyz
  'x, y, z'

loop_
  _atom_site_label
  _atom_site_occupancy
  _atom_site_fract_x
  _atom_site_fract_y
  _atom_site_fract_z
  _atom_site_thermal_displace_type
  _atom_site_B_iso_or_equiv
  _atom_site_type_symbol
  Eu1      1.0000 0.39329  0.45384  0.82555  Biso   1.000  Eu
  O1       1.0000 0.16790  0.28110  0.74610  Biso   1.000  O
  O2       1.0000 0.30990  0.27920  0.65070  Biso   1.000  O
  O3       1.0000 0.62020  0.43460  0.81590  Biso   1.000  O
  O4       1.0000 0.65070  0.51700  0.99840  Biso   1.000  O
  O5       1.0000 0.43650  0.27880  0.90370  Biso   1.000  O
  O6       1.0000 0.52020  0.32490  0.10120  Biso   1.000  O
  C1       1.0000 0.19530  0.23070  0.66480  Biso   1.000  C
  C2       1.0000 0.09590  0.11000  0.58000  Biso   1.000  C
  C3       1.0000 0.12690  0.05160  0.49160  Biso   1.000  C
  H1       1.0000 0.21290  0.08620  0.48460  Biso   1.000  H
  C4       1.0000 0.96650  0.05870  0.58890  Biso   1.000  C
  C5       1.0000 0.70110  0.48150  0.92230  Biso   1.000  C
  C6       1.0000 0.85370  0.48940  0.96090  Biso   1.000  C
  C7       1.0000 0.90600  0.42070  0.89050  Biso   1.000  C
  C8       1.0000 0.94800  0.56700  0.06980  Biso   1.000  C
  H2       1.0000 0.91320  0.61190  0.11730  Biso   1.000  H
  C9       1.0000 0.48070  0.25190  0.00060  Biso   1.000  C
  C10      1.0000 0.49000  0.12100  0.99740  Biso   1.000  C
  C11      1.0000 0.52770  0.08220  0.10280  Biso   1.000  C
  H3       1.0000 0.54660  0.13850  0.17320  Biso   1.000  H
  C12      1.0000 0.46190  0.03670  0.89370  Biso   1.000  C
  C13      1.0000 0.43650  0.49200  0.56050  Biso   1.000  C
  C14      1.0000 0.54100  0.66400  0.57830  Biso   1.000  C
  N1       1.0000 0.90700  0.14900  0.63600  Biso   1.000  N
  N2       1.0000 0.44200  0.06900  0.78060  Biso   1.000  N
  N3       1.0000 0.82500  0.34100  0.78900  Biso   1.000  N
  N4       1.0000 0.42950  0.54080  0.66490  Biso   1.000  N
  N5       1.0000 0.50260  0.65830  0.67230  Biso   1.000  N
  N6       1.0000 0.50000  0.55500  0.49700  Biso   1.000  N
  N7       1.0000 0.66100  0.75000  0.57000  Biso   1.000  N
  Eu2      1.0000 0.60671  0.54616  0.17445  Biso   1.000  Eu
  O7       1.0000 0.83210  0.71890  0.25390  Biso   1.000  O
  O8       1.0000 0.69010  0.72080  0.34930  Biso   1.000  O
  O9       1.0000 0.37980  0.56540  0.18410  Biso   1.000  O
  O10      1.0000 0.34930  0.48300  0.00160  Biso   1.000  O
  O11      1.0000 0.56350  0.72120  0.09630  Biso   1.000  O
  O12      1.0000 0.47980  0.67510  0.89880  Biso   1.000  O
  C15      1.0000 0.80470  0.76930  0.33520  Biso   1.000  C
  C16      1.0000 0.90410  0.89000  0.42000  Biso   1.000  C
  C17      1.0000 0.87310  0.94840  0.50840  Biso   1.000  C
  H4       1.0000 0.78710  0.91380  0.51540  Biso   1.000  H
  C18      1.0000 0.03350  0.94130  0.41110  Biso   1.000  C
  C19      1.0000 0.29890  0.51850  0.07770  Biso   1.000  C
  C20      1.0000 0.14630  0.51060  0.03910  Biso   1.000  C
  C21      1.0000 0.09400  0.57930  0.10950  Biso   1.000  C
  C22      1.0000 0.05200  0.43300  0.93020  Biso   1.000  C
  H5       1.0000 0.08680  0.38810  0.88270  Biso   1.000  H
  C23      1.0000 0.51930  0.74810  0.99940  Biso   1.000  C
  C24      1.0000 0.51000  0.87900  0.00260  Biso   1.000  C
  C25      1.0000 0.47230  0.91780  0.89720  Biso   1.000  C
  H6       1.0000 0.45340  0.86150  0.82680  Biso   1.000  H
  C26      1.0000 0.53810  0.96330  0.10630  Biso   1.000  C
  C27      1.0000 0.56350  0.50800  0.43950  Biso   1.000  C
  C28      1.0000 0.45900  0.33600  0.42170  Biso   1.000  C
  N8       1.0000 0.09300  0.85100  0.36400  Biso   1.000  N
  N9       1.0000 0.55800  0.93100  0.21940  Biso   1.000  N
  N10      1.0000 0.17500  0.65900  0.21100  Biso   1.000  N
  N11      1.0000 0.57050  0.45920  0.33510  Biso   1.000  N
  N12      1.0000 0.49740  0.34170  0.32770  Biso   1.000  N
  N13      1.0000 0.50000  0.44500  0.50300  Biso   1.000  N
  N14      1.0000 0.33900  0.25000  0.43000  Biso   1.000  N
