data_image0
_cell_length_a       10.4361
_cell_length_b       11.2002
_cell_length_c       11.7349
_cell_angle_alpha    93.473
_cell_angle_beta     110.054
_cell_angle_gamma    106.436

_symmetry_space_group_name_H-M    "P 1"
_symmetry_int_tables_number       1

loop_
  _symmetry_equiv_pos_as_xyz
  'x, y, z'

loop_
  _atom_site_label
  _atom_site_occupancy
  _atom_site_fract_x
  _atom_site_fract_y
  _atom_site_fract_z
  _atom_site_thermal_displace_type
  _atom_site_B_iso_or_equiv
  _atom_site_type_symbol
  Eu1      1.0000 0.10745  0.53458  0.68375  Biso   1.000  Eu
  O1       1.0000 0.19120  0.70720  0.86160  Biso   1.000  O
  O2       1.0000 0.34070  0.70620  0.76940  Biso   1.000  O
  O3       1.0000 0.15510  0.51890  0.50280  Biso   1.000  O
  O4       1.0000 0.12440  0.45960  0.31000  Biso   1.000  O
  O5       1.0000 0.00790  0.31550  0.60210  Biso   1.000  O
  O6       1.0000 0.92620  0.28300  0.39790  Biso   1.000  O
  O7       1.0000 0.02100  0.17800  0.14900  Biso   1.000  O
  H1       1.0000 0.07460  0.24280  0.19740  Biso   1.000  H
  C1       1.0000 0.31000  0.75760  0.84940  Biso   1.000  C
  C2       1.0000 0.40980  0.88380  0.92710  Biso   1.000  C
  C3       1.0000 0.37020  0.94340  0.00680  Biso   1.000  C
  H2       1.0000 0.28120  0.90500  0.01170  Biso   1.000  H
  C4       1.0000 0.54140  0.93870  0.91740  Biso   1.000  C
  C5       1.0000 0.20310  0.49050  0.42010  Biso   1.000  C
  C6       1.0000 0.35540  0.49590  0.46050  Biso   1.000  C
  C7       1.0000 0.39810  0.42250  0.39020  Biso   1.000  C
  C8       1.0000 0.45480  0.56970  0.56720  Biso   1.000  C
  H3       1.0000 0.42530  0.61750  0.61460  Biso   1.000  H
  C9       1.0000 0.97140  0.24920  0.50030  Biso   1.000  C
  C10      1.0000 0.98500  0.12130  0.49660  Biso   1.000  C
  C11      1.0000 0.00950  0.06910  0.60350  Biso   1.000  C
  H4       1.0000 0.01510  0.11570  0.67440  Biso   1.000  H
  C12      1.0000 0.97430  0.04930  0.39090  Biso   1.000  C
  C13      1.0000 0.97300  0.42100  0.90600  Biso   1.000  C
  H5       1.0000 0.90590  0.46310  0.88120  Biso   1.000  H
  C14      1.0000 0.07100  0.28600  0.98800  Biso   1.000  C
  C15      1.0000 0.13200  0.33700  0.90700  Biso   1.000  C
  H6       1.0000 0.20280  0.31450  0.88810  Biso   1.000  H
  C16      1.0000 0.06300  0.16800  0.04400  Biso   1.000  C
  H7       1.0000 0.99360  0.09530  0.98250  Biso   1.000  H
  H8       1.0000 0.15640  0.15500  0.07010  Biso   1.000  H
  N1       1.0000 0.58500  0.87600  0.84900  Biso   1.000  N
  N2       1.0000 0.30400  0.34100  0.28800  Biso   1.000  N
  N3       1.0000 0.96600  0.09600  0.27700  Biso   1.000  N
  N4       1.0000 0.07450  0.42520  0.85790  Biso   1.000  N
  N5       1.0000 0.97900  0.34700  0.99400  Biso   1.000  N
  Eu2      1.0000 0.89255  0.46542  0.31625  Biso   1.000  Eu
  O8       1.0000 0.80880  0.29280  0.13840  Biso   1.000  O
  O9       1.0000 0.65930  0.29380  0.23060  Biso   1.000  O
  O10      1.0000 0.84490  0.48110  0.49720  Biso   1.000  O
  O11      1.0000 0.87560  0.54040  0.69000  Biso   1.000  O
  O12      1.0000 0.99210  0.68450  0.39790  Biso   1.000  O
  O13      1.0000 0.07380  0.71700  0.60210  Biso   1.000  O
  O14      1.0000 0.97900  0.82200  0.85100  Biso   1.000  O
  H9       1.0000 0.92540  0.75720  0.80260  Biso   1.000  H
  C17      1.0000 0.69000  0.24240  0.15060  Biso   1.000  C
  C18      1.0000 0.59020  0.11620  0.07290  Biso   1.000  C
  C19      1.0000 0.62980  0.05660  0.99320  Biso   1.000  C
  H10      1.0000 0.71880  0.09500  0.98830  Biso   1.000  H
  C20      1.0000 0.45860  0.06130  0.08260  Biso   1.000  C
  C21      1.0000 0.79690  0.50950  0.57990  Biso   1.000  C
  C22      1.0000 0.64460  0.50410  0.53950  Biso   1.000  C
  C23      1.0000 0.60190  0.57750  0.60980  Biso   1.000  C
  C24      1.0000 0.54520  0.43030  0.43280  Biso   1.000  C
  H11      1.0000 0.57470  0.38250  0.38540  Biso   1.000  H
  C25      1.0000 0.02860  0.75080  0.49970  Biso   1.000  C
  C26      1.0000 0.01500  0.87870  0.50340  Biso   1.000  C
  C27      1.0000 0.99050  0.93090  0.39650  Biso   1.000  C
  H12      1.0000 0.98490  0.88430  0.32560  Biso   1.000  H
  C28      1.0000 0.02570  0.95070  0.60910  Biso   1.000  C
  C29      1.0000 0.02700  0.57900  0.09400  Biso   1.000  C
  H13      1.0000 0.09410  0.53690  0.11880  Biso   1.000  H
  C30      1.0000 0.92900  0.71400  0.01200  Biso   1.000  C
  C31      1.0000 0.86800  0.66300  0.09300  Biso   1.000  C
  H14      1.0000 0.79720  0.68550  0.11190  Biso   1.000  H
  C32      1.0000 0.93700  0.83200  0.95600  Biso   1.000  C
  H15      1.0000 0.00640  0.90470  0.01750  Biso   1.000  H
  H16      1.0000 0.84360  0.84500  0.92990  Biso   1.000  H
  N6       1.0000 0.41500  0.12400  0.15100  Biso   1.000  N
  N7       1.0000 0.69600  0.65900  0.71200  Biso   1.000  N
  N8       1.0000 0.03400  0.90400  0.72300  Biso   1.000  N
  N9       1.0000 0.92550  0.57480  0.14210  Biso   1.000  N
  N10      1.0000 0.02100  0.65300  0.00600  Biso   1.000  N
