data_image0
_cell_length_a       10.3912
_cell_length_b       11.3371
_cell_length_c       12.8168
_cell_angle_alpha    106.322
_cell_angle_beta     98.73
_cell_angle_gamma    103.042

_symmetry_space_group_name_H-M    "P 1"
_symmetry_int_tables_number       1

loop_
  _symmetry_equiv_pos_as_xyz
  'x, y, z'

loop_
  _atom_site_label
  _atom_site_occupancy
  _atom_site_fract_x
  _atom_site_fract_y
  _atom_site_fract_z
  _atom_site_thermal_displace_type
  _atom_site_B_iso_or_equiv
  _atom_site_type_symbol
  Eu1      1.0000 0.47839  0.44500  0.33609  Biso   1.000  Eu
  C1       1.0000 0.48890  0.22790  0.16630  Biso   1.000  C
  C2       1.0000 0.49440  0.10920  0.07990  Biso   1.000  C
  C3       1.0000 0.38130  0.03690  0.99600  Biso   1.000  C
  H1       1.0000 0.30110  0.06060  0.99370  Biso   1.000  H
  C4       1.0000 0.61280  0.07190  0.08550  Biso   1.000  C
  C5       1.0000 0.23870  0.45360  0.42810  Biso   1.000  C
  C6       1.0000 0.11410  0.47730  0.46390  Biso   1.000  C
  C7       1.0000 0.98710  0.42510  0.38870  Biso   1.000  C
  C8       1.0000 0.12600  0.55430  0.57380  Biso   1.000  C
  H2       1.0000 0.21130  0.59200  0.62200  Biso   1.000  H
  C9       1.0000 0.49610  0.25440  0.49790  Biso   1.000  C
  C10      1.0000 0.49620  0.12230  0.49830  Biso   1.000  C
  C11      1.0000 0.54530  0.10190  0.59860  Biso   1.000  C
  H3       1.0000 0.57580  0.17090  0.66480  Biso   1.000  H
  C12      1.0000 0.45120  0.01690  0.39960  Biso   1.000  C
  C13      1.0000 0.63530  0.66220  0.22640  Biso   1.000  C
  H4       1.0000 0.70230  0.67050  0.18170  Biso   1.000  H
  H5       1.0000 0.64280  0.74710  0.27550  Biso   1.000  H
  C14      1.0000 0.49650  0.60690  0.15080  Biso   1.000  C
  C15      1.0000 0.45840  0.65450  0.06310  Biso   1.000  C
  C16      1.0000 0.33320  0.60350  0.99710  Biso   1.000  C
  H6       1.0000 0.30940  0.63450  0.93920  Biso   1.000  H
  C17      1.0000 0.23920  0.50700  0.01200  Biso   1.000  C
  H7       1.0000 0.15170  0.47230  0.96710  Biso   1.000  H
  C18      1.0000 0.28550  0.46320  0.10260  Biso   1.000  C
  H8       1.0000 0.22540  0.39700  0.11510  Biso   1.000  H
  C19      1.0000 0.54000  0.75800  0.02870  Biso   1.000  C
  H9       1.0000 0.62620  0.79740  0.08060  Biso   1.000  H
  H10      1.0000 0.49190  0.82120  0.02820  Biso   1.000  H
  H11      1.0000 0.55280  0.72160  0.95530  Biso   1.000  H
  N1       1.0000 0.71200  0.10800  0.17100  Biso   1.000  N
  N2       1.0000 0.96780  0.35350  0.27850  Biso   1.000  N
  N3       1.0000 0.38200  0.02400  0.29630  Biso   1.000  N
  N4       1.0000 0.40830  0.51180  0.16830  Biso   1.000  N
  O1       1.0000 0.37460  0.24640  0.17440  Biso   1.000  O
  O2       1.0000 0.59650  0.30660  0.22870  Biso   1.000  O
  O3       1.0000 0.23760  0.41100  0.32610  Biso   1.000  O
  O4       1.0000 0.34650  0.47880  0.50230  Biso   1.000  O
  O5       1.0000 0.46010  0.27100  0.40700  Biso   1.000  O
  O6       1.0000 0.53270  0.34070  0.59170  Biso   1.000  O
  O7       1.0000 0.66230  0.58870  0.28850  Biso   1.000  O
  Eu2      1.0000 0.52161  0.55500  0.66391  Biso   1.000  Eu
  C20      1.0000 0.51110  0.77210  0.83370  Biso   1.000  C
  C21      1.0000 0.50560  0.89080  0.92010  Biso   1.000  C
  C22      1.0000 0.61870  0.96310  0.00400  Biso   1.000  C
  H12      1.0000 0.69890  0.93940  0.00630  Biso   1.000  H
  C23      1.0000 0.38720  0.92810  0.91450  Biso   1.000  C
  C24      1.0000 0.76130  0.54640  0.57190  Biso   1.000  C
  C25      1.0000 0.88590  0.52270  0.53610  Biso   1.000  C
  C26      1.0000 0.01290  0.57490  0.61130  Biso   1.000  C
  C27      1.0000 0.87400  0.44570  0.42620  Biso   1.000  C
  H13      1.0000 0.78870  0.40800  0.37800  Biso   1.000  H
  C28      1.0000 0.50390  0.74560  0.50210  Biso   1.000  C
  C29      1.0000 0.50380  0.87770  0.50170  Biso   1.000  C
  C30      1.0000 0.45470  0.89810  0.40140  Biso   1.000  C
  H14      1.0000 0.42420  0.82910  0.33520  Biso   1.000  H
  C31      1.0000 0.54880  0.98310  0.60040  Biso   1.000  C
  C32      1.0000 0.36470  0.33780  0.77360  Biso   1.000  C
  H15      1.0000 0.29770  0.32950  0.81830  Biso   1.000  H
  H16      1.0000 0.35720  0.25290  0.72450  Biso   1.000  H
  C33      1.0000 0.50350  0.39310  0.84920  Biso   1.000  C
  C34      1.0000 0.54160  0.34550  0.93690  Biso   1.000  C
  C35      1.0000 0.66680  0.39650  0.00290  Biso   1.000  C
  H17      1.0000 0.69060  0.36550  0.06080  Biso   1.000  H
  C36      1.0000 0.76080  0.49300  0.98800  Biso   1.000  C
  H18      1.0000 0.84830  0.52770  0.03290  Biso   1.000  H
  C37      1.0000 0.71450  0.53680  0.89740  Biso   1.000  C
  H19      1.0000 0.77460  0.60300  0.88490  Biso   1.000  H
  C38      1.0000 0.46000  0.24200  0.97130  Biso   1.000  C
  H20      1.0000 0.37380  0.20260  0.91940  Biso   1.000  H
  H21      1.0000 0.50810  0.17880  0.97180  Biso   1.000  H
  H22      1.0000 0.44720  0.27840  0.04470  Biso   1.000  H
  N5       1.0000 0.28800  0.89200  0.82900  Biso   1.000  N
  N6       1.0000 0.03220  0.64650  0.72150  Biso   1.000  N
  N7       1.0000 0.61800  0.97600  0.70370  Biso   1.000  N
  N8       1.0000 0.59170  0.48820  0.83170  Biso   1.000  N
  O8       1.0000 0.62540  0.75360  0.82560  Biso   1.000  O
  O9       1.0000 0.40350  0.69340  0.77130  Biso   1.000  O
  O10      1.0000 0.76240  0.58900  0.67390  Biso   1.000  O
  O11      1.0000 0.65350  0.52120  0.49770  Biso   1.000  O
  O12      1.0000 0.53990  0.72900  0.59300  Biso   1.000  O
  O13      1.0000 0.46730  0.65930  0.40830  Biso   1.000  O
  O14      1.0000 0.33770  0.41130  0.71150  Biso   1.000  O
