data_image0
_cell_length_a       28.735
_cell_length_b       14.2112
_cell_length_c       14.3322
_cell_angle_alpha    90
_cell_angle_beta     95.126
_cell_angle_gamma    90

_symmetry_space_group_name_H-M    "P 1"
_symmetry_int_tables_number       1

loop_
  _symmetry_equiv_pos_as_xyz
  'x, y, z'

loop_
  _atom_site_label
  _atom_site_occupancy
  _atom_site_fract_x
  _atom_site_fract_y
  _atom_site_fract_z
  _atom_site_thermal_displace_type
  _atom_site_B_iso_or_equiv
  _atom_site_type_symbol
  Eu1      1.0000 0.31478  0.19578  0.52389  Biso   1.000  Eu
  C1       1.0000 0.40240  0.25350  0.46980  Biso   1.000  C
  C2       1.0000 0.44610  0.28660  0.43140  Biso   1.000  C
  C3       1.0000 0.47340  0.22350  0.39030  Biso   1.000  C
  H1       1.0000 0.46340  0.16170  0.38080  Biso   1.000  H
  C4       1.0000 0.51640  0.25200  0.36250  Biso   1.000  C
  H2       1.0000 0.53630  0.20730  0.34050  Biso   1.000  H
  C5       1.0000 0.52970  0.34270  0.36680  Biso   1.000  C
  C6       1.0000 0.50230  0.40640  0.40240  Biso   1.000  C
  H3       1.0000 0.51130  0.46920  0.40460  Biso   1.000  H
  C7       1.0000 0.45950  0.38000  0.43710  Biso   1.000  C
  H4       1.0000 0.44080  0.42460  0.46310  Biso   1.000  H
  C8       1.0000 0.57650  0.37090  0.33400  Biso   1.000  C
  H5       1.0000 0.59400  0.31600  0.35400  Biso   1.000  H
  C9       1.0000 0.74390  0.60290  0.39220  Biso   1.000  C
  C10      1.0000 0.71240  0.53880  0.33380  Biso   1.000  C
  C11      1.0000 0.66550  0.53030  0.34950  Biso   1.000  C
  H6       1.0000 0.65270  0.57150  0.39070  Biso   1.000  H
  C12      1.0000 0.63770  0.46240  0.30550  Biso   1.000  C
  C13      1.0000 0.65580  0.40800  0.23600  Biso   1.000  C
  H7       1.0000 0.63680  0.36460  0.20240  Biso   1.000  H
  C14      1.0000 0.70230  0.41830  0.21660  Biso   1.000  C
  C15      1.0000 0.73050  0.48290  0.26670  Biso   1.000  C
  H8       1.0000 0.76170  0.48880  0.25530  Biso   1.000  H
  C16      1.0000 0.72190  0.35500  0.14540  Biso   1.000  C
  N1       1.0000 0.59180  0.44980  0.33310  Biso   1.000  N
  O1       1.0000 0.38150  0.30800  0.52190  Biso   1.000  O
  O2       1.0000 0.38760  0.17370  0.45080  Biso   1.000  O
  O3       1.0000 0.78710  0.58510  0.40290  Biso   1.000  O
  O4       1.0000 0.72700  0.67210  0.43400  Biso   1.000  O
  O5       1.0000 0.76230  0.37310  0.12380  Biso   1.000  O
  O6       1.0000 0.69580  0.28990  0.11210  Biso   1.000  O
  Eu2      1.0000 0.81478  0.69578  0.52389  Biso   1.000  Eu
  C17      1.0000 0.90240  0.75350  0.46980  Biso   1.000  C
  C18      1.0000 0.94610  0.78660  0.43140  Biso   1.000  C
  C19      1.0000 0.97340  0.72350  0.39030  Biso   1.000  C
  H9       1.0000 0.96340  0.66170  0.38080  Biso   1.000  H
  C20      1.0000 0.01640  0.75200  0.36250  Biso   1.000  C
  H10      1.0000 0.03630  0.70730  0.34050  Biso   1.000  H
  C21      1.0000 0.02970  0.84270  0.36680  Biso   1.000  C
  C22      1.0000 0.00230  0.90640  0.40240  Biso   1.000  C
  H11      1.0000 0.01130  0.96920  0.40460  Biso   1.000  H
  C23      1.0000 0.95950  0.88000  0.43710  Biso   1.000  C
  H12      1.0000 0.94080  0.92460  0.46310  Biso   1.000  H
  C24      1.0000 0.07650  0.87090  0.33400  Biso   1.000  C
  H13      1.0000 0.09400  0.81600  0.35400  Biso   1.000  H
  C25      1.0000 0.24390  0.10290  0.39220  Biso   1.000  C
  C26      1.0000 0.21240  0.03880  0.33380  Biso   1.000  C
  C27      1.0000 0.16550  0.03030  0.34950  Biso   1.000  C
  H14      1.0000 0.15270  0.07150  0.39070  Biso   1.000  H
  C28      1.0000 0.13770  0.96240  0.30550  Biso   1.000  C
  C29      1.0000 0.15580  0.90800  0.23600  Biso   1.000  C
  H15      1.0000 0.13680  0.86460  0.20240  Biso   1.000  H
  C30      1.0000 0.20230  0.91830  0.21660  Biso   1.000  C
  C31      1.0000 0.23050  0.98290  0.26670  Biso   1.000  C
  H16      1.0000 0.26170  0.98880  0.25530  Biso   1.000  H
  C32      1.0000 0.22190  0.85500  0.14540  Biso   1.000  C
  N2       1.0000 0.09180  0.94980  0.33310  Biso   1.000  N
  O7       1.0000 0.88150  0.80800  0.52190  Biso   1.000  O
  O8       1.0000 0.88760  0.67370  0.45080  Biso   1.000  O
  O9       1.0000 0.28710  0.08510  0.40290  Biso   1.000  O
  O10      1.0000 0.22700  0.17210  0.43400  Biso   1.000  O
  O11      1.0000 0.26230  0.87310  0.12380  Biso   1.000  O
  O12      1.0000 0.19580  0.78990  0.11210  Biso   1.000  O
  Eu3      1.0000 0.68522  0.19578  0.97611  Biso   1.000  Eu
  C33      1.0000 0.59760  0.25350  0.03020  Biso   1.000  C
  C34      1.0000 0.55390  0.28660  0.06860  Biso   1.000  C
  C35      1.0000 0.52660  0.22350  0.10970  Biso   1.000  C
  H17      1.0000 0.53660  0.16170  0.11920  Biso   1.000  H
  C36      1.0000 0.48360  0.25200  0.13750  Biso   1.000  C
  H18      1.0000 0.46370  0.20730  0.15950  Biso   1.000  H
  C37      1.0000 0.47030  0.34270  0.13320  Biso   1.000  C
  C38      1.0000 0.49770  0.40640  0.09760  Biso   1.000  C
  H19      1.0000 0.48870  0.46920  0.09540  Biso   1.000  H
  C39      1.0000 0.54050  0.38000  0.06290  Biso   1.000  C
  H20      1.0000 0.55920  0.42460  0.03690  Biso   1.000  H
  C40      1.0000 0.42350  0.37090  0.16600  Biso   1.000  C
  H21      1.0000 0.40600  0.31600  0.14600  Biso   1.000  H
  C41      1.0000 0.25610  0.60290  0.10780  Biso   1.000  C
  C42      1.0000 0.28760  0.53880  0.16620  Biso   1.000  C
  C43      1.0000 0.33450  0.53030  0.15050  Biso   1.000  C
  H22      1.0000 0.34730  0.57150  0.10930  Biso   1.000  H
  C44      1.0000 0.36230  0.46240  0.19450  Biso   1.000  C
  C45      1.0000 0.34420  0.40800  0.26400  Biso   1.000  C
  H23      1.0000 0.36320  0.36460  0.29760  Biso   1.000  H
  C46      1.0000 0.29770  0.41830  0.28340  Biso   1.000  C
  C47      1.0000 0.26950  0.48290  0.23330  Biso   1.000  C
  H24      1.0000 0.23830  0.48880  0.24470  Biso   1.000  H
  C48      1.0000 0.27810  0.35500  0.35460  Biso   1.000  C
  N3       1.0000 0.40820  0.44980  0.16690  Biso   1.000  N
  O13      1.0000 0.61850  0.30800  0.97810  Biso   1.000  O
  O14      1.0000 0.61240  0.17370  0.04920  Biso   1.000  O
  O15      1.0000 0.21290  0.58510  0.09710  Biso   1.000  O
  O16      1.0000 0.27300  0.67210  0.06600  Biso   1.000  O
  O17      1.0000 0.23770  0.37310  0.37620  Biso   1.000  O
  O18      1.0000 0.30420  0.28990  0.38790  Biso   1.000  O
  Eu4      1.0000 0.18522  0.69578  0.97611  Biso   1.000  Eu
  C49      1.0000 0.09760  0.75350  0.03020  Biso   1.000  C
  C50      1.0000 0.05390  0.78660  0.06860  Biso   1.000  C
  C51      1.0000 0.02660  0.72350  0.10970  Biso   1.000  C
  H25      1.0000 0.03660  0.66170  0.11920  Biso   1.000  H
  C52      1.0000 0.98360  0.75200  0.13750  Biso   1.000  C
  H26      1.0000 0.96370  0.70730  0.15950  Biso   1.000  H
  C53      1.0000 0.97030  0.84270  0.13320  Biso   1.000  C
  C54      1.0000 0.99770  0.90640  0.09760  Biso   1.000  C
  H27      1.0000 0.98870  0.96920  0.09540  Biso   1.000  H
  C55      1.0000 0.04050  0.88000  0.06290  Biso   1.000  C
  H28      1.0000 0.05920  0.92460  0.03690  Biso   1.000  H
  C56      1.0000 0.92350  0.87090  0.16600  Biso   1.000  C
  H29      1.0000 0.90600  0.81600  0.14600  Biso   1.000  H
  C57      1.0000 0.75610  0.10290  0.10780  Biso   1.000  C
  C58      1.0000 0.78760  0.03880  0.16620  Biso   1.000  C
  C59      1.0000 0.83450  0.03030  0.15050  Biso   1.000  C
  H30      1.0000 0.84730  0.07150  0.10930  Biso   1.000  H
  C60      1.0000 0.86230  0.96240  0.19450  Biso   1.000  C
  C61      1.0000 0.84420  0.90800  0.26400  Biso   1.000  C
  H31      1.0000 0.86320  0.86460  0.29760  Biso   1.000  H
  C62      1.0000 0.79770  0.91830  0.28340  Biso   1.000  C
  C63      1.0000 0.76950  0.98290  0.23330  Biso   1.000  C
  H32      1.0000 0.73830  0.98880  0.24470  Biso   1.000  H
  C64      1.0000 0.77810  0.85500  0.35460  Biso   1.000  C
  N4       1.0000 0.90820  0.94980  0.16690  Biso   1.000  N
  O19      1.0000 0.11850  0.80800  0.97810  Biso   1.000  O
  O20      1.0000 0.11240  0.67370  0.04920  Biso   1.000  O
  O21      1.0000 0.71290  0.08510  0.09710  Biso   1.000  O
  O22      1.0000 0.77300  0.17210  0.06600  Biso   1.000  O
  O23      1.0000 0.73770  0.87310  0.37620  Biso   1.000  O
  O24      1.0000 0.80420  0.78990  0.38790  Biso   1.000  O
  Eu5      1.0000 0.68522  0.80422  0.47611  Biso   1.000  Eu
  C65      1.0000 0.59760  0.74650  0.53020  Biso   1.000  C
  C66      1.0000 0.55390  0.71340  0.56860  Biso   1.000  C
  C67      1.0000 0.52660  0.77650  0.60970  Biso   1.000  C
  H33      1.0000 0.53660  0.83830  0.61920  Biso   1.000  H
  C68      1.0000 0.48360  0.74800  0.63750  Biso   1.000  C
  H34      1.0000 0.46370  0.79270  0.65950  Biso   1.000  H
  C69      1.0000 0.47030  0.65730  0.63320  Biso   1.000  C
  C70      1.0000 0.49770  0.59360  0.59760  Biso   1.000  C
  H35      1.0000 0.48870  0.53080  0.59540  Biso   1.000  H
  C71      1.0000 0.54050  0.62000  0.56290  Biso   1.000  C
  H36      1.0000 0.55920  0.57540  0.53690  Biso   1.000  H
  C72      1.0000 0.42350  0.62910  0.66600  Biso   1.000  C
  H37      1.0000 0.40600  0.68400  0.64600  Biso   1.000  H
  C73      1.0000 0.25610  0.39710  0.60780  Biso   1.000  C
  C74      1.0000 0.28760  0.46120  0.66620  Biso   1.000  C
  C75      1.0000 0.33450  0.46970  0.65050  Biso   1.000  C
  H38      1.0000 0.34730  0.42850  0.60930  Biso   1.000  H
  C76      1.0000 0.36230  0.53760  0.69450  Biso   1.000  C
  C77      1.0000 0.34420  0.59200  0.76400  Biso   1.000  C
  H39      1.0000 0.36320  0.63540  0.79760  Biso   1.000  H
  C78      1.0000 0.29770  0.58170  0.78340  Biso   1.000  C
  C79      1.0000 0.26950  0.51710  0.73330  Biso   1.000  C
  H40      1.0000 0.23830  0.51120  0.74470  Biso   1.000  H
  C80      1.0000 0.27810  0.64500  0.85460  Biso   1.000  C
  N5       1.0000 0.40820  0.55020  0.66690  Biso   1.000  N
  O25      1.0000 0.61850  0.69200  0.47810  Biso   1.000  O
  O26      1.0000 0.61240  0.82630  0.54920  Biso   1.000  O
  O27      1.0000 0.21290  0.41490  0.59710  Biso   1.000  O
  O28      1.0000 0.27300  0.32790  0.56600  Biso   1.000  O
  O29      1.0000 0.23770  0.62690  0.87620  Biso   1.000  O
  O30      1.0000 0.30420  0.71010  0.88790  Biso   1.000  O
  Eu6      1.0000 0.18522  0.30422  0.47611  Biso   1.000  Eu
  C81      1.0000 0.09760  0.24650  0.53020  Biso   1.000  C
  C82      1.0000 0.05390  0.21340  0.56860  Biso   1.000  C
  C83      1.0000 0.02660  0.27650  0.60970  Biso   1.000  C
  H41      1.0000 0.03660  0.33830  0.61920  Biso   1.000  H
  C84      1.0000 0.98360  0.24800  0.63750  Biso   1.000  C
  H42      1.0000 0.96370  0.29270  0.65950  Biso   1.000  H
  C85      1.0000 0.97030  0.15730  0.63320  Biso   1.000  C
  C86      1.0000 0.99770  0.09360  0.59760  Biso   1.000  C
  H43      1.0000 0.98870  0.03080  0.59540  Biso   1.000  H
  C87      1.0000 0.04050  0.12000  0.56290  Biso   1.000  C
  H44      1.0000 0.05920  0.07540  0.53690  Biso   1.000  H
  C88      1.0000 0.92350  0.12910  0.66600  Biso   1.000  C
  H45      1.0000 0.90600  0.18400  0.64600  Biso   1.000  H
  C89      1.0000 0.75610  0.89710  0.60780  Biso   1.000  C
  C90      1.0000 0.78760  0.96120  0.66620  Biso   1.000  C
  C91      1.0000 0.83450  0.96970  0.65050  Biso   1.000  C
  H46      1.0000 0.84730  0.92850  0.60930  Biso   1.000  H
  C92      1.0000 0.86230  0.03760  0.69450  Biso   1.000  C
  C93      1.0000 0.84420  0.09200  0.76400  Biso   1.000  C
  H47      1.0000 0.86320  0.13540  0.79760  Biso   1.000  H
  C94      1.0000 0.79770  0.08170  0.78340  Biso   1.000  C
  C95      1.0000 0.76950  0.01710  0.73330  Biso   1.000  C
  H48      1.0000 0.73830  0.01120  0.74470  Biso   1.000  H
  C96      1.0000 0.77810  0.14500  0.85460  Biso   1.000  C
  N6       1.0000 0.90820  0.05020  0.66690  Biso   1.000  N
  O31      1.0000 0.11850  0.19200  0.47810  Biso   1.000  O
  O32      1.0000 0.11240  0.32630  0.54920  Biso   1.000  O
  O33      1.0000 0.71290  0.91490  0.59710  Biso   1.000  O
  O34      1.0000 0.77300  0.82790  0.56600  Biso   1.000  O
  O35      1.0000 0.73770  0.12690  0.87620  Biso   1.000  O
  O36      1.0000 0.80420  0.21010  0.88790  Biso   1.000  O
  Eu7      1.0000 0.31478  0.80422  0.02389  Biso   1.000  Eu
  C97      1.0000 0.40240  0.74650  0.96980  Biso   1.000  C
  C98      1.0000 0.44610  0.71340  0.93140  Biso   1.000  C
  C99      1.0000 0.47340  0.77650  0.89030  Biso   1.000  C
  H49      1.0000 0.46340  0.83830  0.88080  Biso   1.000  H
  C100     1.0000 0.51640  0.74800  0.86250  Biso   1.000  C
  H50      1.0000 0.53630  0.79270  0.84050  Biso   1.000  H
  C101     1.0000 0.52970  0.65730  0.86680  Biso   1.000  C
  C102     1.0000 0.50230  0.59360  0.90240  Biso   1.000  C
  H51      1.0000 0.51130  0.53080  0.90460  Biso   1.000  H
  C103     1.0000 0.45950  0.62000  0.93710  Biso   1.000  C
  H52      1.0000 0.44080  0.57540  0.96310  Biso   1.000  H
  C104     1.0000 0.57650  0.62910  0.83400  Biso   1.000  C
  H53      1.0000 0.59400  0.68400  0.85400  Biso   1.000  H
  C105     1.0000 0.74390  0.39710  0.89220  Biso   1.000  C
  C106     1.0000 0.71240  0.46120  0.83380  Biso   1.000  C
  C107     1.0000 0.66550  0.46970  0.84950  Biso   1.000  C
  H54      1.0000 0.65270  0.42850  0.89070  Biso   1.000  H
  C108     1.0000 0.63770  0.53760  0.80550  Biso   1.000  C
  C109     1.0000 0.65580  0.59200  0.73600  Biso   1.000  C
  H55      1.0000 0.63680  0.63540  0.70240  Biso   1.000  H
  C110     1.0000 0.70230  0.58170  0.71660  Biso   1.000  C
  C111     1.0000 0.73050  0.51710  0.76670  Biso   1.000  C
  H56      1.0000 0.76170  0.51120  0.75530  Biso   1.000  H
  C112     1.0000 0.72190  0.64500  0.64540  Biso   1.000  C
  N7       1.0000 0.59180  0.55020  0.83310  Biso   1.000  N
  O37      1.0000 0.38150  0.69200  0.02190  Biso   1.000  O
  O38      1.0000 0.38760  0.82630  0.95080  Biso   1.000  O
  O39      1.0000 0.78710  0.41490  0.90290  Biso   1.000  O
  O40      1.0000 0.72700  0.32790  0.93400  Biso   1.000  O
  O41      1.0000 0.76230  0.62690  0.62380  Biso   1.000  O
  O42      1.0000 0.69580  0.71010  0.61210  Biso   1.000  O
  Eu8      1.0000 0.81478  0.30422  0.02389  Biso   1.000  Eu
  C113     1.0000 0.90240  0.24650  0.96980  Biso   1.000  C
  C114     1.0000 0.94610  0.21340  0.93140  Biso   1.000  C
  C115     1.0000 0.97340  0.27650  0.89030  Biso   1.000  C
  H57      1.0000 0.96340  0.33830  0.88080  Biso   1.000  H
  C116     1.0000 0.01640  0.24800  0.86250  Biso   1.000  C
  H58      1.0000 0.03630  0.29270  0.84050  Biso   1.000  H
  C117     1.0000 0.02970  0.15730  0.86680  Biso   1.000  C
  C118     1.0000 0.00230  0.09360  0.90240  Biso   1.000  C
  H59      1.0000 0.01130  0.03080  0.90460  Biso   1.000  H
  C119     1.0000 0.95950  0.12000  0.93710  Biso   1.000  C
  H60      1.0000 0.94080  0.07540  0.96310  Biso   1.000  H
  C120     1.0000 0.07650  0.12910  0.83400  Biso   1.000  C
  H61      1.0000 0.09400  0.18400  0.85400  Biso   1.000  H
  C121     1.0000 0.24390  0.89710  0.89220  Biso   1.000  C
  C122     1.0000 0.21240  0.96120  0.83380  Biso   1.000  C
  C123     1.0000 0.16550  0.96970  0.84950  Biso   1.000  C
  H62      1.0000 0.15270  0.92850  0.89070  Biso   1.000  H
  C124     1.0000 0.13770  0.03760  0.80550  Biso   1.000  C
  C125     1.0000 0.15580  0.09200  0.73600  Biso   1.000  C
  H63      1.0000 0.13680  0.13540  0.70240  Biso   1.000  H
  C126     1.0000 0.20230  0.08170  0.71660  Biso   1.000  C
  C127     1.0000 0.23050  0.01710  0.76670  Biso   1.000  C
  H64      1.0000 0.26170  0.01120  0.75530  Biso   1.000  H
  C128     1.0000 0.22190  0.14500  0.64540  Biso   1.000  C
  N8       1.0000 0.09180  0.05020  0.83310  Biso   1.000  N
  O43      1.0000 0.88150  0.19200  0.02190  Biso   1.000  O
  O44      1.0000 0.88760  0.32630  0.95080  Biso   1.000  O
  O45      1.0000 0.28710  0.91490  0.90290  Biso   1.000  O
  O46      1.0000 0.22700  0.82790  0.93400  Biso   1.000  O
  O47      1.0000 0.26230  0.12690  0.62380  Biso   1.000  O
  O48      1.0000 0.19580  0.21010  0.61210  Biso   1.000  O
