data_image0
_cell_length_a       29.705
_cell_length_b       12.9699
_cell_length_c       13.8285
_cell_angle_alpha    90
_cell_angle_beta     95.247
_cell_angle_gamma    90

_symmetry_space_group_name_H-M    "P 1"
_symmetry_int_tables_number       1

loop_
  _symmetry_equiv_pos_as_xyz
  'x, y, z'

loop_
  _atom_site_label
  _atom_site_occupancy
  _atom_site_fract_x
  _atom_site_fract_y
  _atom_site_fract_z
  _atom_site_thermal_displace_type
  _atom_site_B_iso_or_equiv
  _atom_site_type_symbol
  Eu1      1.0000 0.31438  0.80006  0.03656  Biso   1.000  Eu
  C1       1.0000 0.60264  0.75520  0.53910  Biso   1.000  C
  C2       1.0000 0.55650  0.73430  0.56840  Biso   1.000  C
  C3       1.0000 0.54185  0.63390  0.57970  Biso   1.000  C
  H1       1.0000 0.56150  0.57940  0.57110  Biso   1.000  H
  C4       1.0000 0.49846  0.61350  0.60360  Biso   1.000  C
  H2       1.0000 0.48900  0.54570  0.61070  Biso   1.000  H
  C5       1.0000 0.52668  0.81480  0.58100  Biso   1.000  C
  H3       1.0000 0.53590  0.88250  0.57280  Biso   1.000  H
  C6       1.0000 0.46898  0.69450  0.61700  Biso   1.000  C
  C7       1.0000 0.48340  0.79500  0.60560  Biso   1.000  C
  H4       1.0000 0.46390  0.84950  0.61460  Biso   1.000  H
  C8       1.0000 0.42188  0.67630  0.63760  Biso   1.000  C
  C9       1.0000 0.25575  0.43780  0.55500  Biso   1.000  C
  C10      1.0000 0.28525  0.51030  0.61520  Biso   1.000  C
  C11      1.0000 0.26577  0.57660  0.67900  Biso   1.000  C
  H5       1.0000 0.23460  0.57790  0.68120  Biso   1.000  H
  C12      1.0000 0.29325  0.64070  0.73940  Biso   1.000  C
  C13      1.0000 0.33916  0.64470  0.73030  Biso   1.000  C
  H6       1.0000 0.35740  0.68910  0.76950  Biso   1.000  H
  C14      1.0000 0.35826  0.58250  0.66270  Biso   1.000  C
  C15      1.0000 0.33155  0.51210  0.60800  Biso   1.000  C
  H7       1.0000 0.34460  0.46640  0.56690  Biso   1.000  H
  C16      1.0000 0.27269  0.70190  0.81750  Biso   1.000  C
  C17      1.0000 0.32000  0.01590  0.18550  Biso   1.000  C
  H8       1.0000 0.28870  0.01380  0.17310  Biso   1.000  H
  C18      1.0000 0.38680  0.06020  0.24780  Biso   1.000  C
  H9       1.0000 0.41030  0.09340  0.28440  Biso   1.000  H
  C19      1.0000 0.39070  0.98250  0.18340  Biso   1.000  C
  C20      1.0000 0.43299  0.93180  0.15660  Biso   1.000  C
  H10      1.0000 0.42540  0.87940  0.10880  Biso   1.000  H
  H11      1.0000 0.44860  0.90110  0.21330  Biso   1.000  H
  H12      1.0000 0.45210  0.98240  0.13050  Biso   1.000  H
  N1       1.0000 0.40512  0.58770  0.64640  Biso   1.000  N
  N2       1.0000 0.34772  0.95500  0.14230  Biso   1.000  N
  N3       1.0000 0.34153  0.08050  0.24850  Biso   1.000  N
  O1       1.0000 0.61635  0.84770  0.53660  Biso   1.000  O
  O2       1.0000 0.62702  0.68100  0.51650  Biso   1.000  O
  O3       1.0000 0.27225  0.35460  0.52540  Biso   1.000  O
  O4       1.0000 0.21507  0.45980  0.53520  Biso   1.000  O
  O5       1.0000 0.23316  0.68160  0.83330  Biso   1.000  O
  O6       1.0000 0.29786  0.76960  0.86240  Biso   1.000  O
  H13      1.0000 0.40330  0.73900  0.64500  Biso   1.000  H
  H14      1.0000 0.32680  0.12900  0.29000  Biso   1.000  H
  Eu2      1.0000 0.81438  0.30006  0.03656  Biso   1.000  Eu
  C21      1.0000 0.10264  0.25520  0.53910  Biso   1.000  C
  C22      1.0000 0.05650  0.23430  0.56840  Biso   1.000  C
  C23      1.0000 0.04185  0.13390  0.57970  Biso   1.000  C
  H15      1.0000 0.06150  0.07940  0.57110  Biso   1.000  H
  C24      1.0000 0.99846  0.11350  0.60360  Biso   1.000  C
  H16      1.0000 0.98900  0.04570  0.61070  Biso   1.000  H
  C25      1.0000 0.02668  0.31480  0.58100  Biso   1.000  C
  H17      1.0000 0.03590  0.38250  0.57280  Biso   1.000  H
  C26      1.0000 0.96898  0.19450  0.61700  Biso   1.000  C
  C27      1.0000 0.98340  0.29500  0.60560  Biso   1.000  C
  H18      1.0000 0.96390  0.34950  0.61460  Biso   1.000  H
  C28      1.0000 0.92188  0.17630  0.63760  Biso   1.000  C
  C29      1.0000 0.75575  0.93780  0.55500  Biso   1.000  C
  C30      1.0000 0.78525  0.01030  0.61520  Biso   1.000  C
  C31      1.0000 0.76577  0.07660  0.67900  Biso   1.000  C
  H19      1.0000 0.73460  0.07790  0.68120  Biso   1.000  H
  C32      1.0000 0.79325  0.14070  0.73940  Biso   1.000  C
  C33      1.0000 0.83916  0.14470  0.73030  Biso   1.000  C
  H20      1.0000 0.85740  0.18910  0.76950  Biso   1.000  H
  C34      1.0000 0.85826  0.08250  0.66270  Biso   1.000  C
  C35      1.0000 0.83155  0.01210  0.60800  Biso   1.000  C
  H21      1.0000 0.84460  0.96640  0.56690  Biso   1.000  H
  C36      1.0000 0.77269  0.20190  0.81750  Biso   1.000  C
  C37      1.0000 0.82000  0.51590  0.18550  Biso   1.000  C
  H22      1.0000 0.78870  0.51380  0.17310  Biso   1.000  H
  C38      1.0000 0.88680  0.56020  0.24780  Biso   1.000  C
  H23      1.0000 0.91030  0.59340  0.28440  Biso   1.000  H
  C39      1.0000 0.89070  0.48250  0.18340  Biso   1.000  C
  C40      1.0000 0.93299  0.43180  0.15660  Biso   1.000  C
  H24      1.0000 0.92540  0.37940  0.10880  Biso   1.000  H
  H25      1.0000 0.94860  0.40110  0.21330  Biso   1.000  H
  H26      1.0000 0.95210  0.48240  0.13050  Biso   1.000  H
  N4       1.0000 0.90512  0.08770  0.64640  Biso   1.000  N
  N5       1.0000 0.84772  0.45500  0.14230  Biso   1.000  N
  N6       1.0000 0.84153  0.58050  0.24850  Biso   1.000  N
  O7       1.0000 0.11635  0.34770  0.53660  Biso   1.000  O
  O8       1.0000 0.12702  0.18100  0.51650  Biso   1.000  O
  O9       1.0000 0.77225  0.85460  0.52540  Biso   1.000  O
  O10      1.0000 0.71507  0.95980  0.53520  Biso   1.000  O
  O11      1.0000 0.73316  0.18160  0.83330  Biso   1.000  O
  O12      1.0000 0.79786  0.26960  0.86240  Biso   1.000  O
  H27      1.0000 0.90330  0.23900  0.64500  Biso   1.000  H
  H28      1.0000 0.82680  0.62900  0.29000  Biso   1.000  H
  Eu3      1.0000 0.68562  0.80006  0.46344  Biso   1.000  Eu
  C41      1.0000 0.39736  0.75520  0.96090  Biso   1.000  C
  C42      1.0000 0.44350  0.73430  0.93160  Biso   1.000  C
  C43      1.0000 0.45815  0.63390  0.92030  Biso   1.000  C
  H29      1.0000 0.43850  0.57940  0.92890  Biso   1.000  H
  C44      1.0000 0.50154  0.61350  0.89640  Biso   1.000  C
  H30      1.0000 0.51100  0.54570  0.88930  Biso   1.000  H
  C45      1.0000 0.47332  0.81480  0.91900  Biso   1.000  C
  H31      1.0000 0.46410  0.88250  0.92720  Biso   1.000  H
  C46      1.0000 0.53102  0.69450  0.88300  Biso   1.000  C
  C47      1.0000 0.51660  0.79500  0.89440  Biso   1.000  C
  H32      1.0000 0.53610  0.84950  0.88540  Biso   1.000  H
  C48      1.0000 0.57812  0.67630  0.86240  Biso   1.000  C
  C49      1.0000 0.74425  0.43780  0.94500  Biso   1.000  C
  C50      1.0000 0.71475  0.51030  0.88480  Biso   1.000  C
  C51      1.0000 0.73423  0.57660  0.82100  Biso   1.000  C
  H33      1.0000 0.76540  0.57790  0.81880  Biso   1.000  H
  C52      1.0000 0.70675  0.64070  0.76060  Biso   1.000  C
  C53      1.0000 0.66084  0.64470  0.76970  Biso   1.000  C
  H34      1.0000 0.64260  0.68910  0.73050  Biso   1.000  H
  C54      1.0000 0.64174  0.58250  0.83730  Biso   1.000  C
  C55      1.0000 0.66845  0.51210  0.89200  Biso   1.000  C
  H35      1.0000 0.65540  0.46640  0.93310  Biso   1.000  H
  C56      1.0000 0.72731  0.70190  0.68250  Biso   1.000  C
  C57      1.0000 0.68000  0.01590  0.31450  Biso   1.000  C
  H36      1.0000 0.71130  0.01380  0.32690  Biso   1.000  H
  C58      1.0000 0.61320  0.06020  0.25220  Biso   1.000  C
  H37      1.0000 0.58970  0.09340  0.21560  Biso   1.000  H
  C59      1.0000 0.60930  0.98250  0.31660  Biso   1.000  C
  C60      1.0000 0.56701  0.93180  0.34340  Biso   1.000  C
  H38      1.0000 0.57460  0.87940  0.39120  Biso   1.000  H
  H39      1.0000 0.55140  0.90110  0.28670  Biso   1.000  H
  H40      1.0000 0.54790  0.98240  0.36950  Biso   1.000  H
  N7       1.0000 0.59488  0.58770  0.85360  Biso   1.000  N
  N8       1.0000 0.65228  0.95500  0.35770  Biso   1.000  N
  N9       1.0000 0.65847  0.08050  0.25150  Biso   1.000  N
  O13      1.0000 0.38365  0.84770  0.96340  Biso   1.000  O
  O14      1.0000 0.37298  0.68100  0.98350  Biso   1.000  O
  O15      1.0000 0.72775  0.35460  0.97460  Biso   1.000  O
  O16      1.0000 0.78493  0.45980  0.96480  Biso   1.000  O
  O17      1.0000 0.76684  0.68160  0.66670  Biso   1.000  O
  O18      1.0000 0.70214  0.76960  0.63760  Biso   1.000  O
  H41      1.0000 0.59670  0.73900  0.85500  Biso   1.000  H
  H42      1.0000 0.67320  0.12900  0.21000  Biso   1.000  H
  Eu4      1.0000 0.18562  0.30006  0.46344  Biso   1.000  Eu
  C61      1.0000 0.89736  0.25520  0.96090  Biso   1.000  C
  C62      1.0000 0.94350  0.23430  0.93160  Biso   1.000  C
  C63      1.0000 0.95815  0.13390  0.92030  Biso   1.000  C
  H43      1.0000 0.93850  0.07940  0.92890  Biso   1.000  H
  C64      1.0000 0.00154  0.11350  0.89640  Biso   1.000  C
  H44      1.0000 0.01100  0.04570  0.88930  Biso   1.000  H
  C65      1.0000 0.97332  0.31480  0.91900  Biso   1.000  C
  H45      1.0000 0.96410  0.38250  0.92720  Biso   1.000  H
  C66      1.0000 0.03102  0.19450  0.88300  Biso   1.000  C
  C67      1.0000 0.01660  0.29500  0.89440  Biso   1.000  C
  H46      1.0000 0.03610  0.34950  0.88540  Biso   1.000  H
  C68      1.0000 0.07812  0.17630  0.86240  Biso   1.000  C
  C69      1.0000 0.24425  0.93780  0.94500  Biso   1.000  C
  C70      1.0000 0.21475  0.01030  0.88480  Biso   1.000  C
  C71      1.0000 0.23423  0.07660  0.82100  Biso   1.000  C
  H47      1.0000 0.26540  0.07790  0.81880  Biso   1.000  H
  C72      1.0000 0.20675  0.14070  0.76060  Biso   1.000  C
  C73      1.0000 0.16084  0.14470  0.76970  Biso   1.000  C
  H48      1.0000 0.14260  0.18910  0.73050  Biso   1.000  H
  C74      1.0000 0.14174  0.08250  0.83730  Biso   1.000  C
  C75      1.0000 0.16845  0.01210  0.89200  Biso   1.000  C
  H49      1.0000 0.15540  0.96640  0.93310  Biso   1.000  H
  C76      1.0000 0.22731  0.20190  0.68250  Biso   1.000  C
  C77      1.0000 0.18000  0.51590  0.31450  Biso   1.000  C
  H50      1.0000 0.21130  0.51380  0.32690  Biso   1.000  H
  C78      1.0000 0.11320  0.56020  0.25220  Biso   1.000  C
  H51      1.0000 0.08970  0.59340  0.21560  Biso   1.000  H
  C79      1.0000 0.10930  0.48250  0.31660  Biso   1.000  C
  C80      1.0000 0.06701  0.43180  0.34340  Biso   1.000  C
  H52      1.0000 0.07460  0.37940  0.39120  Biso   1.000  H
  H53      1.0000 0.05140  0.40110  0.28670  Biso   1.000  H
  H54      1.0000 0.04790  0.48240  0.36950  Biso   1.000  H
  N10      1.0000 0.09488  0.08770  0.85360  Biso   1.000  N
  N11      1.0000 0.15228  0.45500  0.35770  Biso   1.000  N
  N12      1.0000 0.15847  0.58050  0.25150  Biso   1.000  N
  O19      1.0000 0.88365  0.34770  0.96340  Biso   1.000  O
  O20      1.0000 0.87298  0.18100  0.98350  Biso   1.000  O
  O21      1.0000 0.22775  0.85460  0.97460  Biso   1.000  O
  O22      1.0000 0.28493  0.95980  0.96480  Biso   1.000  O
  O23      1.0000 0.26684  0.18160  0.66670  Biso   1.000  O
  O24      1.0000 0.20214  0.26960  0.63760  Biso   1.000  O
  H55      1.0000 0.09670  0.23900  0.85500  Biso   1.000  H
  H56      1.0000 0.17320  0.62900  0.21000  Biso   1.000  H
  Eu5      1.0000 0.68562  0.19994  0.96344  Biso   1.000  Eu
  C81      1.0000 0.39736  0.24480  0.46090  Biso   1.000  C
  C82      1.0000 0.44350  0.26570  0.43160  Biso   1.000  C
  C83      1.0000 0.45815  0.36610  0.42030  Biso   1.000  C
  H57      1.0000 0.43850  0.42060  0.42890  Biso   1.000  H
  C84      1.0000 0.50154  0.38650  0.39640  Biso   1.000  C
  H58      1.0000 0.51100  0.45430  0.38930  Biso   1.000  H
  C85      1.0000 0.47332  0.18520  0.41900  Biso   1.000  C
  H59      1.0000 0.46410  0.11750  0.42720  Biso   1.000  H
  C86      1.0000 0.53102  0.30550  0.38300  Biso   1.000  C
  C87      1.0000 0.51660  0.20500  0.39440  Biso   1.000  C
  H60      1.0000 0.53610  0.15050  0.38540  Biso   1.000  H
  C88      1.0000 0.57812  0.32370  0.36240  Biso   1.000  C
  C89      1.0000 0.74425  0.56220  0.44500  Biso   1.000  C
  C90      1.0000 0.71475  0.48970  0.38480  Biso   1.000  C
  C91      1.0000 0.73423  0.42340  0.32100  Biso   1.000  C
  H61      1.0000 0.76540  0.42210  0.31880  Biso   1.000  H
  C92      1.0000 0.70675  0.35930  0.26060  Biso   1.000  C
  C93      1.0000 0.66084  0.35530  0.26970  Biso   1.000  C
  H62      1.0000 0.64260  0.31090  0.23050  Biso   1.000  H
  C94      1.0000 0.64174  0.41750  0.33730  Biso   1.000  C
  C95      1.0000 0.66845  0.48790  0.39200  Biso   1.000  C
  H63      1.0000 0.65540  0.53360  0.43310  Biso   1.000  H
  C96      1.0000 0.72731  0.29810  0.18250  Biso   1.000  C
  C97      1.0000 0.68000  0.98410  0.81450  Biso   1.000  C
  H64      1.0000 0.71130  0.98620  0.82690  Biso   1.000  H
  C98      1.0000 0.61320  0.93980  0.75220  Biso   1.000  C
  H65      1.0000 0.58970  0.90660  0.71560  Biso   1.000  H
  C99      1.0000 0.60930  0.01750  0.81660  Biso   1.000  C
  C100     1.0000 0.56701  0.06820  0.84340  Biso   1.000  C
  H66      1.0000 0.57460  0.12060  0.89120  Biso   1.000  H
  H67      1.0000 0.55140  0.09890  0.78670  Biso   1.000  H
  H68      1.0000 0.54790  0.01760  0.86950  Biso   1.000  H
  N13      1.0000 0.59488  0.41230  0.35360  Biso   1.000  N
  N14      1.0000 0.65228  0.04500  0.85770  Biso   1.000  N
  N15      1.0000 0.65847  0.91950  0.75150  Biso   1.000  N
  O25      1.0000 0.38365  0.15230  0.46340  Biso   1.000  O
  O26      1.0000 0.37298  0.31900  0.48350  Biso   1.000  O
  O27      1.0000 0.72775  0.64540  0.47460  Biso   1.000  O
  O28      1.0000 0.78493  0.54020  0.46480  Biso   1.000  O
  O29      1.0000 0.76684  0.31840  0.16670  Biso   1.000  O
  O30      1.0000 0.70214  0.23040  0.13760  Biso   1.000  O
  H69      1.0000 0.59670  0.26100  0.35500  Biso   1.000  H
  H70      1.0000 0.67320  0.87100  0.71000  Biso   1.000  H
  Eu6      1.0000 0.18562  0.69994  0.96344  Biso   1.000  Eu
  C101     1.0000 0.89736  0.74480  0.46090  Biso   1.000  C
  C102     1.0000 0.94350  0.76570  0.43160  Biso   1.000  C
  C103     1.0000 0.95815  0.86610  0.42030  Biso   1.000  C
  H71      1.0000 0.93850  0.92060  0.42890  Biso   1.000  H
  C104     1.0000 0.00154  0.88650  0.39640  Biso   1.000  C
  H72      1.0000 0.01100  0.95430  0.38930  Biso   1.000  H
  C105     1.0000 0.97332  0.68520  0.41900  Biso   1.000  C
  H73      1.0000 0.96410  0.61750  0.42720  Biso   1.000  H
  C106     1.0000 0.03102  0.80550  0.38300  Biso   1.000  C
  C107     1.0000 0.01660  0.70500  0.39440  Biso   1.000  C
  H74      1.0000 0.03610  0.65050  0.38540  Biso   1.000  H
  C108     1.0000 0.07812  0.82370  0.36240  Biso   1.000  C
  C109     1.0000 0.24425  0.06220  0.44500  Biso   1.000  C
  C110     1.0000 0.21475  0.98970  0.38480  Biso   1.000  C
  C111     1.0000 0.23423  0.92340  0.32100  Biso   1.000  C
  H75      1.0000 0.26540  0.92210  0.31880  Biso   1.000  H
  C112     1.0000 0.20675  0.85930  0.26060  Biso   1.000  C
  C113     1.0000 0.16084  0.85530  0.26970  Biso   1.000  C
  H76      1.0000 0.14260  0.81090  0.23050  Biso   1.000  H
  C114     1.0000 0.14174  0.91750  0.33730  Biso   1.000  C
  C115     1.0000 0.16845  0.98790  0.39200  Biso   1.000  C
  H77      1.0000 0.15540  0.03360  0.43310  Biso   1.000  H
  C116     1.0000 0.22731  0.79810  0.18250  Biso   1.000  C
  C117     1.0000 0.18000  0.48410  0.81450  Biso   1.000  C
  H78      1.0000 0.21130  0.48620  0.82690  Biso   1.000  H
  C118     1.0000 0.11320  0.43980  0.75220  Biso   1.000  C
  H79      1.0000 0.08970  0.40660  0.71560  Biso   1.000  H
  C119     1.0000 0.10930  0.51750  0.81660  Biso   1.000  C
  C120     1.0000 0.06701  0.56820  0.84340  Biso   1.000  C
  H80      1.0000 0.07460  0.62060  0.89120  Biso   1.000  H
  H81      1.0000 0.05140  0.59890  0.78670  Biso   1.000  H
  H82      1.0000 0.04790  0.51760  0.86950  Biso   1.000  H
  N16      1.0000 0.09488  0.91230  0.35360  Biso   1.000  N
  N17      1.0000 0.15228  0.54500  0.85770  Biso   1.000  N
  N18      1.0000 0.15847  0.41950  0.75150  Biso   1.000  N
  O31      1.0000 0.88365  0.65230  0.46340  Biso   1.000  O
  O32      1.0000 0.87298  0.81900  0.48350  Biso   1.000  O
  O33      1.0000 0.22775  0.14540  0.47460  Biso   1.000  O
  O34      1.0000 0.28493  0.04020  0.46480  Biso   1.000  O
  O35      1.0000 0.26684  0.81840  0.16670  Biso   1.000  O
  O36      1.0000 0.20214  0.73040  0.13760  Biso   1.000  O
  H83      1.0000 0.09670  0.76100  0.35500  Biso   1.000  H
  H84      1.0000 0.17320  0.37100  0.71000  Biso   1.000  H
  Eu7      1.0000 0.31438  0.19994  0.53656  Biso   1.000  Eu
  C121     1.0000 0.60264  0.24480  0.03910  Biso   1.000  C
  C122     1.0000 0.55650  0.26570  0.06840  Biso   1.000  C
  C123     1.0000 0.54185  0.36610  0.07970  Biso   1.000  C
  H85      1.0000 0.56150  0.42060  0.07110  Biso   1.000  H
  C124     1.0000 0.49846  0.38650  0.10360  Biso   1.000  C
  H86      1.0000 0.48900  0.45430  0.11070  Biso   1.000  H
  C125     1.0000 0.52668  0.18520  0.08100  Biso   1.000  C
  H87      1.0000 0.53590  0.11750  0.07280  Biso   1.000  H
  C126     1.0000 0.46898  0.30550  0.11700  Biso   1.000  C
  C127     1.0000 0.48340  0.20500  0.10560  Biso   1.000  C
  H88      1.0000 0.46390  0.15050  0.11460  Biso   1.000  H
  C128     1.0000 0.42188  0.32370  0.13760  Biso   1.000  C
  C129     1.0000 0.25575  0.56220  0.05500  Biso   1.000  C
  C130     1.0000 0.28525  0.48970  0.11520  Biso   1.000  C
  C131     1.0000 0.26577  0.42340  0.17900  Biso   1.000  C
  H89      1.0000 0.23460  0.42210  0.18120  Biso   1.000  H
  C132     1.0000 0.29325  0.35930  0.23940  Biso   1.000  C
  C133     1.0000 0.33916  0.35530  0.23030  Biso   1.000  C
  H90      1.0000 0.35740  0.31090  0.26950  Biso   1.000  H
  C134     1.0000 0.35826  0.41750  0.16270  Biso   1.000  C
  C135     1.0000 0.33155  0.48790  0.10800  Biso   1.000  C
  H91      1.0000 0.34460  0.53360  0.06690  Biso   1.000  H
  C136     1.0000 0.27269  0.29810  0.31750  Biso   1.000  C
  C137     1.0000 0.32000  0.98410  0.68550  Biso   1.000  C
  H92      1.0000 0.28870  0.98620  0.67310  Biso   1.000  H
  C138     1.0000 0.38680  0.93980  0.74780  Biso   1.000  C
  H93      1.0000 0.41030  0.90660  0.78440  Biso   1.000  H
  C139     1.0000 0.39070  0.01750  0.68340  Biso   1.000  C
  C140     1.0000 0.43299  0.06820  0.65660  Biso   1.000  C
  H94      1.0000 0.42540  0.12060  0.60880  Biso   1.000  H
  H95      1.0000 0.44860  0.09890  0.71330  Biso   1.000  H
  H96      1.0000 0.45210  0.01760  0.63050  Biso   1.000  H
  N19      1.0000 0.40512  0.41230  0.14640  Biso   1.000  N
  N20      1.0000 0.34772  0.04500  0.64230  Biso   1.000  N
  N21      1.0000 0.34153  0.91950  0.74850  Biso   1.000  N
  O37      1.0000 0.61635  0.15230  0.03660  Biso   1.000  O
  O38      1.0000 0.62702  0.31900  0.01650  Biso   1.000  O
  O39      1.0000 0.27225  0.64540  0.02540  Biso   1.000  O
  O40      1.0000 0.21507  0.54020  0.03520  Biso   1.000  O
  O41      1.0000 0.23316  0.31840  0.33330  Biso   1.000  O
  O42      1.0000 0.29786  0.23040  0.36240  Biso   1.000  O
  H97      1.0000 0.40330  0.26100  0.14500  Biso   1.000  H
  H98      1.0000 0.32680  0.87100  0.79000  Biso   1.000  H
  Eu8      1.0000 0.81438  0.69994  0.53656  Biso   1.000  Eu
  C141     1.0000 0.10264  0.74480  0.03910  Biso   1.000  C
  C142     1.0000 0.05650  0.76570  0.06840  Biso   1.000  C
  C143     1.0000 0.04185  0.86610  0.07970  Biso   1.000  C
  H99      1.0000 0.06150  0.92060  0.07110  Biso   1.000  H
  C144     1.0000 0.99846  0.88650  0.10360  Biso   1.000  C
  H100     1.0000 0.98900  0.95430  0.11070  Biso   1.000  H
  C145     1.0000 0.02668  0.68520  0.08100  Biso   1.000  C
  H101     1.0000 0.03590  0.61750  0.07280  Biso   1.000  H
  C146     1.0000 0.96898  0.80550  0.11700  Biso   1.000  C
  C147     1.0000 0.98340  0.70500  0.10560  Biso   1.000  C
  H102     1.0000 0.96390  0.65050  0.11460  Biso   1.000  H
  C148     1.0000 0.92188  0.82370  0.13760  Biso   1.000  C
  C149     1.0000 0.75575  0.06220  0.05500  Biso   1.000  C
  C150     1.0000 0.78525  0.98970  0.11520  Biso   1.000  C
  C151     1.0000 0.76577  0.92340  0.17900  Biso   1.000  C
  H103     1.0000 0.73460  0.92210  0.18120  Biso   1.000  H
  C152     1.0000 0.79325  0.85930  0.23940  Biso   1.000  C
  C153     1.0000 0.83916  0.85530  0.23030  Biso   1.000  C
  H104     1.0000 0.85740  0.81090  0.26950  Biso   1.000  H
  C154     1.0000 0.85826  0.91750  0.16270  Biso   1.000  C
  C155     1.0000 0.83155  0.98790  0.10800  Biso   1.000  C
  H105     1.0000 0.84460  0.03360  0.06690  Biso   1.000  H
  C156     1.0000 0.77269  0.79810  0.31750  Biso   1.000  C
  C157     1.0000 0.82000  0.48410  0.68550  Biso   1.000  C
  H106     1.0000 0.78870  0.48620  0.67310  Biso   1.000  H
  C158     1.0000 0.88680  0.43980  0.74780  Biso   1.000  C
  H107     1.0000 0.91030  0.40660  0.78440  Biso   1.000  H
  C159     1.0000 0.89070  0.51750  0.68340  Biso   1.000  C
  C160     1.0000 0.93299  0.56820  0.65660  Biso   1.000  C
  H108     1.0000 0.92540  0.62060  0.60880  Biso   1.000  H
  H109     1.0000 0.94860  0.59890  0.71330  Biso   1.000  H
  H110     1.0000 0.95210  0.51760  0.63050  Biso   1.000  H
  N22      1.0000 0.90512  0.91230  0.14640  Biso   1.000  N
  N23      1.0000 0.84772  0.54500  0.64230  Biso   1.000  N
  N24      1.0000 0.84153  0.41950  0.74850  Biso   1.000  N
  O43      1.0000 0.11635  0.65230  0.03660  Biso   1.000  O
  O44      1.0000 0.12702  0.81900  0.01650  Biso   1.000  O
  O45      1.0000 0.77225  0.14540  0.02540  Biso   1.000  O
  O46      1.0000 0.71507  0.04020  0.03520  Biso   1.000  O
  O47      1.0000 0.73316  0.81840  0.33330  Biso   1.000  O
  O48      1.0000 0.79786  0.73040  0.36240  Biso   1.000  O
  H111     1.0000 0.90330  0.76100  0.14500  Biso   1.000  H
  H112     1.0000 0.82680  0.37100  0.79000  Biso   1.000  H
