data_image0
_cell_length_a       29.6024
_cell_length_b       13.478
_cell_length_c       13.3524
_cell_angle_alpha    90
_cell_angle_beta     96.594
_cell_angle_gamma    90

_symmetry_space_group_name_H-M    "P 1"
_symmetry_int_tables_number       1

loop_
  _symmetry_equiv_pos_as_xyz
  'x, y, z'

loop_
  _atom_site_label
  _atom_site_occupancy
  _atom_site_fract_x
  _atom_site_fract_y
  _atom_site_fract_z
  _atom_site_thermal_displace_type
  _atom_site_B_iso_or_equiv
  _atom_site_type_symbol
  Eu1      1.0000 0.81385  0.20291  0.54140  Biso   1.000  Eu
  C1       1.0000 0.89837  0.24030  0.46560  Biso   1.000  C
  C2       1.0000 0.94350  0.26170  0.43150  Biso   1.000  C
  C3       1.0000 0.96010  0.35840  0.43690  Biso   1.000  C
  H1       1.0000 0.94230  0.40910  0.45880  Biso   1.000  H
  C4       1.0000 0.00310  0.38000  0.41010  Biso   1.000  C
  H2       1.0000 0.01330  0.44530  0.41060  Biso   1.000  H
  C5       1.0000 0.03080  0.30360  0.38260  Biso   1.000  C
  C6       1.0000 0.01350  0.20710  0.37490  Biso   1.000  C
  H3       1.0000 0.03130  0.15610  0.35360  Biso   1.000  H
  C7       1.0000 0.97010  0.18650  0.39890  Biso   1.000  C
  H4       1.0000 0.95890  0.12200  0.39310  Biso   1.000  H
  C8       1.0000 0.07820  0.32020  0.36330  Biso   1.000  C
  H5       1.0000 0.09000  0.25900  0.33200  Biso   1.000  H
  C9       1.0000 0.24532  0.56950  0.44160  Biso   1.000  C
  C10      1.0000 0.21452  0.49560  0.38410  Biso   1.000  C
  C11      1.0000 0.16891  0.48910  0.39740  Biso   1.000  C
  H6       1.0000 0.15640  0.53250  0.44080  Biso   1.000  H
  C12      1.0000 0.14178  0.41690  0.34520  Biso   1.000  C
  C13      1.0000 0.16030  0.35730  0.27420  Biso   1.000  C
  H7       1.0000 0.14210  0.31090  0.23710  Biso   1.000  H
  C14      1.0000 0.20545  0.36720  0.25910  Biso   1.000  C
  C15      1.0000 0.23267  0.43550  0.31550  Biso   1.000  C
  H8       1.0000 0.26330  0.44080  0.30690  Biso   1.000  H
  C16      1.0000 0.22596  0.30570  0.18100  Biso   1.000  C
  C17      1.0000 0.85450  0.04600  0.75270  Biso   1.000  C
  C18      1.0000 0.87270  0.98190  0.62050  Biso   1.000  C
  N1       1.0000 0.09563  0.40920  0.36370  Biso   1.000  N
  N2       1.0000 0.85466  0.06420  0.65380  Biso   1.000  N
  N3       1.0000 0.87040  0.95600  0.77380  Biso   1.000  N
  H9       1.0000 0.87400  0.92500  0.84200  Biso   1.000  H
  N4       1.0000 0.88250  0.91160  0.68950  Biso   1.000  N
  N5       1.0000 0.84450  0.10890  0.82860  Biso   1.000  N
  O1       1.0000 0.88261  0.15210  0.45930  Biso   1.000  O
  O2       1.0000 0.87701  0.30870  0.50230  Biso   1.000  O
  O3       1.0000 0.22942  0.64990  0.46970  Biso   1.000  O
  O4       1.0000 0.28678  0.54940  0.45980  Biso   1.000  O
  O5       1.0000 0.20018  0.24360  0.13310  Biso   1.000  O
  O6       1.0000 0.26635  0.32360  0.16960  Biso   1.000  O
  N6       1.0000 0.88800  0.96030  0.53010  Biso   1.000  N
  Eu2      1.0000 0.31385  0.70291  0.54140  Biso   1.000  Eu
  C19      1.0000 0.39837  0.74030  0.46560  Biso   1.000  C
  C20      1.0000 0.44350  0.76170  0.43150  Biso   1.000  C
  C21      1.0000 0.46010  0.85840  0.43690  Biso   1.000  C
  H10      1.0000 0.44230  0.90910  0.45880  Biso   1.000  H
  C22      1.0000 0.50310  0.88000  0.41010  Biso   1.000  C
  H11      1.0000 0.51330  0.94530  0.41060  Biso   1.000  H
  C23      1.0000 0.53080  0.80360  0.38260  Biso   1.000  C
  C24      1.0000 0.51350  0.70710  0.37490  Biso   1.000  C
  H12      1.0000 0.53130  0.65610  0.35360  Biso   1.000  H
  C25      1.0000 0.47010  0.68650  0.39890  Biso   1.000  C
  H13      1.0000 0.45890  0.62200  0.39310  Biso   1.000  H
  C26      1.0000 0.57820  0.82020  0.36330  Biso   1.000  C
  H14      1.0000 0.59000  0.75900  0.33200  Biso   1.000  H
  C27      1.0000 0.74532  0.06950  0.44160  Biso   1.000  C
  C28      1.0000 0.71452  0.99560  0.38410  Biso   1.000  C
  C29      1.0000 0.66891  0.98910  0.39740  Biso   1.000  C
  H15      1.0000 0.65640  0.03250  0.44080  Biso   1.000  H
  C30      1.0000 0.64178  0.91690  0.34520  Biso   1.000  C
  C31      1.0000 0.66030  0.85730  0.27420  Biso   1.000  C
  H16      1.0000 0.64210  0.81090  0.23710  Biso   1.000  H
  C32      1.0000 0.70545  0.86720  0.25910  Biso   1.000  C
  C33      1.0000 0.73267  0.93550  0.31550  Biso   1.000  C
  H17      1.0000 0.76330  0.94080  0.30690  Biso   1.000  H
  C34      1.0000 0.72596  0.80570  0.18100  Biso   1.000  C
  C35      1.0000 0.35450  0.54600  0.75270  Biso   1.000  C
  C36      1.0000 0.37270  0.48190  0.62050  Biso   1.000  C
  N7       1.0000 0.59563  0.90920  0.36370  Biso   1.000  N
  N8       1.0000 0.35466  0.56420  0.65380  Biso   1.000  N
  N9       1.0000 0.37040  0.45600  0.77380  Biso   1.000  N
  H18      1.0000 0.37400  0.42500  0.84200  Biso   1.000  H
  N10      1.0000 0.38250  0.41160  0.68950  Biso   1.000  N
  N11      1.0000 0.34450  0.60890  0.82860  Biso   1.000  N
  O7       1.0000 0.38261  0.65210  0.45930  Biso   1.000  O
  O8       1.0000 0.37701  0.80870  0.50230  Biso   1.000  O
  O9       1.0000 0.72942  0.14990  0.46970  Biso   1.000  O
  O10      1.0000 0.78678  0.04940  0.45980  Biso   1.000  O
  O11      1.0000 0.70018  0.74360  0.13310  Biso   1.000  O
  O12      1.0000 0.76635  0.82360  0.16960  Biso   1.000  O
  N12      1.0000 0.38800  0.46030  0.53010  Biso   1.000  N
  Eu3      1.0000 0.18615  0.20291  0.95860  Biso   1.000  Eu
  C37      1.0000 0.10163  0.24030  0.03440  Biso   1.000  C
  C38      1.0000 0.05650  0.26170  0.06850  Biso   1.000  C
  C39      1.0000 0.03990  0.35840  0.06310  Biso   1.000  C
  H19      1.0000 0.05770  0.40910  0.04120  Biso   1.000  H
  C40      1.0000 0.99690  0.38000  0.08990  Biso   1.000  C
  H20      1.0000 0.98670  0.44530  0.08940  Biso   1.000  H
  C41      1.0000 0.96920  0.30360  0.11740  Biso   1.000  C
  C42      1.0000 0.98650  0.20710  0.12510  Biso   1.000  C
  H21      1.0000 0.96870  0.15610  0.14640  Biso   1.000  H
  C43      1.0000 0.02990  0.18650  0.10110  Biso   1.000  C
  H22      1.0000 0.04110  0.12200  0.10690  Biso   1.000  H
  C44      1.0000 0.92180  0.32020  0.13670  Biso   1.000  C
  H23      1.0000 0.91000  0.25900  0.16800  Biso   1.000  H
  C45      1.0000 0.75468  0.56950  0.05840  Biso   1.000  C
  C46      1.0000 0.78548  0.49560  0.11590  Biso   1.000  C
  C47      1.0000 0.83109  0.48910  0.10260  Biso   1.000  C
  H24      1.0000 0.84360  0.53250  0.05920  Biso   1.000  H
  C48      1.0000 0.85822  0.41690  0.15480  Biso   1.000  C
  C49      1.0000 0.83970  0.35730  0.22580  Biso   1.000  C
  H25      1.0000 0.85790  0.31090  0.26290  Biso   1.000  H
  C50      1.0000 0.79455  0.36720  0.24090  Biso   1.000  C
  C51      1.0000 0.76733  0.43550  0.18450  Biso   1.000  C
  H26      1.0000 0.73670  0.44080  0.19310  Biso   1.000  H
  C52      1.0000 0.77404  0.30570  0.31900  Biso   1.000  C
  C53      1.0000 0.14550  0.04600  0.74730  Biso   1.000  C
  C54      1.0000 0.12730  0.98190  0.87950  Biso   1.000  C
  N13      1.0000 0.90437  0.40920  0.13630  Biso   1.000  N
  N14      1.0000 0.14534  0.06420  0.84620  Biso   1.000  N
  N15      1.0000 0.12960  0.95600  0.72620  Biso   1.000  N
  H27      1.0000 0.12600  0.92500  0.65800  Biso   1.000  H
  N16      1.0000 0.11750  0.91160  0.81050  Biso   1.000  N
  N17      1.0000 0.15550  0.10890  0.67140  Biso   1.000  N
  O13      1.0000 0.11739  0.15210  0.04070  Biso   1.000  O
  O14      1.0000 0.12299  0.30870  0.99770  Biso   1.000  O
  O15      1.0000 0.77058  0.64990  0.03030  Biso   1.000  O
  O16      1.0000 0.71322  0.54940  0.04020  Biso   1.000  O
  O17      1.0000 0.79982  0.24360  0.36690  Biso   1.000  O
  O18      1.0000 0.73365  0.32360  0.33040  Biso   1.000  O
  N18      1.0000 0.11200  0.96030  0.96990  Biso   1.000  N
  Eu4      1.0000 0.68615  0.70291  0.95860  Biso   1.000  Eu
  C55      1.0000 0.60163  0.74030  0.03440  Biso   1.000  C
  C56      1.0000 0.55650  0.76170  0.06850  Biso   1.000  C
  C57      1.0000 0.53990  0.85840  0.06310  Biso   1.000  C
  H28      1.0000 0.55770  0.90910  0.04120  Biso   1.000  H
  C58      1.0000 0.49690  0.88000  0.08990  Biso   1.000  C
  H29      1.0000 0.48670  0.94530  0.08940  Biso   1.000  H
  C59      1.0000 0.46920  0.80360  0.11740  Biso   1.000  C
  C60      1.0000 0.48650  0.70710  0.12510  Biso   1.000  C
  H30      1.0000 0.46870  0.65610  0.14640  Biso   1.000  H
  C61      1.0000 0.52990  0.68650  0.10110  Biso   1.000  C
  H31      1.0000 0.54110  0.62200  0.10690  Biso   1.000  H
  C62      1.0000 0.42180  0.82020  0.13670  Biso   1.000  C
  H32      1.0000 0.41000  0.75900  0.16800  Biso   1.000  H
  C63      1.0000 0.25468  0.06950  0.05840  Biso   1.000  C
  C64      1.0000 0.28548  0.99560  0.11590  Biso   1.000  C
  C65      1.0000 0.33109  0.98910  0.10260  Biso   1.000  C
  H33      1.0000 0.34360  0.03250  0.05920  Biso   1.000  H
  C66      1.0000 0.35822  0.91690  0.15480  Biso   1.000  C
  C67      1.0000 0.33970  0.85730  0.22580  Biso   1.000  C
  H34      1.0000 0.35790  0.81090  0.26290  Biso   1.000  H
  C68      1.0000 0.29455  0.86720  0.24090  Biso   1.000  C
  C69      1.0000 0.26733  0.93550  0.18450  Biso   1.000  C
  H35      1.0000 0.23670  0.94080  0.19310  Biso   1.000  H
  C70      1.0000 0.27404  0.80570  0.31900  Biso   1.000  C
  C71      1.0000 0.64550  0.54600  0.74730  Biso   1.000  C
  C72      1.0000 0.62730  0.48190  0.87950  Biso   1.000  C
  N19      1.0000 0.40437  0.90920  0.13630  Biso   1.000  N
  N20      1.0000 0.64534  0.56420  0.84620  Biso   1.000  N
  N21      1.0000 0.62960  0.45600  0.72620  Biso   1.000  N
  H36      1.0000 0.62600  0.42500  0.65800  Biso   1.000  H
  N22      1.0000 0.61750  0.41160  0.81050  Biso   1.000  N
  N23      1.0000 0.65550  0.60890  0.67140  Biso   1.000  N
  O19      1.0000 0.61739  0.65210  0.04070  Biso   1.000  O
  O20      1.0000 0.62299  0.80870  0.99770  Biso   1.000  O
  O21      1.0000 0.27058  0.14990  0.03030  Biso   1.000  O
  O22      1.0000 0.21322  0.04940  0.04020  Biso   1.000  O
  O23      1.0000 0.29982  0.74360  0.36690  Biso   1.000  O
  O24      1.0000 0.23365  0.82360  0.33040  Biso   1.000  O
  N24      1.0000 0.61200  0.46030  0.96990  Biso   1.000  N
  Eu5      1.0000 0.18615  0.79709  0.45860  Biso   1.000  Eu
  C73      1.0000 0.10163  0.75970  0.53440  Biso   1.000  C
  C74      1.0000 0.05650  0.73830  0.56850  Biso   1.000  C
  C75      1.0000 0.03990  0.64160  0.56310  Biso   1.000  C
  H37      1.0000 0.05770  0.59090  0.54120  Biso   1.000  H
  C76      1.0000 0.99690  0.62000  0.58990  Biso   1.000  C
  H38      1.0000 0.98670  0.55470  0.58940  Biso   1.000  H
  C77      1.0000 0.96920  0.69640  0.61740  Biso   1.000  C
  C78      1.0000 0.98650  0.79290  0.62510  Biso   1.000  C
  H39      1.0000 0.96870  0.84390  0.64640  Biso   1.000  H
  C79      1.0000 0.02990  0.81350  0.60110  Biso   1.000  C
  H40      1.0000 0.04110  0.87800  0.60690  Biso   1.000  H
  C80      1.0000 0.92180  0.67980  0.63670  Biso   1.000  C
  H41      1.0000 0.91000  0.74100  0.66800  Biso   1.000  H
  C81      1.0000 0.75468  0.43050  0.55840  Biso   1.000  C
  C82      1.0000 0.78548  0.50440  0.61590  Biso   1.000  C
  C83      1.0000 0.83109  0.51090  0.60260  Biso   1.000  C
  H42      1.0000 0.84360  0.46750  0.55920  Biso   1.000  H
  C84      1.0000 0.85822  0.58310  0.65480  Biso   1.000  C
  C85      1.0000 0.83970  0.64270  0.72580  Biso   1.000  C
  H43      1.0000 0.85790  0.68910  0.76290  Biso   1.000  H
  C86      1.0000 0.79455  0.63280  0.74090  Biso   1.000  C
  C87      1.0000 0.76733  0.56450  0.68450  Biso   1.000  C
  H44      1.0000 0.73670  0.55920  0.69310  Biso   1.000  H
  C88      1.0000 0.77404  0.69430  0.81900  Biso   1.000  C
  C89      1.0000 0.14550  0.95400  0.24730  Biso   1.000  C
  C90      1.0000 0.12730  0.01810  0.37950  Biso   1.000  C
  N25      1.0000 0.90437  0.59080  0.63630  Biso   1.000  N
  N26      1.0000 0.14534  0.93580  0.34620  Biso   1.000  N
  N27      1.0000 0.12960  0.04400  0.22620  Biso   1.000  N
  H45      1.0000 0.12600  0.07500  0.15800  Biso   1.000  H
  N28      1.0000 0.11750  0.08840  0.31050  Biso   1.000  N
  N29      1.0000 0.15550  0.89110  0.17140  Biso   1.000  N
  O25      1.0000 0.11739  0.84790  0.54070  Biso   1.000  O
  O26      1.0000 0.12299  0.69130  0.49770  Biso   1.000  O
  O27      1.0000 0.77058  0.35010  0.53030  Biso   1.000  O
  O28      1.0000 0.71322  0.45060  0.54020  Biso   1.000  O
  O29      1.0000 0.79982  0.75640  0.86690  Biso   1.000  O
  O30      1.0000 0.73365  0.67640  0.83040  Biso   1.000  O
  N30      1.0000 0.11200  0.03970  0.46990  Biso   1.000  N
  Eu6      1.0000 0.68615  0.29709  0.45860  Biso   1.000  Eu
  C91      1.0000 0.60163  0.25970  0.53440  Biso   1.000  C
  C92      1.0000 0.55650  0.23830  0.56850  Biso   1.000  C
  C93      1.0000 0.53990  0.14160  0.56310  Biso   1.000  C
  H46      1.0000 0.55770  0.09090  0.54120  Biso   1.000  H
  C94      1.0000 0.49690  0.12000  0.58990  Biso   1.000  C
  H47      1.0000 0.48670  0.05470  0.58940  Biso   1.000  H
  C95      1.0000 0.46920  0.19640  0.61740  Biso   1.000  C
  C96      1.0000 0.48650  0.29290  0.62510  Biso   1.000  C
  H48      1.0000 0.46870  0.34390  0.64640  Biso   1.000  H
  C97      1.0000 0.52990  0.31350  0.60110  Biso   1.000  C
  H49      1.0000 0.54110  0.37800  0.60690  Biso   1.000  H
  C98      1.0000 0.42180  0.17980  0.63670  Biso   1.000  C
  H50      1.0000 0.41000  0.24100  0.66800  Biso   1.000  H
  C99      1.0000 0.25468  0.93050  0.55840  Biso   1.000  C
  C100     1.0000 0.28548  0.00440  0.61590  Biso   1.000  C
  C101     1.0000 0.33109  0.01090  0.60260  Biso   1.000  C
  H51      1.0000 0.34360  0.96750  0.55920  Biso   1.000  H
  C102     1.0000 0.35822  0.08310  0.65480  Biso   1.000  C
  C103     1.0000 0.33970  0.14270  0.72580  Biso   1.000  C
  H52      1.0000 0.35790  0.18910  0.76290  Biso   1.000  H
  C104     1.0000 0.29455  0.13280  0.74090  Biso   1.000  C
  C105     1.0000 0.26733  0.06450  0.68450  Biso   1.000  C
  H53      1.0000 0.23670  0.05920  0.69310  Biso   1.000  H
  C106     1.0000 0.27404  0.19430  0.81900  Biso   1.000  C
  C107     1.0000 0.64550  0.45400  0.24730  Biso   1.000  C
  C108     1.0000 0.62730  0.51810  0.37950  Biso   1.000  C
  N31      1.0000 0.40437  0.09080  0.63630  Biso   1.000  N
  N32      1.0000 0.64534  0.43580  0.34620  Biso   1.000  N
  N33      1.0000 0.62960  0.54400  0.22620  Biso   1.000  N
  H54      1.0000 0.62600  0.57500  0.15800  Biso   1.000  H
  N34      1.0000 0.61750  0.58840  0.31050  Biso   1.000  N
  N35      1.0000 0.65550  0.39110  0.17140  Biso   1.000  N
  O31      1.0000 0.61739  0.34790  0.54070  Biso   1.000  O
  O32      1.0000 0.62299  0.19130  0.49770  Biso   1.000  O
  O33      1.0000 0.27058  0.85010  0.53030  Biso   1.000  O
  O34      1.0000 0.21322  0.95060  0.54020  Biso   1.000  O
  O35      1.0000 0.29982  0.25640  0.86690  Biso   1.000  O
  O36      1.0000 0.23365  0.17640  0.83040  Biso   1.000  O
  N36      1.0000 0.61200  0.53970  0.46990  Biso   1.000  N
  Eu7      1.0000 0.81385  0.79709  0.04140  Biso   1.000  Eu
  C109     1.0000 0.89837  0.75970  0.96560  Biso   1.000  C
  C110     1.0000 0.94350  0.73830  0.93150  Biso   1.000  C
  C111     1.0000 0.96010  0.64160  0.93690  Biso   1.000  C
  H55      1.0000 0.94230  0.59090  0.95880  Biso   1.000  H
  C112     1.0000 0.00310  0.62000  0.91010  Biso   1.000  C
  H56      1.0000 0.01330  0.55470  0.91060  Biso   1.000  H
  C113     1.0000 0.03080  0.69640  0.88260  Biso   1.000  C
  C114     1.0000 0.01350  0.79290  0.87490  Biso   1.000  C
  H57      1.0000 0.03130  0.84390  0.85360  Biso   1.000  H
  C115     1.0000 0.97010  0.81350  0.89890  Biso   1.000  C
  H58      1.0000 0.95890  0.87800  0.89310  Biso   1.000  H
  C116     1.0000 0.07820  0.67980  0.86330  Biso   1.000  C
  H59      1.0000 0.09000  0.74100  0.83200  Biso   1.000  H
  C117     1.0000 0.24532  0.43050  0.94160  Biso   1.000  C
  C118     1.0000 0.21452  0.50440  0.88410  Biso   1.000  C
  C119     1.0000 0.16891  0.51090  0.89740  Biso   1.000  C
  H60      1.0000 0.15640  0.46750  0.94080  Biso   1.000  H
  C120     1.0000 0.14178  0.58310  0.84520  Biso   1.000  C
  C121     1.0000 0.16030  0.64270  0.77420  Biso   1.000  C
  H61      1.0000 0.14210  0.68910  0.73710  Biso   1.000  H
  C122     1.0000 0.20545  0.63280  0.75910  Biso   1.000  C
  C123     1.0000 0.23267  0.56450  0.81550  Biso   1.000  C
  H62      1.0000 0.26330  0.55920  0.80690  Biso   1.000  H
  C124     1.0000 0.22596  0.69430  0.68100  Biso   1.000  C
  C125     1.0000 0.85450  0.95400  0.25270  Biso   1.000  C
  C126     1.0000 0.87270  0.01810  0.12050  Biso   1.000  C
  N37      1.0000 0.09563  0.59080  0.86370  Biso   1.000  N
  N38      1.0000 0.85466  0.93580  0.15380  Biso   1.000  N
  N39      1.0000 0.87040  0.04400  0.27380  Biso   1.000  N
  H63      1.0000 0.87400  0.07500  0.34200  Biso   1.000  H
  N40      1.0000 0.88250  0.08840  0.18950  Biso   1.000  N
  N41      1.0000 0.84450  0.89110  0.32860  Biso   1.000  N
  O37      1.0000 0.88261  0.84790  0.95930  Biso   1.000  O
  O38      1.0000 0.87701  0.69130  0.00230  Biso   1.000  O
  O39      1.0000 0.22942  0.35010  0.96970  Biso   1.000  O
  O40      1.0000 0.28678  0.45060  0.95980  Biso   1.000  O
  O41      1.0000 0.20018  0.75640  0.63310  Biso   1.000  O
  O42      1.0000 0.26635  0.67640  0.66960  Biso   1.000  O
  N42      1.0000 0.88800  0.03970  0.03010  Biso   1.000  N
  Eu8      1.0000 0.31385  0.29709  0.04140  Biso   1.000  Eu
  C127     1.0000 0.39837  0.25970  0.96560  Biso   1.000  C
  C128     1.0000 0.44350  0.23830  0.93150  Biso   1.000  C
  C129     1.0000 0.46010  0.14160  0.93690  Biso   1.000  C
  H64      1.0000 0.44230  0.09090  0.95880  Biso   1.000  H
  C130     1.0000 0.50310  0.12000  0.91010  Biso   1.000  C
  H65      1.0000 0.51330  0.05470  0.91060  Biso   1.000  H
  C131     1.0000 0.53080  0.19640  0.88260  Biso   1.000  C
  C132     1.0000 0.51350  0.29290  0.87490  Biso   1.000  C
  H66      1.0000 0.53130  0.34390  0.85360  Biso   1.000  H
  C133     1.0000 0.47010  0.31350  0.89890  Biso   1.000  C
  H67      1.0000 0.45890  0.37800  0.89310  Biso   1.000  H
  C134     1.0000 0.57820  0.17980  0.86330  Biso   1.000  C
  H68      1.0000 0.59000  0.24100  0.83200  Biso   1.000  H
  C135     1.0000 0.74532  0.93050  0.94160  Biso   1.000  C
  C136     1.0000 0.71452  0.00440  0.88410  Biso   1.000  C
  C137     1.0000 0.66891  0.01090  0.89740  Biso   1.000  C
  H69      1.0000 0.65640  0.96750  0.94080  Biso   1.000  H
  C138     1.0000 0.64178  0.08310  0.84520  Biso   1.000  C
  C139     1.0000 0.66030  0.14270  0.77420  Biso   1.000  C
  H70      1.0000 0.64210  0.18910  0.73710  Biso   1.000  H
  C140     1.0000 0.70545  0.13280  0.75910  Biso   1.000  C
  C141     1.0000 0.73267  0.06450  0.81550  Biso   1.000  C
  H71      1.0000 0.76330  0.05920  0.80690  Biso   1.000  H
  C142     1.0000 0.72596  0.19430  0.68100  Biso   1.000  C
  C143     1.0000 0.35450  0.45400  0.25270  Biso   1.000  C
  C144     1.0000 0.37270  0.51810  0.12050  Biso   1.000  C
  N43      1.0000 0.59563  0.09080  0.86370  Biso   1.000  N
  N44      1.0000 0.35466  0.43580  0.15380  Biso   1.000  N
  N45      1.0000 0.37040  0.54400  0.27380  Biso   1.000  N
  H72      1.0000 0.37400  0.57500  0.34200  Biso   1.000  H
  N46      1.0000 0.38250  0.58840  0.18950  Biso   1.000  N
  N47      1.0000 0.34450  0.39110  0.32860  Biso   1.000  N
  O43      1.0000 0.38261  0.34790  0.95930  Biso   1.000  O
  O44      1.0000 0.37701  0.19130  0.00230  Biso   1.000  O
  O45      1.0000 0.72942  0.85010  0.96970  Biso   1.000  O
  O46      1.0000 0.78678  0.95060  0.95980  Biso   1.000  O
  O47      1.0000 0.70018  0.25640  0.63310  Biso   1.000  O
  O48      1.0000 0.76635  0.17640  0.66960  Biso   1.000  O
  N48      1.0000 0.38800  0.53970  0.03010  Biso   1.000  N
