data_image0
_cell_length_a       29.7931
_cell_length_b       12.7929
_cell_length_c       13.7893
_cell_angle_alpha    90
_cell_angle_beta     95.185
_cell_angle_gamma    90

_symmetry_space_group_name_H-M    "P 1"
_symmetry_int_tables_number       1

loop_
  _symmetry_equiv_pos_as_xyz
  'x, y, z'

loop_
  _atom_site_label
  _atom_site_occupancy
  _atom_site_fract_x
  _atom_site_fract_y
  _atom_site_fract_z
  _atom_site_thermal_displace_type
  _atom_site_B_iso_or_equiv
  _atom_site_type_symbol
  C1       1.0000 0.60320  0.23820  0.03710  Biso   1.000  C
  C2       1.0000 0.55680  0.25820  0.06830  Biso   1.000  C
  C3       1.0000 0.52670  0.17480  0.07550  Biso   1.000  C
  H1       1.0000 0.53540  0.10670  0.06310  Biso   1.000  H
  C4       1.0000 0.48350  0.19570  0.10160  Biso   1.000  C
  H2       1.0000 0.46370  0.14070  0.10860  Biso   1.000  H
  C5       1.0000 0.46990  0.29620  0.11700  Biso   1.000  C
  C6       1.0000 0.49950  0.37730  0.11230  Biso   1.000  C
  H3       1.0000 0.49060  0.44490  0.12620  Biso   1.000  H
  C7       1.0000 0.54330  0.35860  0.08640  Biso   1.000  C
  H4       1.0000 0.56320  0.41400  0.08150  Biso   1.000  H
  C8       1.0000 0.42210  0.31130  0.13730  Biso   1.000  C
  H5       1.0000 0.40500  0.24700  0.15400  Biso   1.000  H
  C9       1.0000 0.25560  0.55730  0.05220  Biso   1.000  C
  C10      1.0000 0.28530  0.48640  0.11200  Biso   1.000  C
  C11      1.0000 0.33170  0.48100  0.10280  Biso   1.000  C
  H6       1.0000 0.34460  0.52510  0.05970  Biso   1.000  H
  C12      1.0000 0.35840  0.40970  0.15810  Biso   1.000  C
  C13      1.0000 0.33980  0.34810  0.22640  Biso   1.000  C
  H7       1.0000 0.35800  0.30180  0.26420  Biso   1.000  H
  C14      1.0000 0.29370  0.35460  0.23920  Biso   1.000  C
  C15      1.0000 0.26630  0.42150  0.17890  Biso   1.000  C
  H8       1.0000 0.23540  0.42270  0.18340  Biso   1.000  H
  C16      1.0000 0.27370  0.29180  0.31640  Biso   1.000  C
  C17      1.0000 0.11240  0.52990  0.81930  Biso   1.000  C
  H9       1.0000 0.08690  0.56340  0.83780  Biso   1.000  H
  C18      1.0000 0.11280  0.45500  0.74740  Biso   1.000  C
  H10      1.0000 0.08810  0.43200  0.70700  Biso   1.000  H
  C19      1.0000 0.18010  0.47640  0.81380  Biso   1.000  C
  H11      1.0000 0.21100  0.46760  0.82830  Biso   1.000  H
  N1       1.0000 0.40480  0.40320  0.14300  Biso   1.000  N
  N2       1.0000 0.15470  0.54690  0.85850  Biso   1.000  N
  N3       1.0000 0.15520  0.42180  0.74680  Biso   1.000  N
  O1       1.0000 0.61637  0.14650  0.02980  Biso   1.000  O
  O2       1.0000 0.62710  0.31540  0.01730  Biso   1.000  O
  O3       1.0000 0.21490  0.53600  0.03480  Biso   1.000  O
  O4       1.0000 0.27173  0.64260  0.02230  Biso   1.000  O
  O5       1.0000 0.29806  0.22650  0.36390  Biso   1.000  O
  O6       1.0000 0.23290  0.31200  0.32930  Biso   1.000  O
  Eu1      1.0000 0.18658  0.69945  0.96209  Biso   1.000  Eu
  C20      1.0000 0.10320  0.73820  0.03710  Biso   1.000  C
  C21      1.0000 0.05680  0.75820  0.06830  Biso   1.000  C
  C22      1.0000 0.02670  0.67480  0.07550  Biso   1.000  C
  H12      1.0000 0.03540  0.60670  0.06310  Biso   1.000  H
  C23      1.0000 0.98350  0.69570  0.10160  Biso   1.000  C
  H13      1.0000 0.96370  0.64070  0.10860  Biso   1.000  H
  C24      1.0000 0.96990  0.79620  0.11700  Biso   1.000  C
  C25      1.0000 0.99950  0.87730  0.11230  Biso   1.000  C
  H14      1.0000 0.99060  0.94490  0.12620  Biso   1.000  H
  C26      1.0000 0.04330  0.85860  0.08640  Biso   1.000  C
  H15      1.0000 0.06320  0.91400  0.08150  Biso   1.000  H
  C27      1.0000 0.92210  0.81130  0.13730  Biso   1.000  C
  H16      1.0000 0.90500  0.74700  0.15400  Biso   1.000  H
  C28      1.0000 0.75560  0.05730  0.05220  Biso   1.000  C
  C29      1.0000 0.78530  0.98640  0.11200  Biso   1.000  C
  C30      1.0000 0.83170  0.98100  0.10280  Biso   1.000  C
  H17      1.0000 0.84460  0.02510  0.05970  Biso   1.000  H
  C31      1.0000 0.85840  0.90970  0.15810  Biso   1.000  C
  C32      1.0000 0.83980  0.84810  0.22640  Biso   1.000  C
  H18      1.0000 0.85800  0.80180  0.26420  Biso   1.000  H
  C33      1.0000 0.79370  0.85460  0.23920  Biso   1.000  C
  C34      1.0000 0.76630  0.92150  0.17890  Biso   1.000  C
  H19      1.0000 0.73540  0.92270  0.18340  Biso   1.000  H
  C35      1.0000 0.77370  0.79180  0.31640  Biso   1.000  C
  C36      1.0000 0.61240  0.02990  0.81930  Biso   1.000  C
  H20      1.0000 0.58690  0.06340  0.83780  Biso   1.000  H
  C37      1.0000 0.61280  0.95500  0.74740  Biso   1.000  C
  H21      1.0000 0.58810  0.93200  0.70700  Biso   1.000  H
  C38      1.0000 0.68010  0.97640  0.81380  Biso   1.000  C
  H22      1.0000 0.71100  0.96760  0.82830  Biso   1.000  H
  N4       1.0000 0.90480  0.90320  0.14300  Biso   1.000  N
  N5       1.0000 0.65470  0.04690  0.85850  Biso   1.000  N
  N6       1.0000 0.65520  0.92180  0.74680  Biso   1.000  N
  O7       1.0000 0.11637  0.64650  0.02980  Biso   1.000  O
  O8       1.0000 0.12710  0.81540  0.01730  Biso   1.000  O
  O9       1.0000 0.71490  0.03600  0.03480  Biso   1.000  O
  O10      1.0000 0.77173  0.14260  0.02230  Biso   1.000  O
  O11      1.0000 0.79806  0.72650  0.36390  Biso   1.000  O
  O12      1.0000 0.73290  0.81200  0.32930  Biso   1.000  O
  Eu2      1.0000 0.68658  0.19945  0.96209  Biso   1.000  Eu
  C39      1.0000 0.39680  0.23820  0.46290  Biso   1.000  C
  C40      1.0000 0.44320  0.25820  0.43170  Biso   1.000  C
  C41      1.0000 0.47330  0.17480  0.42450  Biso   1.000  C
  H23      1.0000 0.46460  0.10670  0.43690  Biso   1.000  H
  C42      1.0000 0.51650  0.19570  0.39840  Biso   1.000  C
  H24      1.0000 0.53630  0.14070  0.39140  Biso   1.000  H
  C43      1.0000 0.53010  0.29620  0.38300  Biso   1.000  C
  C44      1.0000 0.50050  0.37730  0.38770  Biso   1.000  C
  H25      1.0000 0.50940  0.44490  0.37380  Biso   1.000  H
  C45      1.0000 0.45670  0.35860  0.41360  Biso   1.000  C
  H26      1.0000 0.43680  0.41400  0.41850  Biso   1.000  H
  C46      1.0000 0.57790  0.31130  0.36270  Biso   1.000  C
  H27      1.0000 0.59500  0.24700  0.34600  Biso   1.000  H
  C47      1.0000 0.74440  0.55730  0.44780  Biso   1.000  C
  C48      1.0000 0.71470  0.48640  0.38800  Biso   1.000  C
  C49      1.0000 0.66830  0.48100  0.39720  Biso   1.000  C
  H28      1.0000 0.65540  0.52510  0.44030  Biso   1.000  H
  C50      1.0000 0.64160  0.40970  0.34190  Biso   1.000  C
  C51      1.0000 0.66020  0.34810  0.27360  Biso   1.000  C
  H29      1.0000 0.64200  0.30180  0.23580  Biso   1.000  H
  C52      1.0000 0.70630  0.35460  0.26080  Biso   1.000  C
  C53      1.0000 0.73370  0.42150  0.32110  Biso   1.000  C
  H30      1.0000 0.76460  0.42270  0.31660  Biso   1.000  H
  C54      1.0000 0.72630  0.29180  0.18360  Biso   1.000  C
  C55      1.0000 0.88760  0.52990  0.68070  Biso   1.000  C
  H31      1.0000 0.91310  0.56340  0.66220  Biso   1.000  H
  C56      1.0000 0.88720  0.45500  0.75260  Biso   1.000  C
  H32      1.0000 0.91190  0.43200  0.79300  Biso   1.000  H
  C57      1.0000 0.81990  0.47640  0.68620  Biso   1.000  C
  H33      1.0000 0.78900  0.46760  0.67170  Biso   1.000  H
  N7       1.0000 0.59520  0.40320  0.35700  Biso   1.000  N
  N8       1.0000 0.84530  0.54690  0.64150  Biso   1.000  N
  N9       1.0000 0.84480  0.42180  0.75320  Biso   1.000  N
  O13      1.0000 0.38363  0.14650  0.47020  Biso   1.000  O
  O14      1.0000 0.37290  0.31540  0.48270  Biso   1.000  O
  O15      1.0000 0.78510  0.53600  0.46520  Biso   1.000  O
  O16      1.0000 0.72827  0.64260  0.47770  Biso   1.000  O
  O17      1.0000 0.70194  0.22650  0.13610  Biso   1.000  O
  O18      1.0000 0.76710  0.31200  0.17070  Biso   1.000  O
  Eu3      1.0000 0.81342  0.69945  0.53791  Biso   1.000  Eu
  C58      1.0000 0.89680  0.73820  0.46290  Biso   1.000  C
  C59      1.0000 0.94320  0.75820  0.43170  Biso   1.000  C
  C60      1.0000 0.97330  0.67480  0.42450  Biso   1.000  C
  H34      1.0000 0.96460  0.60670  0.43690  Biso   1.000  H
  C61      1.0000 0.01650  0.69570  0.39840  Biso   1.000  C
  H35      1.0000 0.03630  0.64070  0.39140  Biso   1.000  H
  C62      1.0000 0.03010  0.79620  0.38300  Biso   1.000  C
  C63      1.0000 0.00050  0.87730  0.38770  Biso   1.000  C
  H36      1.0000 0.00940  0.94490  0.37380  Biso   1.000  H
  C64      1.0000 0.95670  0.85860  0.41360  Biso   1.000  C
  H37      1.0000 0.93680  0.91400  0.41850  Biso   1.000  H
  C65      1.0000 0.07790  0.81130  0.36270  Biso   1.000  C
  H38      1.0000 0.09500  0.74700  0.34600  Biso   1.000  H
  C66      1.0000 0.24440  0.05730  0.44780  Biso   1.000  C
  C67      1.0000 0.21470  0.98640  0.38800  Biso   1.000  C
  C68      1.0000 0.16830  0.98100  0.39720  Biso   1.000  C
  H39      1.0000 0.15540  0.02510  0.44030  Biso   1.000  H
  C69      1.0000 0.14160  0.90970  0.34190  Biso   1.000  C
  C70      1.0000 0.16020  0.84810  0.27360  Biso   1.000  C
  H40      1.0000 0.14200  0.80180  0.23580  Biso   1.000  H
  C71      1.0000 0.20630  0.85460  0.26080  Biso   1.000  C
  C72      1.0000 0.23370  0.92150  0.32110  Biso   1.000  C
  H41      1.0000 0.26460  0.92270  0.31660  Biso   1.000  H
  C73      1.0000 0.22630  0.79180  0.18360  Biso   1.000  C
  C74      1.0000 0.38760  0.02990  0.68070  Biso   1.000  C
  H42      1.0000 0.41310  0.06340  0.66220  Biso   1.000  H
  C75      1.0000 0.38720  0.95500  0.75260  Biso   1.000  C
  H43      1.0000 0.41190  0.93200  0.79300  Biso   1.000  H
  C76      1.0000 0.31990  0.97640  0.68620  Biso   1.000  C
  H44      1.0000 0.28900  0.96760  0.67170  Biso   1.000  H
  N10      1.0000 0.09520  0.90320  0.35700  Biso   1.000  N
  N11      1.0000 0.34530  0.04690  0.64150  Biso   1.000  N
  N12      1.0000 0.34480  0.92180  0.75320  Biso   1.000  N
  O19      1.0000 0.88363  0.64650  0.47020  Biso   1.000  O
  O20      1.0000 0.87290  0.81540  0.48270  Biso   1.000  O
  O21      1.0000 0.28510  0.03600  0.46520  Biso   1.000  O
  O22      1.0000 0.22827  0.14260  0.47770  Biso   1.000  O
  O23      1.0000 0.20194  0.72650  0.13610  Biso   1.000  O
  O24      1.0000 0.26710  0.81200  0.17070  Biso   1.000  O
  Eu4      1.0000 0.31342  0.19945  0.53791  Biso   1.000  Eu
  C77      1.0000 0.39680  0.76180  0.96290  Biso   1.000  C
  C78      1.0000 0.44320  0.74180  0.93170  Biso   1.000  C
  C79      1.0000 0.47330  0.82520  0.92450  Biso   1.000  C
  H45      1.0000 0.46460  0.89330  0.93690  Biso   1.000  H
  C80      1.0000 0.51650  0.80430  0.89840  Biso   1.000  C
  H46      1.0000 0.53630  0.85930  0.89140  Biso   1.000  H
  C81      1.0000 0.53010  0.70380  0.88300  Biso   1.000  C
  C82      1.0000 0.50050  0.62270  0.88770  Biso   1.000  C
  H47      1.0000 0.50940  0.55510  0.87380  Biso   1.000  H
  C83      1.0000 0.45670  0.64140  0.91360  Biso   1.000  C
  H48      1.0000 0.43680  0.58600  0.91850  Biso   1.000  H
  C84      1.0000 0.57790  0.68870  0.86270  Biso   1.000  C
  H49      1.0000 0.59500  0.75300  0.84600  Biso   1.000  H
  C85      1.0000 0.74440  0.44270  0.94780  Biso   1.000  C
  C86      1.0000 0.71470  0.51360  0.88800  Biso   1.000  C
  C87      1.0000 0.66830  0.51900  0.89720  Biso   1.000  C
  H50      1.0000 0.65540  0.47490  0.94030  Biso   1.000  H
  C88      1.0000 0.64160  0.59030  0.84190  Biso   1.000  C
  C89      1.0000 0.66020  0.65190  0.77360  Biso   1.000  C
  H51      1.0000 0.64200  0.69820  0.73580  Biso   1.000  H
  C90      1.0000 0.70630  0.64540  0.76080  Biso   1.000  C
  C91      1.0000 0.73370  0.57850  0.82110  Biso   1.000  C
  H52      1.0000 0.76460  0.57730  0.81660  Biso   1.000  H
  C92      1.0000 0.72630  0.70820  0.68360  Biso   1.000  C
  C93      1.0000 0.88760  0.47010  0.18070  Biso   1.000  C
  H53      1.0000 0.91310  0.43660  0.16220  Biso   1.000  H
  C94      1.0000 0.88720  0.54500  0.25260  Biso   1.000  C
  H54      1.0000 0.91190  0.56800  0.29300  Biso   1.000  H
  C95      1.0000 0.81990  0.52360  0.18620  Biso   1.000  C
  H55      1.0000 0.78900  0.53240  0.17170  Biso   1.000  H
  N13      1.0000 0.59520  0.59680  0.85700  Biso   1.000  N
  N14      1.0000 0.84530  0.45310  0.14150  Biso   1.000  N
  N15      1.0000 0.84480  0.57820  0.25320  Biso   1.000  N
  O25      1.0000 0.38363  0.85350  0.97020  Biso   1.000  O
  O26      1.0000 0.37290  0.68460  0.98270  Biso   1.000  O
  O27      1.0000 0.78510  0.46400  0.96520  Biso   1.000  O
  O28      1.0000 0.72827  0.35740  0.97770  Biso   1.000  O
  O29      1.0000 0.70194  0.77350  0.63610  Biso   1.000  O
  O30      1.0000 0.76710  0.68800  0.67070  Biso   1.000  O
  Eu5      1.0000 0.81342  0.30055  0.03791  Biso   1.000  Eu
  C96      1.0000 0.89680  0.26180  0.96290  Biso   1.000  C
  C97      1.0000 0.94320  0.24180  0.93170  Biso   1.000  C
  C98      1.0000 0.97330  0.32520  0.92450  Biso   1.000  C
  H56      1.0000 0.96460  0.39330  0.93690  Biso   1.000  H
  C99      1.0000 0.01650  0.30430  0.89840  Biso   1.000  C
  H57      1.0000 0.03630  0.35930  0.89140  Biso   1.000  H
  C100     1.0000 0.03010  0.20380  0.88300  Biso   1.000  C
  C101     1.0000 0.00050  0.12270  0.88770  Biso   1.000  C
  H58      1.0000 0.00940  0.05510  0.87380  Biso   1.000  H
  C102     1.0000 0.95670  0.14140  0.91360  Biso   1.000  C
  H59      1.0000 0.93680  0.08600  0.91850  Biso   1.000  H
  C103     1.0000 0.07790  0.18870  0.86270  Biso   1.000  C
  H60      1.0000 0.09500  0.25300  0.84600  Biso   1.000  H
  C104     1.0000 0.24440  0.94270  0.94780  Biso   1.000  C
  C105     1.0000 0.21470  0.01360  0.88800  Biso   1.000  C
  C106     1.0000 0.16830  0.01900  0.89720  Biso   1.000  C
  H61      1.0000 0.15540  0.97490  0.94030  Biso   1.000  H
  C107     1.0000 0.14160  0.09030  0.84190  Biso   1.000  C
  C108     1.0000 0.16020  0.15190  0.77360  Biso   1.000  C
  H62      1.0000 0.14200  0.19820  0.73580  Biso   1.000  H
  C109     1.0000 0.20630  0.14540  0.76080  Biso   1.000  C
  C110     1.0000 0.23370  0.07850  0.82110  Biso   1.000  C
  H63      1.0000 0.26460  0.07730  0.81660  Biso   1.000  H
  C111     1.0000 0.22630  0.20820  0.68360  Biso   1.000  C
  C112     1.0000 0.38760  0.97010  0.18070  Biso   1.000  C
  H64      1.0000 0.41310  0.93660  0.16220  Biso   1.000  H
  C113     1.0000 0.38720  0.04500  0.25260  Biso   1.000  C
  H65      1.0000 0.41190  0.06800  0.29300  Biso   1.000  H
  C114     1.0000 0.31990  0.02360  0.18620  Biso   1.000  C
  H66      1.0000 0.28900  0.03240  0.17170  Biso   1.000  H
  N16      1.0000 0.09520  0.09680  0.85700  Biso   1.000  N
  N17      1.0000 0.34530  0.95310  0.14150  Biso   1.000  N
  N18      1.0000 0.34480  0.07820  0.25320  Biso   1.000  N
  O31      1.0000 0.88363  0.35350  0.97020  Biso   1.000  O
  O32      1.0000 0.87290  0.18460  0.98270  Biso   1.000  O
  O33      1.0000 0.28510  0.96400  0.96520  Biso   1.000  O
  O34      1.0000 0.22827  0.85740  0.97770  Biso   1.000  O
  O35      1.0000 0.20194  0.27350  0.63610  Biso   1.000  O
  O36      1.0000 0.26710  0.18800  0.67070  Biso   1.000  O
  Eu6      1.0000 0.31342  0.80055  0.03791  Biso   1.000  Eu
  C115     1.0000 0.60320  0.76180  0.53710  Biso   1.000  C
  C116     1.0000 0.55680  0.74180  0.56830  Biso   1.000  C
  C117     1.0000 0.52670  0.82520  0.57550  Biso   1.000  C
  H67      1.0000 0.53540  0.89330  0.56310  Biso   1.000  H
  C118     1.0000 0.48350  0.80430  0.60160  Biso   1.000  C
  H68      1.0000 0.46370  0.85930  0.60860  Biso   1.000  H
  C119     1.0000 0.46990  0.70380  0.61700  Biso   1.000  C
  C120     1.0000 0.49950  0.62270  0.61230  Biso   1.000  C
  H69      1.0000 0.49060  0.55510  0.62620  Biso   1.000  H
  C121     1.0000 0.54330  0.64140  0.58640  Biso   1.000  C
  H70      1.0000 0.56320  0.58600  0.58150  Biso   1.000  H
  C122     1.0000 0.42210  0.68870  0.63730  Biso   1.000  C
  H71      1.0000 0.40500  0.75300  0.65400  Biso   1.000  H
  C123     1.0000 0.25560  0.44270  0.55220  Biso   1.000  C
  C124     1.0000 0.28530  0.51360  0.61200  Biso   1.000  C
  C125     1.0000 0.33170  0.51900  0.60280  Biso   1.000  C
  H72      1.0000 0.34460  0.47490  0.55970  Biso   1.000  H
  C126     1.0000 0.35840  0.59030  0.65810  Biso   1.000  C
  C127     1.0000 0.33980  0.65190  0.72640  Biso   1.000  C
  H73      1.0000 0.35800  0.69820  0.76420  Biso   1.000  H
  C128     1.0000 0.29370  0.64540  0.73920  Biso   1.000  C
  C129     1.0000 0.26630  0.57850  0.67890  Biso   1.000  C
  H74      1.0000 0.23540  0.57730  0.68340  Biso   1.000  H
  C130     1.0000 0.27370  0.70820  0.81640  Biso   1.000  C
  C131     1.0000 0.11240  0.47010  0.31930  Biso   1.000  C
  H75      1.0000 0.08690  0.43660  0.33780  Biso   1.000  H
  C132     1.0000 0.11280  0.54500  0.24740  Biso   1.000  C
  H76      1.0000 0.08810  0.56800  0.20700  Biso   1.000  H
  C133     1.0000 0.18010  0.52360  0.31380  Biso   1.000  C
  H77      1.0000 0.21100  0.53240  0.32830  Biso   1.000  H
  N19      1.0000 0.40480  0.59680  0.64300  Biso   1.000  N
  N20      1.0000 0.15470  0.45310  0.35850  Biso   1.000  N
  N21      1.0000 0.15520  0.57820  0.24680  Biso   1.000  N
  O37      1.0000 0.61637  0.85350  0.52980  Biso   1.000  O
  O38      1.0000 0.62710  0.68460  0.51730  Biso   1.000  O
  O39      1.0000 0.21490  0.46400  0.53480  Biso   1.000  O
  O40      1.0000 0.27173  0.35740  0.52230  Biso   1.000  O
  O41      1.0000 0.29806  0.77350  0.86390  Biso   1.000  O
  O42      1.0000 0.23290  0.68800  0.82930  Biso   1.000  O
  Eu7      1.0000 0.18658  0.30055  0.46209  Biso   1.000  Eu
  C134     1.0000 0.10320  0.26180  0.53710  Biso   1.000  C
  C135     1.0000 0.05680  0.24180  0.56830  Biso   1.000  C
  C136     1.0000 0.02670  0.32520  0.57550  Biso   1.000  C
  H78      1.0000 0.03540  0.39330  0.56310  Biso   1.000  H
  C137     1.0000 0.98350  0.30430  0.60160  Biso   1.000  C
  H79      1.0000 0.96370  0.35930  0.60860  Biso   1.000  H
  C138     1.0000 0.96990  0.20380  0.61700  Biso   1.000  C
  C139     1.0000 0.99950  0.12270  0.61230  Biso   1.000  C
  H80      1.0000 0.99060  0.05510  0.62620  Biso   1.000  H
  C140     1.0000 0.04330  0.14140  0.58640  Biso   1.000  C
  H81      1.0000 0.06320  0.08600  0.58150  Biso   1.000  H
  C141     1.0000 0.92210  0.18870  0.63730  Biso   1.000  C
  H82      1.0000 0.90500  0.25300  0.65400  Biso   1.000  H
  C142     1.0000 0.75560  0.94270  0.55220  Biso   1.000  C
  C143     1.0000 0.78530  0.01360  0.61200  Biso   1.000  C
  C144     1.0000 0.83170  0.01900  0.60280  Biso   1.000  C
  H83      1.0000 0.84460  0.97490  0.55970  Biso   1.000  H
  C145     1.0000 0.85840  0.09030  0.65810  Biso   1.000  C
  C146     1.0000 0.83980  0.15190  0.72640  Biso   1.000  C
  H84      1.0000 0.85800  0.19820  0.76420  Biso   1.000  H
  C147     1.0000 0.79370  0.14540  0.73920  Biso   1.000  C
  C148     1.0000 0.76630  0.07850  0.67890  Biso   1.000  C
  H85      1.0000 0.73540  0.07730  0.68340  Biso   1.000  H
  C149     1.0000 0.77370  0.20820  0.81640  Biso   1.000  C
  C150     1.0000 0.61240  0.97010  0.31930  Biso   1.000  C
  H86      1.0000 0.58690  0.93660  0.33780  Biso   1.000  H
  C151     1.0000 0.61280  0.04500  0.24740  Biso   1.000  C
  H87      1.0000 0.58810  0.06800  0.20700  Biso   1.000  H
  C152     1.0000 0.68010  0.02360  0.31380  Biso   1.000  C
  H88      1.0000 0.71100  0.03240  0.32830  Biso   1.000  H
  N22      1.0000 0.90480  0.09680  0.64300  Biso   1.000  N
  N23      1.0000 0.65470  0.95310  0.35850  Biso   1.000  N
  N24      1.0000 0.65520  0.07820  0.24680  Biso   1.000  N
  O43      1.0000 0.11637  0.35350  0.52980  Biso   1.000  O
  O44      1.0000 0.12710  0.18460  0.51730  Biso   1.000  O
  O45      1.0000 0.71490  0.96400  0.53480  Biso   1.000  O
  O46      1.0000 0.77173  0.85740  0.52230  Biso   1.000  O
  O47      1.0000 0.79806  0.27350  0.86390  Biso   1.000  O
  O48      1.0000 0.73290  0.18800  0.82930  Biso   1.000  O
  Eu8      1.0000 0.68658  0.80055  0.46209  Biso   1.000  Eu
