data_image0
_cell_length_a       29.5467
_cell_length_b       12.9685
_cell_length_c       14.2361
_cell_angle_alpha    90
_cell_angle_beta     94.61
_cell_angle_gamma    90

_symmetry_space_group_name_H-M    "P 1"
_symmetry_int_tables_number       1

loop_
  _symmetry_equiv_pos_as_xyz
  'x, y, z'

loop_
  _atom_site_label
  _atom_site_occupancy
  _atom_site_fract_x
  _atom_site_fract_y
  _atom_site_fract_z
  _atom_site_thermal_displace_type
  _atom_site_B_iso_or_equiv
  _atom_site_type_symbol
  Eu1      1.0000 0.18659  0.70005  0.96755  Biso   1.000  Eu
  C1       1.0000 0.10230  0.74470  0.04060  Biso   1.000  C
  C2       1.0000 0.05730  0.76820  0.07760  Biso   1.000  C
  C3       1.0000 0.03100  0.68940  0.10840  Biso   1.000  C
  H1       1.0000 0.04280  0.62290  0.11310  Biso   1.000  H
  C4       1.0000 0.98690  0.70750  0.13280  Biso   1.000  C
  H2       1.0000 0.96880  0.65320  0.15050  Biso   1.000  H
  C5       1.0000 0.97020  0.80720  0.13020  Biso   1.000  C
  C6       1.0000 0.99750  0.88730  0.10200  Biso   1.000  C
  H3       1.0000 0.98650  0.95460  0.10060  Biso   1.000  H
  C7       1.0000 0.04060  0.86740  0.07620  Biso   1.000  C
  H4       1.0000 0.05860  0.92140  0.05760  Biso   1.000  H
  C8       1.0000 0.92290  0.82330  0.15070  Biso   1.000  C
  C9       1.0000 0.75480  0.06560  0.06510  Biso   1.000  C
  C10      1.0000 0.78444  0.99390  0.12450  Biso   1.000  C
  C11      1.0000 0.83050  0.98820  0.11200  Biso   1.000  C
  H5       1.0000 0.84320  0.03080  0.06870  Biso   1.000  H
  C12      1.0000 0.85730  0.91840  0.16480  Biso   1.000  C
  C13      1.0000 0.83830  0.85960  0.23320  Biso   1.000  C
  H6       1.0000 0.85640  0.81390  0.26990  Biso   1.000  H
  C14      1.0000 0.79241  0.86830  0.24730  Biso   1.000  C
  C15      1.0000 0.76540  0.93450  0.19160  Biso   1.000  C
  H7       1.0000 0.73450  0.93910  0.19920  Biso   1.000  H
  C16      1.0000 0.77270  0.80890  0.32510  Biso   1.000  C
  N1       1.0000 0.90395  0.91190  0.14790  Biso   1.000  N
  O1       1.0000 0.12504  0.81680  0.00870  Biso   1.000  O
  O2       1.0000 0.11669  0.65320  0.04310  Biso   1.000  O
  O3       1.0000 0.71319  0.04490  0.05030  Biso   1.000  O
  O4       1.0000 0.77096  0.14610  0.02960  Biso   1.000  O
  O5       1.0000 0.79815  0.74600  0.37010  Biso   1.000  O
  O6       1.0000 0.73256  0.82880  0.34080  Biso   1.000  O
  H8       1.0000 0.91100  0.75600  0.16300  Biso   1.000  H
  Eu2      1.0000 0.68659  0.20005  0.96755  Biso   1.000  Eu
  C17      1.0000 0.60230  0.24470  0.04060  Biso   1.000  C
  C18      1.0000 0.55730  0.26820  0.07760  Biso   1.000  C
  C19      1.0000 0.53100  0.18940  0.10840  Biso   1.000  C
  H9       1.0000 0.54280  0.12290  0.11310  Biso   1.000  H
  C20      1.0000 0.48690  0.20750  0.13280  Biso   1.000  C
  H10      1.0000 0.46880  0.15320  0.15050  Biso   1.000  H
  C21      1.0000 0.47020  0.30720  0.13020  Biso   1.000  C
  C22      1.0000 0.49750  0.38730  0.10200  Biso   1.000  C
  H11      1.0000 0.48650  0.45460  0.10060  Biso   1.000  H
  C23      1.0000 0.54060  0.36740  0.07620  Biso   1.000  C
  H12      1.0000 0.55860  0.42140  0.05760  Biso   1.000  H
  C24      1.0000 0.42290  0.32330  0.15070  Biso   1.000  C
  C25      1.0000 0.25480  0.56560  0.06510  Biso   1.000  C
  C26      1.0000 0.28444  0.49390  0.12450  Biso   1.000  C
  C27      1.0000 0.33050  0.48820  0.11200  Biso   1.000  C
  H13      1.0000 0.34320  0.53080  0.06870  Biso   1.000  H
  C28      1.0000 0.35730  0.41840  0.16480  Biso   1.000  C
  C29      1.0000 0.33830  0.35960  0.23320  Biso   1.000  C
  H14      1.0000 0.35640  0.31390  0.26990  Biso   1.000  H
  C30      1.0000 0.29241  0.36830  0.24730  Biso   1.000  C
  C31      1.0000 0.26540  0.43450  0.19160  Biso   1.000  C
  H15      1.0000 0.23450  0.43910  0.19920  Biso   1.000  H
  C32      1.0000 0.27270  0.30890  0.32510  Biso   1.000  C
  N2       1.0000 0.40395  0.41190  0.14790  Biso   1.000  N
  O7       1.0000 0.62504  0.31680  0.00870  Biso   1.000  O
  O8       1.0000 0.61669  0.15320  0.04310  Biso   1.000  O
  O9       1.0000 0.21319  0.54490  0.05030  Biso   1.000  O
  O10      1.0000 0.27096  0.64610  0.02960  Biso   1.000  O
  O11      1.0000 0.29815  0.24600  0.37010  Biso   1.000  O
  O12      1.0000 0.23256  0.32880  0.34080  Biso   1.000  O
  H16      1.0000 0.41100  0.25600  0.16300  Biso   1.000  H
  Eu3      1.0000 0.81341  0.70005  0.53245  Biso   1.000  Eu
  C33      1.0000 0.89770  0.74470  0.45940  Biso   1.000  C
  C34      1.0000 0.94270  0.76820  0.42240  Biso   1.000  C
  C35      1.0000 0.96900  0.68940  0.39160  Biso   1.000  C
  H17      1.0000 0.95720  0.62290  0.38690  Biso   1.000  H
  C36      1.0000 0.01310  0.70750  0.36720  Biso   1.000  C
  H18      1.0000 0.03120  0.65320  0.34950  Biso   1.000  H
  C37      1.0000 0.02980  0.80720  0.36980  Biso   1.000  C
  C38      1.0000 0.00250  0.88730  0.39800  Biso   1.000  C
  H19      1.0000 0.01350  0.95460  0.39940  Biso   1.000  H
  C39      1.0000 0.95940  0.86740  0.42380  Biso   1.000  C
  H20      1.0000 0.94140  0.92140  0.44240  Biso   1.000  H
  C40      1.0000 0.07710  0.82330  0.34930  Biso   1.000  C
  C41      1.0000 0.24520  0.06560  0.43490  Biso   1.000  C
  C42      1.0000 0.21556  0.99390  0.37550  Biso   1.000  C
  C43      1.0000 0.16950  0.98820  0.38800  Biso   1.000  C
  H21      1.0000 0.15680  0.03080  0.43130  Biso   1.000  H
  C44      1.0000 0.14270  0.91840  0.33520  Biso   1.000  C
  C45      1.0000 0.16170  0.85960  0.26680  Biso   1.000  C
  H22      1.0000 0.14360  0.81390  0.23010  Biso   1.000  H
  C46      1.0000 0.20759  0.86830  0.25270  Biso   1.000  C
  C47      1.0000 0.23460  0.93450  0.30840  Biso   1.000  C
  H23      1.0000 0.26550  0.93910  0.30080  Biso   1.000  H
  C48      1.0000 0.22730  0.80890  0.17490  Biso   1.000  C
  N3       1.0000 0.09605  0.91190  0.35210  Biso   1.000  N
  O13      1.0000 0.87496  0.81680  0.49130  Biso   1.000  O
  O14      1.0000 0.88331  0.65320  0.45690  Biso   1.000  O
  O15      1.0000 0.28681  0.04490  0.44970  Biso   1.000  O
  O16      1.0000 0.22904  0.14610  0.47040  Biso   1.000  O
  O17      1.0000 0.20185  0.74600  0.12990  Biso   1.000  O
  O18      1.0000 0.26744  0.82880  0.15920  Biso   1.000  O
  H24      1.0000 0.08900  0.75600  0.33700  Biso   1.000  H
  Eu4      1.0000 0.31341  0.20005  0.53245  Biso   1.000  Eu
  C49      1.0000 0.39770  0.24470  0.45940  Biso   1.000  C
  C50      1.0000 0.44270  0.26820  0.42240  Biso   1.000  C
  C51      1.0000 0.46900  0.18940  0.39160  Biso   1.000  C
  H25      1.0000 0.45720  0.12290  0.38690  Biso   1.000  H
  C52      1.0000 0.51310  0.20750  0.36720  Biso   1.000  C
  H26      1.0000 0.53120  0.15320  0.34950  Biso   1.000  H
  C53      1.0000 0.52980  0.30720  0.36980  Biso   1.000  C
  C54      1.0000 0.50250  0.38730  0.39800  Biso   1.000  C
  H27      1.0000 0.51350  0.45460  0.39940  Biso   1.000  H
  C55      1.0000 0.45940  0.36740  0.42380  Biso   1.000  C
  H28      1.0000 0.44140  0.42140  0.44240  Biso   1.000  H
  C56      1.0000 0.57710  0.32330  0.34930  Biso   1.000  C
  C57      1.0000 0.74520  0.56560  0.43490  Biso   1.000  C
  C58      1.0000 0.71556  0.49390  0.37550  Biso   1.000  C
  C59      1.0000 0.66950  0.48820  0.38800  Biso   1.000  C
  H29      1.0000 0.65680  0.53080  0.43130  Biso   1.000  H
  C60      1.0000 0.64270  0.41840  0.33520  Biso   1.000  C
  C61      1.0000 0.66170  0.35960  0.26680  Biso   1.000  C
  H30      1.0000 0.64360  0.31390  0.23010  Biso   1.000  H
  C62      1.0000 0.70759  0.36830  0.25270  Biso   1.000  C
  C63      1.0000 0.73460  0.43450  0.30840  Biso   1.000  C
  H31      1.0000 0.76550  0.43910  0.30080  Biso   1.000  H
  C64      1.0000 0.72730  0.30890  0.17490  Biso   1.000  C
  N4       1.0000 0.59605  0.41190  0.35210  Biso   1.000  N
  O19      1.0000 0.37496  0.31680  0.49130  Biso   1.000  O
  O20      1.0000 0.38331  0.15320  0.45690  Biso   1.000  O
  O21      1.0000 0.78681  0.54490  0.44970  Biso   1.000  O
  O22      1.0000 0.72904  0.64610  0.47040  Biso   1.000  O
  O23      1.0000 0.70185  0.24600  0.12990  Biso   1.000  O
  O24      1.0000 0.76744  0.32880  0.15920  Biso   1.000  O
  H32      1.0000 0.58900  0.25600  0.33700  Biso   1.000  H
  Eu5      1.0000 0.81341  0.29995  0.03245  Biso   1.000  Eu
  C65      1.0000 0.89770  0.25530  0.95940  Biso   1.000  C
  C66      1.0000 0.94270  0.23180  0.92240  Biso   1.000  C
  C67      1.0000 0.96900  0.31060  0.89160  Biso   1.000  C
  H33      1.0000 0.95720  0.37710  0.88690  Biso   1.000  H
  C68      1.0000 0.01310  0.29250  0.86720  Biso   1.000  C
  H34      1.0000 0.03120  0.34680  0.84950  Biso   1.000  H
  C69      1.0000 0.02980  0.19280  0.86980  Biso   1.000  C
  C70      1.0000 0.00250  0.11270  0.89800  Biso   1.000  C
  H35      1.0000 0.01350  0.04540  0.89940  Biso   1.000  H
  C71      1.0000 0.95940  0.13260  0.92380  Biso   1.000  C
  H36      1.0000 0.94140  0.07860  0.94240  Biso   1.000  H
  C72      1.0000 0.07710  0.17670  0.84930  Biso   1.000  C
  C73      1.0000 0.24520  0.93440  0.93490  Biso   1.000  C
  C74      1.0000 0.21556  0.00610  0.87550  Biso   1.000  C
  C75      1.0000 0.16950  0.01180  0.88800  Biso   1.000  C
  H37      1.0000 0.15680  0.96920  0.93130  Biso   1.000  H
  C76      1.0000 0.14270  0.08160  0.83520  Biso   1.000  C
  C77      1.0000 0.16170  0.14040  0.76680  Biso   1.000  C
  H38      1.0000 0.14360  0.18610  0.73010  Biso   1.000  H
  C78      1.0000 0.20759  0.13170  0.75270  Biso   1.000  C
  C79      1.0000 0.23460  0.06550  0.80840  Biso   1.000  C
  H39      1.0000 0.26550  0.06090  0.80080  Biso   1.000  H
  C80      1.0000 0.22730  0.19110  0.67490  Biso   1.000  C
  N5       1.0000 0.09605  0.08810  0.85210  Biso   1.000  N
  O25      1.0000 0.87496  0.18320  0.99130  Biso   1.000  O
  O26      1.0000 0.88331  0.34680  0.95690  Biso   1.000  O
  O27      1.0000 0.28681  0.95510  0.94970  Biso   1.000  O
  O28      1.0000 0.22904  0.85390  0.97040  Biso   1.000  O
  O29      1.0000 0.20185  0.25400  0.62990  Biso   1.000  O
  O30      1.0000 0.26744  0.17120  0.65920  Biso   1.000  O
  H40      1.0000 0.08900  0.24400  0.83700  Biso   1.000  H
  Eu6      1.0000 0.31341  0.79995  0.03245  Biso   1.000  Eu
  C81      1.0000 0.39770  0.75530  0.95940  Biso   1.000  C
  C82      1.0000 0.44270  0.73180  0.92240  Biso   1.000  C
  C83      1.0000 0.46900  0.81060  0.89160  Biso   1.000  C
  H41      1.0000 0.45720  0.87710  0.88690  Biso   1.000  H
  C84      1.0000 0.51310  0.79250  0.86720  Biso   1.000  C
  H42      1.0000 0.53120  0.84680  0.84950  Biso   1.000  H
  C85      1.0000 0.52980  0.69280  0.86980  Biso   1.000  C
  C86      1.0000 0.50250  0.61270  0.89800  Biso   1.000  C
  H43      1.0000 0.51350  0.54540  0.89940  Biso   1.000  H
  C87      1.0000 0.45940  0.63260  0.92380  Biso   1.000  C
  H44      1.0000 0.44140  0.57860  0.94240  Biso   1.000  H
  C88      1.0000 0.57710  0.67670  0.84930  Biso   1.000  C
  C89      1.0000 0.74520  0.43440  0.93490  Biso   1.000  C
  C90      1.0000 0.71556  0.50610  0.87550  Biso   1.000  C
  C91      1.0000 0.66950  0.51180  0.88800  Biso   1.000  C
  H45      1.0000 0.65680  0.46920  0.93130  Biso   1.000  H
  C92      1.0000 0.64270  0.58160  0.83520  Biso   1.000  C
  C93      1.0000 0.66170  0.64040  0.76680  Biso   1.000  C
  H46      1.0000 0.64360  0.68610  0.73010  Biso   1.000  H
  C94      1.0000 0.70759  0.63170  0.75270  Biso   1.000  C
  C95      1.0000 0.73460  0.56550  0.80840  Biso   1.000  C
  H47      1.0000 0.76550  0.56090  0.80080  Biso   1.000  H
  C96      1.0000 0.72730  0.69110  0.67490  Biso   1.000  C
  N6       1.0000 0.59605  0.58810  0.85210  Biso   1.000  N
  O31      1.0000 0.37496  0.68320  0.99130  Biso   1.000  O
  O32      1.0000 0.38331  0.84680  0.95690  Biso   1.000  O
  O33      1.0000 0.78681  0.45510  0.94970  Biso   1.000  O
  O34      1.0000 0.72904  0.35390  0.97040  Biso   1.000  O
  O35      1.0000 0.70185  0.75400  0.62990  Biso   1.000  O
  O36      1.0000 0.76744  0.67120  0.65920  Biso   1.000  O
  H48      1.0000 0.58900  0.74400  0.83700  Biso   1.000  H
  Eu7      1.0000 0.18659  0.29995  0.46755  Biso   1.000  Eu
  C97      1.0000 0.10230  0.25530  0.54060  Biso   1.000  C
  C98      1.0000 0.05730  0.23180  0.57760  Biso   1.000  C
  C99      1.0000 0.03100  0.31060  0.60840  Biso   1.000  C
  H49      1.0000 0.04280  0.37710  0.61310  Biso   1.000  H
  C100     1.0000 0.98690  0.29250  0.63280  Biso   1.000  C
  H50      1.0000 0.96880  0.34680  0.65050  Biso   1.000  H
  C101     1.0000 0.97020  0.19280  0.63020  Biso   1.000  C
  C102     1.0000 0.99750  0.11270  0.60200  Biso   1.000  C
  H51      1.0000 0.98650  0.04540  0.60060  Biso   1.000  H
  C103     1.0000 0.04060  0.13260  0.57620  Biso   1.000  C
  H52      1.0000 0.05860  0.07860  0.55760  Biso   1.000  H
  C104     1.0000 0.92290  0.17670  0.65070  Biso   1.000  C
  C105     1.0000 0.75480  0.93440  0.56510  Biso   1.000  C
  C106     1.0000 0.78444  0.00610  0.62450  Biso   1.000  C
  C107     1.0000 0.83050  0.01180  0.61200  Biso   1.000  C
  H53      1.0000 0.84320  0.96920  0.56870  Biso   1.000  H
  C108     1.0000 0.85730  0.08160  0.66480  Biso   1.000  C
  C109     1.0000 0.83830  0.14040  0.73320  Biso   1.000  C
  H54      1.0000 0.85640  0.18610  0.76990  Biso   1.000  H
  C110     1.0000 0.79241  0.13170  0.74730  Biso   1.000  C
  C111     1.0000 0.76540  0.06550  0.69160  Biso   1.000  C
  H55      1.0000 0.73450  0.06090  0.69920  Biso   1.000  H
  C112     1.0000 0.77270  0.19110  0.82510  Biso   1.000  C
  N7       1.0000 0.90395  0.08810  0.64790  Biso   1.000  N
  O37      1.0000 0.12504  0.18320  0.50870  Biso   1.000  O
  O38      1.0000 0.11669  0.34680  0.54310  Biso   1.000  O
  O39      1.0000 0.71319  0.95510  0.55030  Biso   1.000  O
  O40      1.0000 0.77096  0.85390  0.52960  Biso   1.000  O
  O41      1.0000 0.79815  0.25400  0.87010  Biso   1.000  O
  O42      1.0000 0.73256  0.17120  0.84080  Biso   1.000  O
  H56      1.0000 0.91100  0.24400  0.66300  Biso   1.000  H
  Eu8      1.0000 0.68659  0.79995  0.46755  Biso   1.000  Eu
  C113     1.0000 0.60230  0.75530  0.54060  Biso   1.000  C
  C114     1.0000 0.55730  0.73180  0.57760  Biso   1.000  C
  C115     1.0000 0.53100  0.81060  0.60840  Biso   1.000  C
  H57      1.0000 0.54280  0.87710  0.61310  Biso   1.000  H
  C116     1.0000 0.48690  0.79250  0.63280  Biso   1.000  C
  H58      1.0000 0.46880  0.84680  0.65050  Biso   1.000  H
  C117     1.0000 0.47020  0.69280  0.63020  Biso   1.000  C
  C118     1.0000 0.49750  0.61270  0.60200  Biso   1.000  C
  H59      1.0000 0.48650  0.54540  0.60060  Biso   1.000  H
  C119     1.0000 0.54060  0.63260  0.57620  Biso   1.000  C
  H60      1.0000 0.55860  0.57860  0.55760  Biso   1.000  H
  C120     1.0000 0.42290  0.67670  0.65070  Biso   1.000  C
  C121     1.0000 0.25480  0.43440  0.56510  Biso   1.000  C
  C122     1.0000 0.28444  0.50610  0.62450  Biso   1.000  C
  C123     1.0000 0.33050  0.51180  0.61200  Biso   1.000  C
  H61      1.0000 0.34320  0.46920  0.56870  Biso   1.000  H
  C124     1.0000 0.35730  0.58160  0.66480  Biso   1.000  C
  C125     1.0000 0.33830  0.64040  0.73320  Biso   1.000  C
  H62      1.0000 0.35640  0.68610  0.76990  Biso   1.000  H
  C126     1.0000 0.29241  0.63170  0.74730  Biso   1.000  C
  C127     1.0000 0.26540  0.56550  0.69160  Biso   1.000  C
  H63      1.0000 0.23450  0.56090  0.69920  Biso   1.000  H
  C128     1.0000 0.27270  0.69110  0.82510  Biso   1.000  C
  N8       1.0000 0.40395  0.58810  0.64790  Biso   1.000  N
  O43      1.0000 0.62504  0.68320  0.50870  Biso   1.000  O
  O44      1.0000 0.61669  0.84680  0.54310  Biso   1.000  O
  O45      1.0000 0.21319  0.45510  0.55030  Biso   1.000  O
  O46      1.0000 0.27096  0.35390  0.52960  Biso   1.000  O
  O47      1.0000 0.29815  0.75400  0.87010  Biso   1.000  O
  O48      1.0000 0.23256  0.67120  0.84080  Biso   1.000  O
  H64      1.0000 0.41100  0.74400  0.66300  Biso   1.000  H
