data_image0
_cell_length_a       13.6903
_cell_length_b       14.7432
_cell_length_c       15.6518
_cell_angle_alpha    95.222
_cell_angle_beta     112.945
_cell_angle_gamma    90.244

_symmetry_space_group_name_H-M    "P 1"
_symmetry_int_tables_number       1

loop_
  _symmetry_equiv_pos_as_xyz
  'x, y, z'

loop_
  _atom_site_label
  _atom_site_occupancy
  _atom_site_fract_x
  _atom_site_fract_y
  _atom_site_fract_z
  _atom_site_thermal_displace_type
  _atom_site_B_iso_or_equiv
  _atom_site_type_symbol
  C1       1.0000 0.65360  0.95780  0.30180  Biso   1.000  C
  C2       1.0000 0.72660  0.91690  0.38470  Biso   1.000  C
  C3       1.0000 0.83700  0.92770  0.41370  Biso   1.000  C
  H1       1.0000 0.86540  0.95840  0.37870  Biso   1.000  H
  C4       1.0000 0.90400  0.89250  0.49460  Biso   1.000  C
  H2       1.0000 0.97710  0.90040  0.51390  Biso   1.000  H
  C5       1.0000 0.86300  0.84580  0.54690  Biso   1.000  C
  C6       1.0000 0.75450  0.83480  0.51730  Biso   1.000  C
  H3       1.0000 0.72560  0.80450  0.55210  Biso   1.000  H
  C7       1.0000 0.68920  0.86820  0.43670  Biso   1.000  C
  H4       1.0000 0.61630  0.85740  0.41650  Biso   1.000  H
  C8       1.0000 0.93090  0.81400  0.63760  Biso   1.000  C
  C9       1.0000 0.33730  0.89330  0.97450  Biso   1.000  C
  C10      1.0000 0.23740  0.83760  0.91420  Biso   1.000  C
  C11      1.0000 0.19720  0.77510  0.95510  Biso   1.000  C
  H5       1.0000 0.23330  0.76690  0.01780  Biso   1.000  H
  C12      1.0000 0.10390  0.72530  0.90300  Biso   1.000  C
  C13      1.0000 0.04740  0.74150  0.81060  Biso   1.000  C
  H6       1.0000 0.98290  0.71000  0.77650  Biso   1.000  H
  C14      1.0000 0.08570  0.80410  0.76860  Biso   1.000  C
  C15      1.0000 0.18350  0.84970  0.82120  Biso   1.000  C
  H7       1.0000 0.21270  0.88870  0.79310  Biso   1.000  H
  C16      1.0000 0.06220  0.65500  0.94360  Biso   1.000  C
  C17      1.0000 0.29750  0.11530  0.18960  Biso   1.000  C
  H8       1.0000 0.31890  0.16580  0.16880  Biso   1.000  H
  C18      1.0000 0.20350  0.11940  0.20980  Biso   1.000  C
  H9       1.0000 0.16380  0.17130  0.20180  Biso   1.000  H
  C19      1.0000 0.17500  0.04510  0.24050  Biso   1.000  C
  H10      1.0000 0.11390  0.04540  0.25300  Biso   1.000  H
  C20      1.0000 0.23360  0.97040  0.25350  Biso   1.000  C
  H11      1.0000 0.21560  0.91990  0.27670  Biso   1.000  H
  C21      1.0000 0.32190  0.97200  0.23070  Biso   1.000  C
  H12      1.0000 0.36140  0.92000  0.23750  Biso   1.000  H
  C22      1.0000 0.88850  0.52070  0.69970  Biso   1.000  C
  C23      1.0000 0.88660  0.55990  0.61480  Biso   1.000  C
  C24      1.0000 0.79170  0.58120  0.54560  Biso   1.000  C
  H13      1.0000 0.72890  0.57550  0.55480  Biso   1.000  H
  C25      1.0000 0.78900  0.61050  0.46360  Biso   1.000  C
  H14      1.0000 0.72430  0.62210  0.41710  Biso   1.000  H
  C26      1.0000 0.88220  0.62300  0.45040  Biso   1.000  C
  C27      1.0000 0.97840  0.60670  0.52210  Biso   1.000  C
  H15      1.0000 0.04190  0.61760  0.51540  Biso   1.000  H
  C28      1.0000 0.98020  0.57490  0.60190  Biso   1.000  C
  H16      1.0000 0.04490  0.56310  0.64830  Biso   1.000  H
  C29      1.0000 0.87840  0.65170  0.36100  Biso   1.000  C
  C30      1.0000 0.84460  0.59580  0.00580  Biso   1.000  C
  C31      1.0000 0.80650  0.65840  0.06720  Biso   1.000  C
  C32      1.0000 0.83350  0.64380  0.16020  Biso   1.000  C
  H17      1.0000 0.88410  0.60190  0.18770  Biso   1.000  H
  C33      1.0000 0.78440  0.69240  0.21160  Biso   1.000  C
  C34      1.0000 0.71480  0.75870  0.17140  Biso   1.000  C
  H18      1.0000 0.68140  0.79070  0.20560  Biso   1.000  H
  C35      1.0000 0.69380  0.77840  0.08050  Biso   1.000  C
  C36      1.0000 0.73880  0.72610  0.02850  Biso   1.000  C
  H19      1.0000 0.72330  0.73670  0.96700  Biso   1.000  H
  C37      1.0000 0.62170  0.85480  0.04240  Biso   1.000  C
  C38      1.0000 0.65870  0.32900  0.81610  Biso   1.000  C
  H20      1.0000 0.71180  0.28720  0.83460  Biso   1.000  H
  C39      1.0000 0.55520  0.29980  0.79500  Biso   1.000  C
  H21      1.0000 0.53900  0.23990  0.80060  Biso   1.000  H
  C40      1.0000 0.47590  0.36190  0.76550  Biso   1.000  C
  H22      1.0000 0.40520  0.34430  0.74980  Biso   1.000  H
  C41      1.0000 0.50450  0.45000  0.76010  Biso   1.000  C
  H23      1.0000 0.45360  0.49370  0.74150  Biso   1.000  H
  C42      1.0000 0.61040  0.47220  0.78290  Biso   1.000  C
  H24      1.0000 0.62910  0.53160  0.77810  Biso   1.000  H
  N1       1.0000 0.02950  0.83160  0.67700  Biso   1.000  N
  N2       1.0000 0.35400  0.04240  0.19980  Biso   1.000  N
  N3       1.0000 0.79310  0.67200  0.30060  Biso   1.000  N
  N4       1.0000 0.68560  0.41430  0.81080  Biso   1.000  N
  O1       1.0000 0.55470  0.94140  0.27520  Biso   1.000  O
  O2       1.0000 0.68990  0.00690  0.25880  Biso   1.000  O
  O3       1.0000 0.35850  0.90810  0.05950  Biso   1.000  O
  O4       1.0000 0.39070  0.92710  0.93490  Biso   1.000  O
  O5       1.0000 0.97520  0.61550  0.89410  Biso   1.000  O
  O6       1.0000 0.11920  0.63950  0.02730  Biso   1.000  O
  O7       1.0000 0.97090  0.48840  0.75270  Biso   1.000  O
  O8       1.0000 0.80330  0.52130  0.71590  Biso   1.000  O
  O9       1.0000 0.92920  0.55400  0.04340  Biso   1.000  O
  O10      1.0000 0.78880  0.58400  0.92170  Biso   1.000  O
  O11      1.0000 0.57630  0.88800  0.09360  Biso   1.000  O
  O12      1.0000 0.61330  0.87980  0.96550  Biso   1.000  O
  H25      1.0000 0.89400  0.77200  0.66400  Biso   1.000  H
  H26      1.0000 0.95200  0.66100  0.36200  Biso   1.000  H
  Eu1      1.0000 0.50368  0.01880  0.13457  Biso   1.000  Eu
  Eu2      1.0000 0.89000  0.47009  0.87100  Biso   1.000  Eu
  C43      1.0000 0.34640  0.04220  0.69820  Biso   1.000  C
  C44      1.0000 0.27340  0.08310  0.61530  Biso   1.000  C
  C45      1.0000 0.16300  0.07230  0.58630  Biso   1.000  C
  H27      1.0000 0.13460  0.04160  0.62130  Biso   1.000  H
  C46      1.0000 0.09600  0.10750  0.50540  Biso   1.000  C
  H28      1.0000 0.02290  0.09960  0.48610  Biso   1.000  H
  C47      1.0000 0.13700  0.15420  0.45310  Biso   1.000  C
  C48      1.0000 0.24550  0.16520  0.48270  Biso   1.000  C
  H29      1.0000 0.27440  0.19550  0.44790  Biso   1.000  H
  C49      1.0000 0.31080  0.13180  0.56330  Biso   1.000  C
  H30      1.0000 0.38370  0.14260  0.58350  Biso   1.000  H
  C50      1.0000 0.06910  0.18600  0.36240  Biso   1.000  C
  C51      1.0000 0.66270  0.10670  0.02550  Biso   1.000  C
  C52      1.0000 0.76260  0.16240  0.08580  Biso   1.000  C
  C53      1.0000 0.80280  0.22490  0.04490  Biso   1.000  C
  H31      1.0000 0.76670  0.23310  0.98220  Biso   1.000  H
  C54      1.0000 0.89610  0.27470  0.09700  Biso   1.000  C
  C55      1.0000 0.95260  0.25850  0.18940  Biso   1.000  C
  H32      1.0000 0.01710  0.29000  0.22350  Biso   1.000  H
  C56      1.0000 0.91430  0.19590  0.23140  Biso   1.000  C
  C57      1.0000 0.81650  0.15030  0.17880  Biso   1.000  C
  H33      1.0000 0.78730  0.11130  0.20690  Biso   1.000  H
  C58      1.0000 0.93780  0.34500  0.05640  Biso   1.000  C
  C59      1.0000 0.70250  0.88470  0.81040  Biso   1.000  C
  H34      1.0000 0.68110  0.83420  0.83120  Biso   1.000  H
  C60      1.0000 0.79650  0.88060  0.79020  Biso   1.000  C
  H35      1.0000 0.83620  0.82870  0.79820  Biso   1.000  H
  C61      1.0000 0.82500  0.95490  0.75950  Biso   1.000  C
  H36      1.0000 0.88610  0.95460  0.74700  Biso   1.000  H
  C62      1.0000 0.76640  0.02960  0.74650  Biso   1.000  C
  H37      1.0000 0.78440  0.08010  0.72330  Biso   1.000  H
  C63      1.0000 0.67810  0.02800  0.76930  Biso   1.000  C
  H38      1.0000 0.63860  0.08000  0.76250  Biso   1.000  H
  C64      1.0000 0.11150  0.47930  0.30030  Biso   1.000  C
  C65      1.0000 0.11340  0.44010  0.38520  Biso   1.000  C
  C66      1.0000 0.20830  0.41880  0.45440  Biso   1.000  C
  H39      1.0000 0.27110  0.42450  0.44520  Biso   1.000  H
  C67      1.0000 0.21100  0.38950  0.53640  Biso   1.000  C
  H40      1.0000 0.27570  0.37790  0.58290  Biso   1.000  H
  C68      1.0000 0.11780  0.37700  0.54960  Biso   1.000  C
  C69      1.0000 0.02160  0.39330  0.47790  Biso   1.000  C
  H41      1.0000 0.95810  0.38240  0.48460  Biso   1.000  H
  C70      1.0000 0.01980  0.42510  0.39810  Biso   1.000  C
  H42      1.0000 0.95510  0.43690  0.35170  Biso   1.000  H
  C71      1.0000 0.12160  0.34830  0.63900  Biso   1.000  C
  C72      1.0000 0.15540  0.40420  0.99420  Biso   1.000  C
  C73      1.0000 0.19350  0.34160  0.93280  Biso   1.000  C
  C74      1.0000 0.16650  0.35620  0.83980  Biso   1.000  C
  H43      1.0000 0.11590  0.39810  0.81230  Biso   1.000  H
  C75      1.0000 0.21560  0.30760  0.78840  Biso   1.000  C
  C76      1.0000 0.28520  0.24130  0.82860  Biso   1.000  C
  H44      1.0000 0.31860  0.20930  0.79440  Biso   1.000  H
  C77      1.0000 0.30620  0.22160  0.91950  Biso   1.000  C
  C78      1.0000 0.26120  0.27390  0.97150  Biso   1.000  C
  H45      1.0000 0.27670  0.26330  0.03300  Biso   1.000  H
  C79      1.0000 0.37830  0.14520  0.95760  Biso   1.000  C
  C80      1.0000 0.34130  0.67100  0.18390  Biso   1.000  C
  H46      1.0000 0.28820  0.71280  0.16540  Biso   1.000  H
  C81      1.0000 0.44480  0.70020  0.20500  Biso   1.000  C
  H47      1.0000 0.46100  0.76010  0.19940  Biso   1.000  H
  C82      1.0000 0.52410  0.63810  0.23450  Biso   1.000  C
  H48      1.0000 0.59480  0.65570  0.25020  Biso   1.000  H
  C83      1.0000 0.49550  0.55000  0.23990  Biso   1.000  C
  H49      1.0000 0.54640  0.50630  0.25850  Biso   1.000  H
  C84      1.0000 0.38960  0.52780  0.21710  Biso   1.000  C
  H50      1.0000 0.37090  0.46840  0.22190  Biso   1.000  H
  N5       1.0000 0.97050  0.16840  0.32300  Biso   1.000  N
  N6       1.0000 0.64600  0.95760  0.80020  Biso   1.000  N
  N7       1.0000 0.20690  0.32800  0.69940  Biso   1.000  N
  N8       1.0000 0.31440  0.58570  0.18920  Biso   1.000  N
  O13      1.0000 0.44530  0.05860  0.72480  Biso   1.000  O
  O14      1.0000 0.31010  0.99310  0.74120  Biso   1.000  O
  O15      1.0000 0.64150  0.09190  0.94050  Biso   1.000  O
  O16      1.0000 0.60930  0.07290  0.06510  Biso   1.000  O
  O17      1.0000 0.02480  0.38450  0.10590  Biso   1.000  O
  O18      1.0000 0.88080  0.36050  0.97270  Biso   1.000  O
  O19      1.0000 0.02910  0.51160  0.24730  Biso   1.000  O
  O20      1.0000 0.19670  0.47870  0.28410  Biso   1.000  O
  O21      1.0000 0.07080  0.44600  0.95660  Biso   1.000  O
  O22      1.0000 0.21120  0.41600  0.07830  Biso   1.000  O
  O23      1.0000 0.42370  0.11200  0.90640  Biso   1.000  O
  O24      1.0000 0.38670  0.12020  0.03450  Biso   1.000  O
  H51      1.0000 0.10600  0.22800  0.33600  Biso   1.000  H
  H52      1.0000 0.04800  0.33900  0.63800  Biso   1.000  H
  Eu3      1.0000 0.49632  0.98120  0.86543  Biso   1.000  Eu
  Eu4      1.0000 0.11000  0.52991  0.12900  Biso   1.000  Eu
