data_image0
_cell_length_a       29.0553
_cell_length_b       14.1152
_cell_length_c       13.4991
_cell_angle_alpha    90
_cell_angle_beta     97.912
_cell_angle_gamma    90

_symmetry_space_group_name_H-M    "P 1"
_symmetry_int_tables_number       1

loop_
  _symmetry_equiv_pos_as_xyz
  'x, y, z'

loop_
  _atom_site_label
  _atom_site_occupancy
  _atom_site_fract_x
  _atom_site_fract_y
  _atom_site_fract_z
  _atom_site_thermal_displace_type
  _atom_site_B_iso_or_equiv
  _atom_site_type_symbol
  Eu1      1.0000 0.18434  0.70591  0.46130  Biso   1.000  Eu
  C1       1.0000 0.09840  0.75220  0.52600  Biso   1.000  C
  C2       1.0000 0.05400  0.77680  0.56520  Biso   1.000  C
  C3       1.0000 0.03820  0.87040  0.56430  Biso   1.000  C
  H1       1.0000 0.05690  0.91830  0.54460  Biso   1.000  H
  C4       1.0000 0.99710  0.89310  0.59080  Biso   1.000  C
  H2       1.0000 0.98680  0.95550  0.58660  Biso   1.000  H
  C5       1.0000 0.96950  0.82200  0.62510  Biso   1.000  C
  C6       1.0000 0.98460  0.73250  0.62890  Biso   1.000  C
  H3       1.0000 0.96650  0.68560  0.65260  Biso   1.000  H
  C7       1.0000 0.02750  0.70720  0.59780  Biso   1.000  C
  H4       1.0000 0.03740  0.64440  0.59960  Biso   1.000  H
  C8       1.0000 0.92180  0.83920  0.65080  Biso   1.000  C
  C9       1.0000 0.75370  0.07960  0.57480  Biso   1.000  C
  C10      1.0000 0.78380  0.00820  0.62840  Biso   1.000  C
  C11      1.0000 0.83040  0.00020  0.61850  Biso   1.000  C
  H5       1.0000 0.84330  0.04250  0.57730  Biso   1.000  H
  C12      1.0000 0.85780  0.93230  0.66720  Biso   1.000  C
  C13      1.0000 0.83970  0.87440  0.73940  Biso   1.000  C
  H6       1.0000 0.85870  0.83140  0.77800  Biso   1.000  H
  C14      1.0000 0.79380  0.88350  0.75060  Biso   1.000  C
  C15      1.0000 0.76550  0.94970  0.69660  Biso   1.000  C
  H7       1.0000 0.73450  0.95520  0.70570  Biso   1.000  H
  C16      1.0000 0.77380  0.82340  0.82720  Biso   1.000  C
  N1       1.0000 0.90470  0.92200  0.64710  Biso   1.000  N
  O1       1.0000 0.11360  0.66890  0.54110  Biso   1.000  O
  O2       1.0000 0.12020  0.81370  0.48600  Biso   1.000  O
  O3       1.0000 0.71070  0.06480  0.55360  Biso   1.000  O
  O4       1.0000 0.77120  0.15560  0.54550  Biso   1.000  O
  O5       1.0000 0.73270  0.84090  0.84280  Biso   1.000  O
  O6       1.0000 0.80030  0.76160  0.87290  Biso   1.000  O
  Eu2      1.0000 0.68434  0.20591  0.46130  Biso   1.000  Eu
  C17      1.0000 0.59840  0.25220  0.52600  Biso   1.000  C
  C18      1.0000 0.55400  0.27680  0.56520  Biso   1.000  C
  C19      1.0000 0.53820  0.37040  0.56430  Biso   1.000  C
  H8       1.0000 0.55690  0.41830  0.54460  Biso   1.000  H
  C20      1.0000 0.49710  0.39310  0.59080  Biso   1.000  C
  H9       1.0000 0.48680  0.45550  0.58660  Biso   1.000  H
  C21      1.0000 0.46950  0.32200  0.62510  Biso   1.000  C
  C22      1.0000 0.48460  0.23250  0.62890  Biso   1.000  C
  H10      1.0000 0.46650  0.18560  0.65260  Biso   1.000  H
  C23      1.0000 0.52750  0.20720  0.59780  Biso   1.000  C
  H11      1.0000 0.53740  0.14440  0.59960  Biso   1.000  H
  C24      1.0000 0.42180  0.33920  0.65080  Biso   1.000  C
  C25      1.0000 0.25370  0.57960  0.57480  Biso   1.000  C
  C26      1.0000 0.28380  0.50820  0.62840  Biso   1.000  C
  C27      1.0000 0.33040  0.50020  0.61850  Biso   1.000  C
  H12      1.0000 0.34330  0.54250  0.57730  Biso   1.000  H
  C28      1.0000 0.35780  0.43230  0.66720  Biso   1.000  C
  C29      1.0000 0.33970  0.37440  0.73940  Biso   1.000  C
  H13      1.0000 0.35870  0.33140  0.77800  Biso   1.000  H
  C30      1.0000 0.29380  0.38350  0.75060  Biso   1.000  C
  C31      1.0000 0.26550  0.44970  0.69660  Biso   1.000  C
  H14      1.0000 0.23450  0.45520  0.70570  Biso   1.000  H
  C32      1.0000 0.27380  0.32340  0.82720  Biso   1.000  C
  N2       1.0000 0.40470  0.42200  0.64710  Biso   1.000  N
  O7       1.0000 0.61360  0.16890  0.54110  Biso   1.000  O
  O8       1.0000 0.62020  0.31370  0.48600  Biso   1.000  O
  O9       1.0000 0.21070  0.56480  0.55360  Biso   1.000  O
  O10      1.0000 0.27120  0.65560  0.54550  Biso   1.000  O
  O11      1.0000 0.23270  0.34090  0.84280  Biso   1.000  O
  O12      1.0000 0.30030  0.26160  0.87290  Biso   1.000  O
  Eu3      1.0000 0.81566  0.70591  0.03870  Biso   1.000  Eu
  C33      1.0000 0.90160  0.75220  0.97400  Biso   1.000  C
  C34      1.0000 0.94600  0.77680  0.93480  Biso   1.000  C
  C35      1.0000 0.96180  0.87040  0.93570  Biso   1.000  C
  H15      1.0000 0.94310  0.91830  0.95540  Biso   1.000  H
  C36      1.0000 0.00290  0.89310  0.90920  Biso   1.000  C
  H16      1.0000 0.01320  0.95550  0.91340  Biso   1.000  H
  C37      1.0000 0.03050  0.82200  0.87490  Biso   1.000  C
  C38      1.0000 0.01540  0.73250  0.87110  Biso   1.000  C
  H17      1.0000 0.03350  0.68560  0.84740  Biso   1.000  H
  C39      1.0000 0.97250  0.70720  0.90220  Biso   1.000  C
  H18      1.0000 0.96260  0.64440  0.90040  Biso   1.000  H
  C40      1.0000 0.07820  0.83920  0.84920  Biso   1.000  C
  C41      1.0000 0.24630  0.07960  0.92520  Biso   1.000  C
  C42      1.0000 0.21620  0.00820  0.87160  Biso   1.000  C
  C43      1.0000 0.16960  0.00020  0.88150  Biso   1.000  C
  H19      1.0000 0.15670  0.04250  0.92270  Biso   1.000  H
  C44      1.0000 0.14220  0.93230  0.83280  Biso   1.000  C
  C45      1.0000 0.16030  0.87440  0.76060  Biso   1.000  C
  H20      1.0000 0.14130  0.83140  0.72200  Biso   1.000  H
  C46      1.0000 0.20620  0.88350  0.74940  Biso   1.000  C
  C47      1.0000 0.23450  0.94970  0.80340  Biso   1.000  C
  H21      1.0000 0.26550  0.95520  0.79430  Biso   1.000  H
  C48      1.0000 0.22620  0.82340  0.67280  Biso   1.000  C
  N3       1.0000 0.09530  0.92200  0.85290  Biso   1.000  N
  O13      1.0000 0.88640  0.66890  0.95890  Biso   1.000  O
  O14      1.0000 0.87980  0.81370  0.01400  Biso   1.000  O
  O15      1.0000 0.28930  0.06480  0.94640  Biso   1.000  O
  O16      1.0000 0.22880  0.15560  0.95450  Biso   1.000  O
  O17      1.0000 0.26730  0.84090  0.65720  Biso   1.000  O
  O18      1.0000 0.19970  0.76160  0.62710  Biso   1.000  O
  Eu4      1.0000 0.31566  0.20591  0.03870  Biso   1.000  Eu
  C49      1.0000 0.40160  0.25220  0.97400  Biso   1.000  C
  C50      1.0000 0.44600  0.27680  0.93480  Biso   1.000  C
  C51      1.0000 0.46180  0.37040  0.93570  Biso   1.000  C
  H22      1.0000 0.44310  0.41830  0.95540  Biso   1.000  H
  C52      1.0000 0.50290  0.39310  0.90920  Biso   1.000  C
  H23      1.0000 0.51320  0.45550  0.91340  Biso   1.000  H
  C53      1.0000 0.53050  0.32200  0.87490  Biso   1.000  C
  C54      1.0000 0.51540  0.23250  0.87110  Biso   1.000  C
  H24      1.0000 0.53350  0.18560  0.84740  Biso   1.000  H
  C55      1.0000 0.47250  0.20720  0.90220  Biso   1.000  C
  H25      1.0000 0.46260  0.14440  0.90040  Biso   1.000  H
  C56      1.0000 0.57820  0.33920  0.84920  Biso   1.000  C
  C57      1.0000 0.74630  0.57960  0.92520  Biso   1.000  C
  C58      1.0000 0.71620  0.50820  0.87160  Biso   1.000  C
  C59      1.0000 0.66960  0.50020  0.88150  Biso   1.000  C
  H26      1.0000 0.65670  0.54250  0.92270  Biso   1.000  H
  C60      1.0000 0.64220  0.43230  0.83280  Biso   1.000  C
  C61      1.0000 0.66030  0.37440  0.76060  Biso   1.000  C
  H27      1.0000 0.64130  0.33140  0.72200  Biso   1.000  H
  C62      1.0000 0.70620  0.38350  0.74940  Biso   1.000  C
  C63      1.0000 0.73450  0.44970  0.80340  Biso   1.000  C
  H28      1.0000 0.76550  0.45520  0.79430  Biso   1.000  H
  C64      1.0000 0.72620  0.32340  0.67280  Biso   1.000  C
  N4       1.0000 0.59530  0.42200  0.85290  Biso   1.000  N
  O19      1.0000 0.38640  0.16890  0.95890  Biso   1.000  O
  O20      1.0000 0.37980  0.31370  0.01400  Biso   1.000  O
  O21      1.0000 0.78930  0.56480  0.94640  Biso   1.000  O
  O22      1.0000 0.72880  0.65560  0.95450  Biso   1.000  O
  O23      1.0000 0.76730  0.34090  0.65720  Biso   1.000  O
  O24      1.0000 0.69970  0.26160  0.62710  Biso   1.000  O
  Eu5      1.0000 0.81566  0.29409  0.53870  Biso   1.000  Eu
  C65      1.0000 0.90160  0.24780  0.47400  Biso   1.000  C
  C66      1.0000 0.94600  0.22320  0.43480  Biso   1.000  C
  C67      1.0000 0.96180  0.12960  0.43570  Biso   1.000  C
  H29      1.0000 0.94310  0.08170  0.45540  Biso   1.000  H
  C68      1.0000 0.00290  0.10690  0.40920  Biso   1.000  C
  H30      1.0000 0.01320  0.04450  0.41340  Biso   1.000  H
  C69      1.0000 0.03050  0.17800  0.37490  Biso   1.000  C
  C70      1.0000 0.01540  0.26750  0.37110  Biso   1.000  C
  H31      1.0000 0.03350  0.31440  0.34740  Biso   1.000  H
  C71      1.0000 0.97250  0.29280  0.40220  Biso   1.000  C
  H32      1.0000 0.96260  0.35560  0.40040  Biso   1.000  H
  C72      1.0000 0.07820  0.16080  0.34920  Biso   1.000  C
  C73      1.0000 0.24630  0.92040  0.42520  Biso   1.000  C
  C74      1.0000 0.21620  0.99180  0.37160  Biso   1.000  C
  C75      1.0000 0.16960  0.99980  0.38150  Biso   1.000  C
  H33      1.0000 0.15670  0.95750  0.42270  Biso   1.000  H
  C76      1.0000 0.14220  0.06770  0.33280  Biso   1.000  C
  C77      1.0000 0.16030  0.12560  0.26060  Biso   1.000  C
  H34      1.0000 0.14130  0.16860  0.22200  Biso   1.000  H
  C78      1.0000 0.20620  0.11650  0.24940  Biso   1.000  C
  C79      1.0000 0.23450  0.05030  0.30340  Biso   1.000  C
  H35      1.0000 0.26550  0.04480  0.29430  Biso   1.000  H
  C80      1.0000 0.22620  0.17660  0.17280  Biso   1.000  C
  N5       1.0000 0.09530  0.07800  0.35290  Biso   1.000  N
  O25      1.0000 0.88640  0.33110  0.45890  Biso   1.000  O
  O26      1.0000 0.87980  0.18630  0.51400  Biso   1.000  O
  O27      1.0000 0.28930  0.93520  0.44640  Biso   1.000  O
  O28      1.0000 0.22880  0.84440  0.45450  Biso   1.000  O
  O29      1.0000 0.26730  0.15910  0.15720  Biso   1.000  O
  O30      1.0000 0.19970  0.23840  0.12710  Biso   1.000  O
  Eu6      1.0000 0.31566  0.79409  0.53870  Biso   1.000  Eu
  C81      1.0000 0.40160  0.74780  0.47400  Biso   1.000  C
  C82      1.0000 0.44600  0.72320  0.43480  Biso   1.000  C
  C83      1.0000 0.46180  0.62960  0.43570  Biso   1.000  C
  H36      1.0000 0.44310  0.58170  0.45540  Biso   1.000  H
  C84      1.0000 0.50290  0.60690  0.40920  Biso   1.000  C
  H37      1.0000 0.51320  0.54450  0.41340  Biso   1.000  H
  C85      1.0000 0.53050  0.67800  0.37490  Biso   1.000  C
  C86      1.0000 0.51540  0.76750  0.37110  Biso   1.000  C
  H38      1.0000 0.53350  0.81440  0.34740  Biso   1.000  H
  C87      1.0000 0.47250  0.79280  0.40220  Biso   1.000  C
  H39      1.0000 0.46260  0.85560  0.40040  Biso   1.000  H
  C88      1.0000 0.57820  0.66080  0.34920  Biso   1.000  C
  C89      1.0000 0.74630  0.42040  0.42520  Biso   1.000  C
  C90      1.0000 0.71620  0.49180  0.37160  Biso   1.000  C
  C91      1.0000 0.66960  0.49980  0.38150  Biso   1.000  C
  H40      1.0000 0.65670  0.45750  0.42270  Biso   1.000  H
  C92      1.0000 0.64220  0.56770  0.33280  Biso   1.000  C
  C93      1.0000 0.66030  0.62560  0.26060  Biso   1.000  C
  H41      1.0000 0.64130  0.66860  0.22200  Biso   1.000  H
  C94      1.0000 0.70620  0.61650  0.24940  Biso   1.000  C
  C95      1.0000 0.73450  0.55030  0.30340  Biso   1.000  C
  H42      1.0000 0.76550  0.54480  0.29430  Biso   1.000  H
  C96      1.0000 0.72620  0.67660  0.17280  Biso   1.000  C
  N6       1.0000 0.59530  0.57800  0.35290  Biso   1.000  N
  O31      1.0000 0.38640  0.83110  0.45890  Biso   1.000  O
  O32      1.0000 0.37980  0.68630  0.51400  Biso   1.000  O
  O33      1.0000 0.78930  0.43520  0.44640  Biso   1.000  O
  O34      1.0000 0.72880  0.34440  0.45450  Biso   1.000  O
  O35      1.0000 0.76730  0.65910  0.15720  Biso   1.000  O
  O36      1.0000 0.69970  0.73840  0.12710  Biso   1.000  O
  Eu7      1.0000 0.18434  0.29409  0.96130  Biso   1.000  Eu
  C97      1.0000 0.09840  0.24780  0.02600  Biso   1.000  C
  C98      1.0000 0.05400  0.22320  0.06520  Biso   1.000  C
  C99      1.0000 0.03820  0.12960  0.06430  Biso   1.000  C
  H43      1.0000 0.05690  0.08170  0.04460  Biso   1.000  H
  C100     1.0000 0.99710  0.10690  0.09080  Biso   1.000  C
  H44      1.0000 0.98680  0.04450  0.08660  Biso   1.000  H
  C101     1.0000 0.96950  0.17800  0.12510  Biso   1.000  C
  C102     1.0000 0.98460  0.26750  0.12890  Biso   1.000  C
  H45      1.0000 0.96650  0.31440  0.15260  Biso   1.000  H
  C103     1.0000 0.02750  0.29280  0.09780  Biso   1.000  C
  H46      1.0000 0.03740  0.35560  0.09960  Biso   1.000  H
  C104     1.0000 0.92180  0.16080  0.15080  Biso   1.000  C
  C105     1.0000 0.75370  0.92040  0.07480  Biso   1.000  C
  C106     1.0000 0.78380  0.99180  0.12840  Biso   1.000  C
  C107     1.0000 0.83040  0.99980  0.11850  Biso   1.000  C
  H47      1.0000 0.84330  0.95750  0.07730  Biso   1.000  H
  C108     1.0000 0.85780  0.06770  0.16720  Biso   1.000  C
  C109     1.0000 0.83970  0.12560  0.23940  Biso   1.000  C
  H48      1.0000 0.85870  0.16860  0.27800  Biso   1.000  H
  C110     1.0000 0.79380  0.11650  0.25060  Biso   1.000  C
  C111     1.0000 0.76550  0.05030  0.19660  Biso   1.000  C
  H49      1.0000 0.73450  0.04480  0.20570  Biso   1.000  H
  C112     1.0000 0.77380  0.17660  0.32720  Biso   1.000  C
  N7       1.0000 0.90470  0.07800  0.14710  Biso   1.000  N
  O37      1.0000 0.11360  0.33110  0.04110  Biso   1.000  O
  O38      1.0000 0.12020  0.18630  0.98600  Biso   1.000  O
  O39      1.0000 0.71070  0.93520  0.05360  Biso   1.000  O
  O40      1.0000 0.77120  0.84440  0.04550  Biso   1.000  O
  O41      1.0000 0.73270  0.15910  0.34280  Biso   1.000  O
  O42      1.0000 0.80030  0.23840  0.37290  Biso   1.000  O
  Eu8      1.0000 0.68434  0.79409  0.96130  Biso   1.000  Eu
  C113     1.0000 0.59840  0.74780  0.02600  Biso   1.000  C
  C114     1.0000 0.55400  0.72320  0.06520  Biso   1.000  C
  C115     1.0000 0.53820  0.62960  0.06430  Biso   1.000  C
  H50      1.0000 0.55690  0.58170  0.04460  Biso   1.000  H
  C116     1.0000 0.49710  0.60690  0.09080  Biso   1.000  C
  H51      1.0000 0.48680  0.54450  0.08660  Biso   1.000  H
  C117     1.0000 0.46950  0.67800  0.12510  Biso   1.000  C
  C118     1.0000 0.48460  0.76750  0.12890  Biso   1.000  C
  H52      1.0000 0.46650  0.81440  0.15260  Biso   1.000  H
  C119     1.0000 0.52750  0.79280  0.09780  Biso   1.000  C
  H53      1.0000 0.53740  0.85560  0.09960  Biso   1.000  H
  C120     1.0000 0.42180  0.66080  0.15080  Biso   1.000  C
  C121     1.0000 0.25370  0.42040  0.07480  Biso   1.000  C
  C122     1.0000 0.28380  0.49180  0.12840  Biso   1.000  C
  C123     1.0000 0.33040  0.49980  0.11850  Biso   1.000  C
  H54      1.0000 0.34330  0.45750  0.07730  Biso   1.000  H
  C124     1.0000 0.35780  0.56770  0.16720  Biso   1.000  C
  C125     1.0000 0.33970  0.62560  0.23940  Biso   1.000  C
  H55      1.0000 0.35870  0.66860  0.27800  Biso   1.000  H
  C126     1.0000 0.29380  0.61650  0.25060  Biso   1.000  C
  C127     1.0000 0.26550  0.55030  0.19660  Biso   1.000  C
  H56      1.0000 0.23450  0.54480  0.20570  Biso   1.000  H
  C128     1.0000 0.27380  0.67660  0.32720  Biso   1.000  C
  N8       1.0000 0.40470  0.57800  0.14710  Biso   1.000  N
  O43      1.0000 0.61360  0.83110  0.04110  Biso   1.000  O
  O44      1.0000 0.62020  0.68630  0.98600  Biso   1.000  O
  O45      1.0000 0.21070  0.43520  0.05360  Biso   1.000  O
  O46      1.0000 0.27120  0.34440  0.04550  Biso   1.000  O
  O47      1.0000 0.23270  0.65910  0.34280  Biso   1.000  O
  O48      1.0000 0.30030  0.73840  0.37290  Biso   1.000  O
