data_image0
_cell_length_a       9.601
_cell_length_b       9.757
_cell_length_c       10.701
_cell_angle_alpha    74.2
_cell_angle_beta     75.01
_cell_angle_gamma    88.48

_symmetry_space_group_name_H-M    "P 1"
_symmetry_int_tables_number       1

loop_
  _symmetry_equiv_pos_as_xyz
  'x, y, z'

loop_
  _atom_site_label
  _atom_site_occupancy
  _atom_site_fract_x
  _atom_site_fract_y
  _atom_site_fract_z
  _atom_site_thermal_displace_type
  _atom_site_B_iso_or_equiv
  _atom_site_type_symbol
  Ga1      1.0000 0.22340  0.78930  0.83320  Biso   1.000  Ga
  Ga2      1.0000 0.47790  0.21710  0.93600  Biso   1.000  Ga
  Ga3      1.0000 0.18120  0.95200  0.34260  Biso   1.000  Ga
  Ga4      1.0000 0.97680  0.49390  0.86580  Biso   1.000  Ga
  P1       1.0000 0.49820  0.97430  0.78730  Biso   1.000  P
  P2       1.0000 0.28370  0.48150  0.90240  Biso   1.000  P
  P3       1.0000 0.02350  0.79260  0.64210  Biso   1.000  P
  P4       1.0000 0.18160  0.78340  0.13240  Biso   1.000  P
  O1       1.0000 0.17740  0.44600  0.83110  Biso   1.000  O
  O2       1.0000 0.41770  0.39340  0.87750  Biso   1.000  O
  O3       1.0000 0.18600  0.85580  0.98550  Biso   1.000  O
  O4       1.0000 0.43450  0.08350  0.86230  Biso   1.000  O
  O5       1.0000 0.38390  0.92230  0.73640  Biso   1.000  O
  O6       1.0000 0.34290  0.63720  0.83480  Biso   1.000  O
  O7       1.0000 0.98740  0.63470  0.69970  Biso   1.000  O
  O8       1.0000 0.09190  0.81760  0.49190  Biso   1.000  O
  O9       1.0000 0.04280  0.64400  0.94320  Biso   1.000  O
  O10      1.0000 0.22000  0.45960  0.05340  Biso   1.000  O
  O11      1.0000 0.12400  0.85440  0.70440  Biso   1.000  O
  O12      1.0000 0.33040  0.73210  0.14560  Biso   1.000  O
  O13      1.0000 0.14010  0.90210  0.20330  Biso   1.000  O
  O14      1.0000 0.62690  0.04090  0.66870  Biso   1.000  O
  O15      1.0000 0.55600  0.85040  0.88220  Biso   1.000  O
  O16      1.0000 0.07410  0.65870  0.19680  Biso   1.000  O
  O17      1.0000 0.88000  0.87060  0.65980  Biso   1.000  O
  H1       1.0000 0.96590  0.70430  0.97080  Biso   1.000  H
  Ga5      1.0000 0.77660  0.21070  0.16680  Biso   1.000  Ga
  Ga6      1.0000 0.52210  0.78290  0.06400  Biso   1.000  Ga
  Ga7      1.0000 0.81880  0.04800  0.65740  Biso   1.000  Ga
  Ga8      1.0000 0.02320  0.50610  0.13420  Biso   1.000  Ga
  P5       1.0000 0.50180  0.02570  0.21270  Biso   1.000  P
  P6       1.0000 0.71630  0.51850  0.09760  Biso   1.000  P
  P7       1.0000 0.97650  0.20740  0.35790  Biso   1.000  P
  P8       1.0000 0.81840  0.21660  0.86760  Biso   1.000  P
  O18      1.0000 0.82260  0.55400  0.16890  Biso   1.000  O
  O19      1.0000 0.58230  0.60660  0.12250  Biso   1.000  O
  O20      1.0000 0.81400  0.14420  0.01450  Biso   1.000  O
  O21      1.0000 0.56550  0.91650  0.13770  Biso   1.000  O
  O22      1.0000 0.61610  0.07770  0.26360  Biso   1.000  O
  O23      1.0000 0.65710  0.36280  0.16520  Biso   1.000  O
  O24      1.0000 0.01260  0.36530  0.30030  Biso   1.000  O
  O25      1.0000 0.90810  0.18240  0.50810  Biso   1.000  O
  O26      1.0000 0.95720  0.35600  0.05680  Biso   1.000  O
  O27      1.0000 0.78000  0.54040  0.94660  Biso   1.000  O
  O28      1.0000 0.87600  0.14560  0.29560  Biso   1.000  O
  O29      1.0000 0.66960  0.26790  0.85440  Biso   1.000  O
  O30      1.0000 0.85990  0.09790  0.79670  Biso   1.000  O
  O31      1.0000 0.37310  0.95910  0.33130  Biso   1.000  O
  O32      1.0000 0.44400  0.14960  0.11780  Biso   1.000  O
  O33      1.0000 0.92590  0.34130  0.80320  Biso   1.000  O
  O34      1.0000 0.12000  0.12940  0.34020  Biso   1.000  O
  H2       1.0000 0.03410  0.29570  0.02920  Biso   1.000  H
