data_CUYVOI_clean
_audit_creation_date              2014-07-02
_audit_creation_method            'Materials Studio'
_symmetry_space_group_name_H-M    'P1'
_symmetry_Int_Tables_number       1
_symmetry_cell_setting            triclinic
loop_
_symmetry_equiv_pos_as_xyz
  x,y,z
_cell_length_a                    8.9850
_cell_length_b                    19.1140
_cell_length_c                    19.9947
_cell_angle_alpha                 92.3756
_cell_angle_beta                  102.9840
_cell_angle_gamma                 90.0000
loop_
_atom_site_label
_atom_site_type_symbol
_atom_site_fract_x
_atom_site_fract_y
_atom_site_fract_z
_atom_site_U_iso_or_equiv
_atom_site_adp_type
_atom_site_occupancy
Zn1    Zn    0.40412   0.40103   0.45300   0.01267  Uiso   1.00
Zn2    Zn    0.95502   0.91122   0.05814   0.01267  Uiso   1.00
Zn3    Zn    0.95112   0.09897   0.54700   0.01267  Uiso   1.00
Zn4    Zn    0.89688   0.58878   0.94186   0.01267  Uiso   1.00
Zn5    Zn    0.59588   0.59897   0.54700   0.01267  Uiso   1.00
Zn6    Zn    0.04498   0.08878   0.94186   0.01267  Uiso   1.00
Zn7    Zn    0.04888   0.90103   0.45300   0.01267  Uiso   1.00
Zn8    Zn    0.10312   0.41122   0.05814   0.01267  Uiso   1.00
H1     H     0.76320   0.79810   0.40200   0.01267  Uiso   1.00
H2     H     0.76830   0.68360   0.34260   0.01267  Uiso   1.00
H3     H     0.19110   0.76040   0.39940   0.01267  Uiso   1.00
H4     H     0.17400   0.63610   0.35560   0.01267  Uiso   1.00
H5     H     0.01560   0.59820   0.34340   0.01267  Uiso   1.00
H6     H     0.26950   0.59020   0.25000   0.01267  Uiso   1.00
H7     H     0.13490   0.55270   0.19760   0.01267  Uiso   1.00
H8     H     0.37290   0.52970   0.35940   0.01267  Uiso   1.00
H9     H     0.06310   0.38550   0.35500   0.01267  Uiso   1.00
H10    H     0.97030   0.45810   0.25640   0.01267  Uiso   1.00
H11    H     0.18930   0.68060   0.19480   0.01267  Uiso   1.00
H12    H     0.21300   0.71620   0.26800   0.01267  Uiso   1.00
H13    H     0.91740   0.79330   0.27080   0.01267  Uiso   1.00
H14    H     0.83250   0.88650   0.19160   0.01267  Uiso   1.00
H15    H     0.10780   0.76660   0.11180   0.01267  Uiso   1.00
H16    H     0.82960   0.65020   0.23680   0.01267  Uiso   1.00
H17    H     0.86890   0.57220   0.22240   0.01267  Uiso   1.00
H18    H     0.66330   0.69260   0.12880   0.01267  Uiso   1.00
H19    H     0.65400   0.68160   0.00620   0.01267  Uiso   1.00
H20    H     0.00960   0.57640   0.09980   0.01267  Uiso   1.00
H21    H     0.54650   0.99030   0.11760   0.01267  Uiso   1.00
H22    H     0.00000   0.38970   0.54080   0.01267  Uiso   1.00
H23    H     0.36120   0.70190   0.59800   0.01267  Uiso   1.00
H24    H     0.42570   0.81640   0.65740   0.01267  Uiso   1.00
H25    H     0.79170   0.73960   0.60060   0.01267  Uiso   1.00
H26    H     0.81840   0.86390   0.64440   0.01267  Uiso   1.00
H27    H     0.67220   0.90180   0.65660   0.01267  Uiso   1.00
H28    H     0.01950   0.90980   0.75000   0.01267  Uiso   1.00
H29    H     0.93730   0.94730   0.80240   0.01267  Uiso   1.00
H30    H     0.01350   0.97030   0.64060   0.01267  Uiso   1.00
H31    H     0.70810   0.11450   0.64500   0.01267  Uiso   1.00
H32    H     0.71390   0.04190   0.74360   0.01267  Uiso   1.00
H33    H     0.99450   0.81940   0.80520   0.01267  Uiso   1.00
H34    H     0.94500   0.78380   0.73200   0.01267  Uiso   1.00
H35    H     0.64660   0.70670   0.72920   0.01267  Uiso   1.00
H36    H     0.64090   0.61350   0.80840   0.01267  Uiso   1.00
H37    H     0.99600   0.73340   0.88820   0.01267  Uiso   1.00
H38    H     0.59280   0.84980   0.76320   0.01267  Uiso   1.00
H39    H     0.64650   0.92780   0.77760   0.01267  Uiso   1.00
H40    H     0.53450   0.80740   0.87120   0.01267  Uiso   1.00
H41    H     0.64780   0.81840   0.99380   0.01267  Uiso   1.00
H42    H     0.90980   0.92360   0.90020   0.01267  Uiso   1.00
H43    H     0.42890   0.50970   0.88240   0.01267  Uiso   1.00
H44    H     0.45920   0.11030   0.45920   0.01267  Uiso   1.00
H45    H     0.23680   0.20190   0.59800   0.01267  Uiso   1.00
H46    H     0.23170   0.31640   0.65740   0.01267  Uiso   1.00
H47    H     0.80890   0.23960   0.60060   0.01267  Uiso   1.00
H48    H     0.82600   0.36390   0.64440   0.01267  Uiso   1.00
H49    H     0.98440   0.40180   0.65660   0.01267  Uiso   1.00
H50    H     0.73050   0.40980   0.75000   0.01267  Uiso   1.00
H51    H     0.86510   0.44730   0.80240   0.01267  Uiso   1.00
H52    H     0.62710   0.47030   0.64060   0.01267  Uiso   1.00
H53    H     0.93690   0.61450   0.64500   0.01267  Uiso   1.00
H54    H     0.02970   0.54190   0.74360   0.01267  Uiso   1.00
H55    H     0.81070   0.31940   0.80520   0.01267  Uiso   1.00
H56    H     0.78700   0.28380   0.73200   0.01267  Uiso   1.00
H57    H     0.08260   0.20670   0.72920   0.01267  Uiso   1.00
H58    H     0.16750   0.11350   0.80840   0.01267  Uiso   1.00
H59    H     0.89220   0.23340   0.88820   0.01267  Uiso   1.00
H60    H     0.17040   0.34980   0.76320   0.01267  Uiso   1.00
H61    H     0.13110   0.42780   0.77760   0.01267  Uiso   1.00
H62    H     0.33670   0.30740   0.87120   0.01267  Uiso   1.00
H63    H     0.34600   0.31840   0.99380   0.01267  Uiso   1.00
H64    H     0.99040   0.42360   0.90020   0.01267  Uiso   1.00
H65    H     0.45350   0.00970   0.88240   0.01267  Uiso   1.00
H66    H     0.00000   0.61030   0.45920   0.01267  Uiso   1.00
H67    H     0.63880   0.29810   0.40200   0.01267  Uiso   1.00
H68    H     0.57430   0.18360   0.34260   0.01267  Uiso   1.00
H69    H     0.20830   0.26040   0.39940   0.01267  Uiso   1.00
H70    H     0.18160   0.13610   0.35560   0.01267  Uiso   1.00
H71    H     0.32780   0.09820   0.34340   0.01267  Uiso   1.00
H72    H     0.98050   0.09020   0.25000   0.01267  Uiso   1.00
H73    H     0.06270   0.05270   0.19760   0.01267  Uiso   1.00
H74    H     0.98650   0.02970   0.35940   0.01267  Uiso   1.00
H75    H     0.29190   0.88550   0.35500   0.01267  Uiso   1.00
H76    H     0.28610   0.95810   0.25640   0.01267  Uiso   1.00
H77    H     0.00550   0.18060   0.19480   0.01267  Uiso   1.00
H78    H     0.05500   0.21620   0.26800   0.01267  Uiso   1.00
H79    H     0.35340   0.29330   0.27080   0.01267  Uiso   1.00
H80    H     0.35910   0.38650   0.19160   0.01267  Uiso   1.00
H81    H     0.00400   0.26660   0.11180   0.01267  Uiso   1.00
H82    H     0.40720   0.15020   0.23680   0.01267  Uiso   1.00
H83    H     0.35350   0.07220   0.22240   0.01267  Uiso   1.00
H84    H     0.46550   0.19260   0.12880   0.01267  Uiso   1.00
H85    H     0.35220   0.18160   0.00620   0.01267  Uiso   1.00
H86    H     0.09020   0.07640   0.09980   0.01267  Uiso   1.00
H87    H     0.57110   0.49030   0.11760   0.01267  Uiso   1.00
H88    H     0.54080   0.88970   0.54080   0.01267  Uiso   1.00
C1     C     0.84998   0.77610   0.39356   0.01267  Uiso   1.00
C2     C     0.85144   0.71300   0.36048   0.01267  Uiso   1.00
C3     C     0.08551   0.75610   0.39202   0.01267  Uiso   1.00
C4     C     0.06760   0.63890   0.33180   0.01267  Uiso   1.00
C5     C     0.05970   0.63400   0.25360   0.01267  Uiso   1.00
C6     C     0.16658   0.57190   0.24436   0.01267  Uiso   1.00
C7     C     0.28435   0.50260   0.34610   0.01267  Uiso   1.00
C8     C     0.11445   0.42380   0.34330   0.01267  Uiso   1.00
C9     C     0.06187   0.46390   0.28894   0.01267  Uiso   1.00
C10    C     0.13605   0.69770   0.22930   0.01267  Uiso   1.00
C11    C     0.94483   0.79920   0.22926   0.01267  Uiso   1.00
C12    C     0.89876   0.85060   0.18552   0.01267  Uiso   1.00
C13    C     0.04955   0.78490   0.14130   0.01267  Uiso   1.00
C14    C     0.89465   0.62030   0.21550   0.01267  Uiso   1.00
C15    C     0.73157   0.66810   0.10814   0.01267  Uiso   1.00
C16    C     0.72708   0.66180   0.04056   0.01267  Uiso   1.00
C17    C     0.92262   0.60400   0.09164   0.01267  Uiso   1.00
C18    C     0.26263   0.94910   0.06526   0.01267  Uiso   1.00
C19    C     0.38573   0.97380   0.02986   0.01267  Uiso   1.00
C20    C     0.35540   0.98080   0.95860   0.01267  Uiso   1.00
C21    C     0.52838   0.99390   0.07016   0.01267  Uiso   1.00
C22    C     0.20867   0.95920   0.90994   0.01267  Uiso   1.00
C23    C     0.27886   0.43400   0.57392   0.01267  Uiso   1.00
C24    C     0.13798   0.46890   0.53296   0.01267  Uiso   1.00
C25    C     0.00026   0.43440   0.52412   0.01267  Uiso   1.00
C26    C     0.13851   0.53740   0.50822   0.01267  Uiso   1.00
C27    C     0.28327   0.57710   0.51114   0.01267  Uiso   1.00
C28    C     0.45642   0.72390   0.60644   0.01267  Uiso   1.00
C29    C     0.49096   0.78700   0.63952   0.01267  Uiso   1.00
C30    C     0.69349   0.74390   0.60798   0.01267  Uiso   1.00
C31    C     0.73580   0.86110   0.66820   0.01267  Uiso   1.00
C32    C     0.80610   0.86600   0.74640   0.01267  Uiso   1.00
C33    C     0.92222   0.92810   0.75564   0.01267  Uiso   1.00
C34    C     0.93825   0.99740   0.65390   0.01267  Uiso   1.00
C35    C     0.77115   0.07620   0.65670   0.01267  Uiso   1.00
C36    C     0.77293   0.03610   0.71106   0.01267  Uiso   1.00
C37    C     0.90675   0.80230   0.77070   0.01267  Uiso   1.00
C38    C     0.71557   0.70080   0.77074   0.01267  Uiso   1.00
C39    C     0.71324   0.64940   0.81448   0.01267  Uiso   1.00
C40    C     0.90825   0.71510   0.85870   0.01267  Uiso   1.00
C41    C     0.67915   0.87970   0.78450   0.01267  Uiso   1.00
C42    C     0.62343   0.83190   0.89186   0.01267  Uiso   1.00
C43    C     0.68652   0.83820   0.95944   0.01267  Uiso   1.00
C44    C     0.83098   0.89600   0.90836   0.01267  Uiso   1.00
C45    C     0.19737   0.55090   0.93474   0.01267  Uiso   1.00
C46    C     0.35587   0.52620   0.97014   0.01267  Uiso   1.00
C47    C     0.39680   0.51920   0.04140   0.01267  Uiso   1.00
C48    C     0.45822   0.50610   0.92984   0.01267  Uiso   1.00
C49    C     0.29873   0.54080   0.09006   0.01267  Uiso   1.00
C50    C     0.70494   0.06600   0.42608   0.01267  Uiso   1.00
C51    C     0.60502   0.03110   0.46704   0.01267  Uiso   1.00
C52    C     0.47614   0.06560   0.47588   0.01267  Uiso   1.00
C53    C     0.63029   0.96260   0.49178   0.01267  Uiso   1.00
C54    C     0.77213   0.92290   0.48886   0.01267  Uiso   1.00
C55    C     0.15002   0.22390   0.60644   0.01267  Uiso   1.00
C56    C     0.14856   0.28700   0.63952   0.01267  Uiso   1.00
C57    C     0.91449   0.24390   0.60798   0.01267  Uiso   1.00
C58    C     0.93240   0.36110   0.66820   0.01267  Uiso   1.00
C59    C     0.94030   0.36600   0.74640   0.01267  Uiso   1.00
C60    C     0.83342   0.42810   0.75564   0.01267  Uiso   1.00
C61    C     0.71565   0.49740   0.65390   0.01267  Uiso   1.00
C62    C     0.88555   0.57620   0.65670   0.01267  Uiso   1.00
C63    C     0.93813   0.53610   0.71106   0.01267  Uiso   1.00
C64    C     0.86395   0.30230   0.77070   0.01267  Uiso   1.00
C65    C     0.05517   0.20080   0.77074   0.01267  Uiso   1.00
C66    C     0.10124   0.14940   0.81448   0.01267  Uiso   1.00
C67    C     0.95045   0.21510   0.85870   0.01267  Uiso   1.00
C68    C     0.10535   0.37970   0.78450   0.01267  Uiso   1.00
C69    C     0.26843   0.33190   0.89186   0.01267  Uiso   1.00
C70    C     0.27292   0.33820   0.95944   0.01267  Uiso   1.00
C71    C     0.07738   0.39600   0.90836   0.01267  Uiso   1.00
C72    C     0.73737   0.05090   0.93474   0.01267  Uiso   1.00
C73    C     0.61427   0.02620   0.97014   0.01267  Uiso   1.00
C74    C     0.64460   0.01920   0.04140   0.01267  Uiso   1.00
C75    C     0.47162   0.00610   0.92984   0.01267  Uiso   1.00
C76    C     0.79133   0.04080   0.09006   0.01267  Uiso   1.00
C77    C     0.72114   0.56600   0.42608   0.01267  Uiso   1.00
C78    C     0.86202   0.53110   0.46704   0.01267  Uiso   1.00
C79    C     0.99974   0.56560   0.47588   0.01267  Uiso   1.00
C80    C     0.86149   0.46260   0.49178   0.01267  Uiso   1.00
C81    C     0.71673   0.42290   0.48886   0.01267  Uiso   1.00
C82    C     0.54358   0.27610   0.39356   0.01267  Uiso   1.00
C83    C     0.50904   0.21300   0.36048   0.01267  Uiso   1.00
C84    C     0.30651   0.25610   0.39202   0.01267  Uiso   1.00
C85    C     0.26420   0.13890   0.33180   0.01267  Uiso   1.00
C86    C     0.19390   0.13400   0.25360   0.01267  Uiso   1.00
C87    C     0.07778   0.07190   0.24436   0.01267  Uiso   1.00
C88    C     0.06175   0.00260   0.34610   0.01267  Uiso   1.00
C89    C     0.22885   0.92380   0.34330   0.01267  Uiso   1.00
C90    C     0.22707   0.96390   0.28894   0.01267  Uiso   1.00
C91    C     0.09325   0.19770   0.22930   0.01267  Uiso   1.00
C92    C     0.28443   0.29920   0.22926   0.01267  Uiso   1.00
C93    C     0.28676   0.35060   0.18552   0.01267  Uiso   1.00
C94    C     0.09175   0.28490   0.14130   0.01267  Uiso   1.00
C95    C     0.32085   0.12030   0.21550   0.01267  Uiso   1.00
C96    C     0.37657   0.16810   0.10814   0.01267  Uiso   1.00
C97    C     0.31348   0.16180   0.04056   0.01267  Uiso   1.00
C98    C     0.16902   0.10400   0.09164   0.01267  Uiso   1.00
C99    C     0.80263   0.44910   0.06526   0.01267  Uiso   1.00
C100   C     0.64413   0.47380   0.02986   0.01267  Uiso   1.00
C101   C     0.60320   0.48080   0.95860   0.01267  Uiso   1.00
C102   C     0.54178   0.49390   0.07016   0.01267  Uiso   1.00
C103   C     0.70127   0.45920   0.90994   0.01267  Uiso   1.00
C104   C     0.29506   0.93400   0.57392   0.01267  Uiso   1.00
C105   C     0.39498   0.96890   0.53296   0.01267  Uiso   1.00
C106   C     0.52386   0.93440   0.52412   0.01267  Uiso   1.00
C107   C     0.36971   0.03740   0.50822   0.01267  Uiso   1.00
C108   C     0.22787   0.07710   0.51114   0.01267  Uiso   1.00
N1     N     0.99557   0.80280   0.41274   0.01267  Uiso   1.00
N2     N     0.00285   0.70140   0.35890   0.01267  Uiso   1.00
N3     N     0.25469   0.44810   0.37818   0.01267  Uiso   1.00
N4     N     0.17044   0.51470   0.29128   0.01267  Uiso   1.00
N5     N     0.04017   0.75670   0.20054   0.01267  Uiso   1.00
N6     N     0.96616   0.84150   0.13012   0.01267  Uiso   1.00
N7     N     0.84721   0.62170   0.03022   0.01267  Uiso   1.00
N8     N     0.85587   0.63130   0.14074   0.01267  Uiso   1.00
N9     N     0.58283   0.69720   0.58726   0.01267  Uiso   1.00
N10    N     0.64395   0.79860   0.64110   0.01267  Uiso   1.00
N11    N     0.87651   0.05190   0.62182   0.01267  Uiso   1.00
N12    N     0.87916   0.98530   0.70872   0.01267  Uiso   1.00
N13    N     0.83963   0.74330   0.79946   0.01267  Uiso   1.00
N14    N     0.83604   0.65850   0.86988   0.01267  Uiso   1.00
N15    N     0.81699   0.87830   0.96978   0.01267  Uiso   1.00
N16    N     0.71513   0.86870   0.85926   0.01267  Uiso   1.00
N17    N     0.00443   0.19720   0.58726   0.01267  Uiso   1.00
N18    N     0.99715   0.29860   0.64110   0.01267  Uiso   1.00
N19    N     0.74531   0.55190   0.62182   0.01267  Uiso   1.00
N20    N     0.82956   0.48530   0.70872   0.01267  Uiso   1.00
N21    N     0.95983   0.24330   0.79946   0.01267  Uiso   1.00
N22    N     0.03384   0.15850   0.86988   0.01267  Uiso   1.00
N23    N     0.15279   0.37830   0.96978   0.01267  Uiso   1.00
N24    N     0.14413   0.36870   0.85926   0.01267  Uiso   1.00
N25    N     0.41717   0.30280   0.41274   0.01267  Uiso   1.00
N26    N     0.35605   0.20140   0.35890   0.01267  Uiso   1.00
N27    N     0.12349   0.94810   0.37818   0.01267  Uiso   1.00
N28    N     0.12084   0.01470   0.29128   0.01267  Uiso   1.00
N29    N     0.16037   0.25670   0.20054   0.01267  Uiso   1.00
N30    N     0.16396   0.34150   0.13012   0.01267  Uiso   1.00
N31    N     0.18301   0.12170   0.03022   0.01267  Uiso   1.00
N32    N     0.28487   0.13130   0.14074   0.01267  Uiso   1.00
O1     O     0.29168   0.94530   0.12796   0.01267  Uiso   1.00
O2     O     0.13461   0.93510   0.02542   0.01267  Uiso   1.00
O3     O     0.19876   0.90040   0.88252   0.01267  Uiso   1.00
O4     O     0.10517   0.00554   0.89494   0.01267  Uiso   1.00
O5     O     0.35438   0.39420   0.54156   0.01267  Uiso   1.00
O6     O     0.30348   0.44060   0.63676   0.01267  Uiso   1.00
O7     O     0.40639   0.54860   0.54298   0.01267  Uiso   1.00
O8     O     0.27973   0.63310   0.48346   0.01267  Uiso   1.00
O9     O     0.16372   0.55470   0.87204   0.01267  Uiso   1.00
O10    O     0.10919   0.56490   0.97458   0.01267  Uiso   1.00
O11    O     0.31624   0.59960   0.11748   0.01267  Uiso   1.00
O12    O     0.21023   0.49446   0.10506   0.01267  Uiso   1.00
O13    O     0.81282   0.10580   0.45844   0.01267  Uiso   1.00
O14    O     0.66672   0.05940   0.36324   0.01267  Uiso   1.00
O15    O     0.86341   0.95140   0.45702   0.01267  Uiso   1.00
O16    O     0.79627   0.86690   0.51654   0.01267  Uiso   1.00
O17    O     0.70832   0.05470   0.87204   0.01267  Uiso   1.00
O18    O     0.86539   0.06490   0.97458   0.01267  Uiso   1.00
O19    O     0.80124   0.09960   0.11748   0.01267  Uiso   1.00
O20    O     0.89483   0.99446   0.10506   0.01267  Uiso   1.00
O21    O     0.64562   0.60580   0.45844   0.01267  Uiso   1.00
O22    O     0.69652   0.55940   0.36324   0.01267  Uiso   1.00
O23    O     0.59361   0.45140   0.45702   0.01267  Uiso   1.00
O24    O     0.72027   0.36690   0.51654   0.01267  Uiso   1.00
O25    O     0.83628   0.44530   0.12796   0.01267  Uiso   1.00
O26    O     0.89081   0.43510   0.02542   0.01267  Uiso   1.00
O27    O     0.68376   0.40040   0.88252   0.01267  Uiso   1.00
O28    O     0.78977   0.50554   0.89494   0.01267  Uiso   1.00
O29    O     0.18718   0.89420   0.54156   0.01267  Uiso   1.00
O30    O     0.33328   0.94060   0.63676   0.01267  Uiso   1.00
O31    O     0.13659   0.04860   0.54298   0.01267  Uiso   1.00
O32    O     0.20373   0.13310   0.48346   0.01267  Uiso   1.00
