data_image0
_cell_length_a       7.8758
_cell_length_b       9.1877
_cell_length_c       11.3427
_cell_angle_alpha    112.883
_cell_angle_beta     91.057
_cell_angle_gamma    105.877

_symmetry_space_group_name_H-M    "P 1"
_symmetry_int_tables_number       1

loop_
  _symmetry_equiv_pos_as_xyz
  'x, y, z'

loop_
  _atom_site_label
  _atom_site_occupancy
  _atom_site_fract_x
  _atom_site_fract_y
  _atom_site_fract_z
  _atom_site_thermal_displace_type
  _atom_site_B_iso_or_equiv
  _atom_site_type_symbol
  O1       1.0000 0.71600  0.88920  0.47710  Biso   1.000  O
  H1       1.0000 0.68100  0.84100  0.52900  Biso   1.000  H
  H2       1.0000 0.71100  0.81300  0.39880  Biso   1.000  H
  O2       1.0000 0.98190  0.17990  0.67790  Biso   1.000  O
  O3       1.0000 0.26710  0.32380  0.75390  Biso   1.000  O
  O4       1.0000 0.50030  0.98610  0.31560  Biso   1.000  O
  O5       1.0000 0.38510  0.18690  0.32750  Biso   1.000  O
  C1       1.0000 0.10540  0.29360  0.76410  Biso   1.000  C
  C2       1.0000 0.05010  0.39770  0.88640  Biso   1.000  C
  C3       1.0000 0.87100  0.37690  0.90150  Biso   1.000  C
  H3       1.0000 0.78350  0.29460  0.83530  Biso   1.000  H
  C4       1.0000 0.17870  0.52410  0.98730  Biso   1.000  C
  H4       1.0000 0.29910  0.54120  0.97910  Biso   1.000  H
  C5       1.0000 0.45240  0.07450  0.26920  Biso   1.000  C
  C6       1.0000 0.47760  0.03780  0.12960  Biso   1.000  C
  C7       1.0000 0.43110  0.12730  0.06710  Biso   1.000  C
  H5       1.0000 0.38460  0.21300  0.11170  Biso   1.000  H
  C8       1.0000 0.54700  0.90970  0.06140  Biso   1.000  C
  H6       1.0000 0.57870  0.84860  0.10210  Biso   1.000  H
  O6       1.0000 0.28400  0.11080  0.52290  Biso   1.000  O
  H7       1.0000 0.31900  0.15900  0.47100  Biso   1.000  H
  H8       1.0000 0.28900  0.18700  0.60120  Biso   1.000  H
  O7       1.0000 0.01810  0.82010  0.32210  Biso   1.000  O
  O8       1.0000 0.73290  0.67620  0.24610  Biso   1.000  O
  O9       1.0000 0.49970  0.01390  0.68440  Biso   1.000  O
  O10      1.0000 0.61490  0.81310  0.67250  Biso   1.000  O
  C9       1.0000 0.89460  0.70640  0.23590  Biso   1.000  C
  C10      1.0000 0.94990  0.60230  0.11360  Biso   1.000  C
  C11      1.0000 0.12900  0.62310  0.09850  Biso   1.000  C
  H9       1.0000 0.21650  0.70540  0.16470  Biso   1.000  H
  C12      1.0000 0.82130  0.47590  0.01270  Biso   1.000  C
  H10      1.0000 0.70090  0.45880  0.02090  Biso   1.000  H
  C13      1.0000 0.54760  0.92550  0.73080  Biso   1.000  C
  C14      1.0000 0.52240  0.96220  0.87040  Biso   1.000  C
  C15      1.0000 0.56890  0.87270  0.93290  Biso   1.000  C
  H11      1.0000 0.61540  0.78700  0.88830  Biso   1.000  H
  C16      1.0000 0.45300  0.09030  0.93860  Biso   1.000  C
  H12      1.0000 0.42130  0.15140  0.89790  Biso   1.000  H
  Co1      1.0000 0.00000  0.00000  0.50000  Biso   1.000  Co
  Co2      1.0000 0.50000  0.00000  0.50000  Biso   1.000  Co
