data_image0
_cell_length_a       21.8518
_cell_length_b       14.161
_cell_length_c       17.9185
_cell_angle_alpha    90
_cell_angle_beta     108.165
_cell_angle_gamma    90

_symmetry_space_group_name_H-M    "P 1"
_symmetry_int_tables_number       1

loop_
  _symmetry_equiv_pos_as_xyz
  'x, y, z'

loop_
  _atom_site_label
  _atom_site_occupancy
  _atom_site_fract_x
  _atom_site_fract_y
  _atom_site_fract_z
  _atom_site_thermal_displace_type
  _atom_site_B_iso_or_equiv
  _atom_site_type_symbol
  F1       1.0000 0.91719  0.45798  0.72994  Biso   1.000  F
  Cu1      1.0000 0.81063  0.38194  0.47626  Biso   1.000  Cu
  Cu2      1.0000 0.75179  0.89546  0.58471  Biso   1.000  Cu
  F2       1.0000 0.02449  0.45921  0.84971  Biso   1.000  F
  F3       1.0000 0.93462  0.78807  0.70343  Biso   1.000  F
  F4       1.0000 0.04117  0.78880  0.82299  Biso   1.000  F
  F5       1.0000 0.59428  0.43580  0.35870  Biso   1.000  F
  F6       1.0000 0.58148  0.45310  0.09173  Biso   1.000  F
  N1       1.0000 0.31310  0.39170  0.01990  Biso   1.000  N
  N2       1.0000 0.74352  0.39750  0.37800  Biso   1.000  N
  F7       1.0000 0.46817  0.42150  0.31862  Biso   1.000  F
  N3       1.0000 0.14484  0.76590  0.98990  Biso   1.000  N
  C1       1.0000 0.49490  0.42890  0.26070  Biso   1.000  C
  F8       1.0000 0.45596  0.44380  0.05153  Biso   1.000  F
  C2       1.0000 0.00387  0.54170  0.81320  Biso   1.000  C
  C3       1.0000 0.34747  0.40590  0.08150  Biso   1.000  C
  C4       1.0000 0.86121  0.62250  0.64480  Biso   1.000  C
  N4       1.0000 0.78824  0.76840  0.61720  Biso   1.000  N
  N5       1.0000 0.71827  0.54270  0.16330  Biso   1.000  N
  C5       1.0000 0.10036  0.62260  0.90400  Biso   1.000  C
  N6       1.0000 0.17673  0.48180  0.92020  Biso   1.000  N
  C6       1.0000 0.92075  0.62260  0.70980  Biso   1.000  C
  C7       1.0000 0.12433  0.70170  0.95090  Biso   1.000  C
  C8       1.0000 0.95558  0.70520  0.73850  Biso   1.000  C
  C9       1.0000 0.14190  0.54450  0.91380  Biso   1.000  C
  C10      1.0000 0.66458  0.45230  0.24880  Biso   1.000  C
  C11      1.0000 0.03934  0.62390  0.84090  Biso   1.000  C
  C12      1.0000 0.70658  0.42130  0.32100  Biso   1.000  C
  C13      1.0000 0.55470  0.44630  0.15010  Biso   1.000  C
  C14      1.0000 0.56090  0.43620  0.28100  Biso   1.000  C
  C15      1.0000 0.45501  0.43100  0.18300  Biso   1.000  C
  C16      1.0000 0.01158  0.70530  0.80100  Biso   1.000  C
  C17      1.0000 0.48864  0.44080  0.12910  Biso   1.000  C
  C18      1.0000 0.94828  0.54140  0.75100  Biso   1.000  C
  C19      1.0000 0.84479  0.54770  0.59200  Biso   1.000  C
  C20      1.0000 0.82011  0.70200  0.62900  Biso   1.000  C
  N7       1.0000 0.83158  0.48710  0.54650  Biso   1.000  N
  C21      1.0000 0.69391  0.50100  0.20150  Biso   1.000  C
  C22      1.0000 0.38505  0.42200  0.15910  Biso   1.000  C
  C23      1.0000 0.59410  0.44470  0.22740  Biso   1.000  C
  C24      1.0000 0.35000  0.42750  0.21270  Biso   1.000  C
  N8       1.0000 0.31710  0.42960  0.25210  Biso   1.000  N
  F9       1.0000 0.08281  0.95798  0.77006  Biso   1.000  F
  Cu3      1.0000 0.18937  0.88194  0.02374  Biso   1.000  Cu
  Cu4      1.0000 0.24821  0.39546  0.91529  Biso   1.000  Cu
  F10      1.0000 0.97551  0.95921  0.65029  Biso   1.000  F
  F11      1.0000 0.06538  0.28807  0.79657  Biso   1.000  F
  F12      1.0000 0.95883  0.28880  0.67701  Biso   1.000  F
  F13      1.0000 0.40572  0.93580  0.14130  Biso   1.000  F
  F14      1.0000 0.41852  0.95310  0.40827  Biso   1.000  F
  N9       1.0000 0.68690  0.89170  0.48010  Biso   1.000  N
  N10      1.0000 0.25648  0.89750  0.12200  Biso   1.000  N
  F15      1.0000 0.53183  0.92150  0.18138  Biso   1.000  F
  N11      1.0000 0.85516  0.26590  0.51010  Biso   1.000  N
  C25      1.0000 0.50510  0.92890  0.23930  Biso   1.000  C
  F16      1.0000 0.54404  0.94380  0.44847  Biso   1.000  F
  C26      1.0000 0.99613  0.04170  0.68680  Biso   1.000  C
  C27      1.0000 0.65253  0.90590  0.41850  Biso   1.000  C
  C28      1.0000 0.13879  0.12250  0.85520  Biso   1.000  C
  N12      1.0000 0.21176  0.26840  0.88280  Biso   1.000  N
  N13      1.0000 0.28173  0.04270  0.33670  Biso   1.000  N
  C29      1.0000 0.89964  0.12260  0.59600  Biso   1.000  C
  N14      1.0000 0.82327  0.98180  0.57980  Biso   1.000  N
  C30      1.0000 0.07925  0.12260  0.79020  Biso   1.000  C
  C31      1.0000 0.87567  0.20170  0.54910  Biso   1.000  C
  C32      1.0000 0.04442  0.20520  0.76150  Biso   1.000  C
  C33      1.0000 0.85810  0.04450  0.58620  Biso   1.000  C
  C34      1.0000 0.33542  0.95230  0.25120  Biso   1.000  C
  C35      1.0000 0.96066  0.12390  0.65910  Biso   1.000  C
  C36      1.0000 0.29342  0.92130  0.17900  Biso   1.000  C
  C37      1.0000 0.44530  0.94630  0.34990  Biso   1.000  C
  C38      1.0000 0.43910  0.93620  0.21900  Biso   1.000  C
  C39      1.0000 0.54499  0.93100  0.31700  Biso   1.000  C
  C40      1.0000 0.98842  0.20530  0.69900  Biso   1.000  C
  C41      1.0000 0.51136  0.94080  0.37090  Biso   1.000  C
  C42      1.0000 0.05172  0.04140  0.74900  Biso   1.000  C
  C43      1.0000 0.15521  0.04770  0.90800  Biso   1.000  C
  C44      1.0000 0.17989  0.20200  0.87100  Biso   1.000  C
  N15      1.0000 0.16842  0.98710  0.95350  Biso   1.000  N
  C45      1.0000 0.30609  0.00100  0.29850  Biso   1.000  C
  C46      1.0000 0.61495  0.92200  0.34090  Biso   1.000  C
  C47      1.0000 0.40590  0.94470  0.27260  Biso   1.000  C
  C48      1.0000 0.65000  0.92750  0.28730  Biso   1.000  C
  N16      1.0000 0.68290  0.92960  0.24790  Biso   1.000  N
  F17      1.0000 0.08281  0.54202  0.27006  Biso   1.000  F
  Cu5      1.0000 0.18937  0.61806  0.52374  Biso   1.000  Cu
  Cu6      1.0000 0.24821  0.10454  0.41529  Biso   1.000  Cu
  F18      1.0000 0.97551  0.54079  0.15029  Biso   1.000  F
  F19      1.0000 0.06538  0.21193  0.29657  Biso   1.000  F
  F20      1.0000 0.95883  0.21120  0.17701  Biso   1.000  F
  F21      1.0000 0.40572  0.56420  0.64130  Biso   1.000  F
  F22      1.0000 0.41852  0.54690  0.90827  Biso   1.000  F
  N17      1.0000 0.68690  0.60830  0.98010  Biso   1.000  N
  N18      1.0000 0.25648  0.60250  0.62200  Biso   1.000  N
  F23      1.0000 0.53183  0.57850  0.68138  Biso   1.000  F
  N19      1.0000 0.85516  0.23410  0.01010  Biso   1.000  N
  C49      1.0000 0.50510  0.57110  0.73930  Biso   1.000  C
  F24      1.0000 0.54404  0.55620  0.94847  Biso   1.000  F
  C50      1.0000 0.99613  0.45830  0.18680  Biso   1.000  C
  C51      1.0000 0.65253  0.59410  0.91850  Biso   1.000  C
  C52      1.0000 0.13879  0.37750  0.35520  Biso   1.000  C
  N20      1.0000 0.21176  0.23160  0.38280  Biso   1.000  N
  N21      1.0000 0.28173  0.45730  0.83670  Biso   1.000  N
  C53      1.0000 0.89964  0.37740  0.09600  Biso   1.000  C
  N22      1.0000 0.82327  0.51820  0.07980  Biso   1.000  N
  C54      1.0000 0.07925  0.37740  0.29020  Biso   1.000  C
  C55      1.0000 0.87567  0.29830  0.04910  Biso   1.000  C
  C56      1.0000 0.04442  0.29480  0.26150  Biso   1.000  C
  C57      1.0000 0.85810  0.45550  0.08620  Biso   1.000  C
  C58      1.0000 0.33542  0.54770  0.75120  Biso   1.000  C
  C59      1.0000 0.96066  0.37610  0.15910  Biso   1.000  C
  C60      1.0000 0.29342  0.57870  0.67900  Biso   1.000  C
  C61      1.0000 0.44530  0.55370  0.84990  Biso   1.000  C
  C62      1.0000 0.43910  0.56380  0.71900  Biso   1.000  C
  C63      1.0000 0.54499  0.56900  0.81700  Biso   1.000  C
  C64      1.0000 0.98842  0.29470  0.19900  Biso   1.000  C
  C65      1.0000 0.51136  0.55920  0.87090  Biso   1.000  C
  C66      1.0000 0.05172  0.45860  0.24900  Biso   1.000  C
  C67      1.0000 0.15521  0.45230  0.40800  Biso   1.000  C
  C68      1.0000 0.17989  0.29800  0.37100  Biso   1.000  C
  N23      1.0000 0.16842  0.51290  0.45350  Biso   1.000  N
  C69      1.0000 0.30609  0.49900  0.79850  Biso   1.000  C
  C70      1.0000 0.61495  0.57800  0.84090  Biso   1.000  C
  C71      1.0000 0.40590  0.55530  0.77260  Biso   1.000  C
  C72      1.0000 0.65000  0.57250  0.78730  Biso   1.000  C
  N24      1.0000 0.68290  0.57040  0.74790  Biso   1.000  N
  F25      1.0000 0.91719  0.04202  0.22994  Biso   1.000  F
  Cu7      1.0000 0.81063  0.11806  0.97626  Biso   1.000  Cu
  Cu8      1.0000 0.75179  0.60454  0.08471  Biso   1.000  Cu
  F26      1.0000 0.02449  0.04079  0.34971  Biso   1.000  F
  F27      1.0000 0.93462  0.71193  0.20343  Biso   1.000  F
  F28      1.0000 0.04117  0.71120  0.32299  Biso   1.000  F
  F29      1.0000 0.59428  0.06420  0.85870  Biso   1.000  F
  F30      1.0000 0.58148  0.04690  0.59173  Biso   1.000  F
  N25      1.0000 0.31310  0.10830  0.51990  Biso   1.000  N
  N26      1.0000 0.74352  0.10250  0.87800  Biso   1.000  N
  F31      1.0000 0.46817  0.07850  0.81862  Biso   1.000  F
  N27      1.0000 0.14484  0.73410  0.48990  Biso   1.000  N
  C73      1.0000 0.49490  0.07110  0.76070  Biso   1.000  C
  F32      1.0000 0.45596  0.05620  0.55153  Biso   1.000  F
  C74      1.0000 0.00387  0.95830  0.31320  Biso   1.000  C
  C75      1.0000 0.34747  0.09410  0.58150  Biso   1.000  C
  C76      1.0000 0.86121  0.87750  0.14480  Biso   1.000  C
  N28      1.0000 0.78824  0.73160  0.11720  Biso   1.000  N
  N29      1.0000 0.71827  0.95730  0.66330  Biso   1.000  N
  C77      1.0000 0.10036  0.87740  0.40400  Biso   1.000  C
  N30      1.0000 0.17673  0.01820  0.42020  Biso   1.000  N
  C78      1.0000 0.92075  0.87740  0.20980  Biso   1.000  C
  C79      1.0000 0.12433  0.79830  0.45090  Biso   1.000  C
  C80      1.0000 0.95558  0.79480  0.23850  Biso   1.000  C
  C81      1.0000 0.14190  0.95550  0.41380  Biso   1.000  C
  C82      1.0000 0.66458  0.04770  0.74880  Biso   1.000  C
  C83      1.0000 0.03934  0.87610  0.34090  Biso   1.000  C
  C84      1.0000 0.70658  0.07870  0.82100  Biso   1.000  C
  C85      1.0000 0.55470  0.05370  0.65010  Biso   1.000  C
  C86      1.0000 0.56090  0.06380  0.78100  Biso   1.000  C
  C87      1.0000 0.45501  0.06900  0.68300  Biso   1.000  C
  C88      1.0000 0.01158  0.79470  0.30100  Biso   1.000  C
  C89      1.0000 0.48864  0.05920  0.62910  Biso   1.000  C
  C90      1.0000 0.94828  0.95860  0.25100  Biso   1.000  C
  C91      1.0000 0.84479  0.95230  0.09200  Biso   1.000  C
  C92      1.0000 0.82011  0.79800  0.12900  Biso   1.000  C
  N31      1.0000 0.83158  0.01290  0.04650  Biso   1.000  N
  C93      1.0000 0.69391  0.99900  0.70150  Biso   1.000  C
  C94      1.0000 0.38505  0.07800  0.65910  Biso   1.000  C
  C95      1.0000 0.59410  0.05530  0.72740  Biso   1.000  C
  C96      1.0000 0.35000  0.07250  0.71270  Biso   1.000  C
  N32      1.0000 0.31710  0.07040  0.75210  Biso   1.000  N
