data_image0
_cell_length_a       13.0883
_cell_length_b       13.0883
_cell_length_c       26.7939
_cell_angle_alpha    90
_cell_angle_beta     90
_cell_angle_gamma    90

_symmetry_space_group_name_H-M    "P 1"
_symmetry_int_tables_number       1

loop_
  _symmetry_equiv_pos_as_xyz
  'x, y, z'

loop_
  _atom_site_label
  _atom_site_occupancy
  _atom_site_fract_x
  _atom_site_fract_y
  _atom_site_fract_z
  _atom_site_thermal_displace_type
  _atom_site_B_iso_or_equiv
  _atom_site_type_symbol
  N1       1.0000 0.44990  0.90490  0.33688  Biso   1.000  N
  O1       1.0000 0.28050  0.54320  0.58323  Biso   1.000  O
  N2       1.0000 0.09920  0.45590  0.72918  Biso   1.000  N
  C1       1.0000 0.38590  0.61760  0.46281  Biso   1.000  C
  H1       1.0000 0.41410  0.58680  0.43470  Biso   1.000  H
  C2       1.0000 0.35100  0.55570  0.50227  Biso   1.000  C
  C3       1.0000 0.40620  0.78680  0.42098  Biso   1.000  C
  C4       1.0000 0.37950  0.72290  0.46472  Biso   1.000  C
  C5       1.0000 0.46400  0.74820  0.38184  Biso   1.000  C
  H2       1.0000 0.48920  0.68180  0.38340  Biso   1.000  H
  C6       1.0000 0.48440  0.80870  0.34031  Biso   1.000  C
  H3       1.0000 0.52290  0.78170  0.31430  Biso   1.000  H
  C7       1.0000 0.31600  0.60520  0.54613  Biso   1.000  C
  C8       1.0000 0.34590  0.76770  0.50886  Biso   1.000  C
  H4       1.0000 0.34430  0.83850  0.51130  Biso   1.000  H
  C9       1.0000 0.37010  0.88410  0.41606  Biso   1.000  C
  H5       1.0000 0.32950  0.91230  0.44100  Biso   1.000  H
  C10      1.0000 0.39370  0.94180  0.37360  Biso   1.000  C
  H6       1.0000 0.36900  0.00830  0.37120  Biso   1.000  H
  C11      1.0000 0.13350  0.52610  0.69648  Biso   1.000  C
  H7       1.0000 0.11000  0.59290  0.69930  Biso   1.000  H
  C12      1.0000 0.20100  0.50350  0.65944  Biso   1.000  C
  C13      1.0000 0.31490  0.71000  0.54902  Biso   1.000  C
  H8       1.0000 0.29320  0.74200  0.57810  Biso   1.000  H
  C14      1.0000 0.13020  0.35930  0.72410  Biso   1.000  C
  H9       1.0000 0.10630  0.31020  0.74640  Biso   1.000  H
  C15      1.0000 0.23840  0.58680  0.62570  Biso   1.000  C
  H10      1.0000 0.18220  0.63120  0.61660  Biso   1.000  H
  H11      1.0000 0.28950  0.62750  0.64280  Biso   1.000  H
  C16      1.0000 0.19530  0.33080  0.68740  Biso   1.000  C
  H12      1.0000 0.21440  0.26260  0.68460  Biso   1.000  H
  C17      1.0000 0.23340  0.40070  0.65440  Biso   1.000  C
  H13      1.0000 0.27900  0.38150  0.62940  Biso   1.000  H
  N3       1.0000 0.55010  0.09510  0.33688  Biso   1.000  N
  O2       1.0000 0.71950  0.45680  0.58323  Biso   1.000  O
  N4       1.0000 0.90080  0.54410  0.72918  Biso   1.000  N
  C18      1.0000 0.61410  0.38240  0.46281  Biso   1.000  C
  H14      1.0000 0.58590  0.41320  0.43470  Biso   1.000  H
  C19      1.0000 0.64900  0.44430  0.50227  Biso   1.000  C
  C20      1.0000 0.59380  0.21320  0.42098  Biso   1.000  C
  C21      1.0000 0.62050  0.27710  0.46472  Biso   1.000  C
  C22      1.0000 0.53600  0.25180  0.38184  Biso   1.000  C
  H15      1.0000 0.51080  0.31820  0.38340  Biso   1.000  H
  C23      1.0000 0.51560  0.19130  0.34031  Biso   1.000  C
  H16      1.0000 0.47710  0.21830  0.31430  Biso   1.000  H
  C24      1.0000 0.68400  0.39480  0.54613  Biso   1.000  C
  C25      1.0000 0.65410  0.23230  0.50886  Biso   1.000  C
  H17      1.0000 0.65570  0.16150  0.51130  Biso   1.000  H
  C26      1.0000 0.62990  0.11590  0.41606  Biso   1.000  C
  H18      1.0000 0.67050  0.08770  0.44100  Biso   1.000  H
  C27      1.0000 0.60630  0.05820  0.37360  Biso   1.000  C
  H19      1.0000 0.63100  0.99170  0.37120  Biso   1.000  H
  C28      1.0000 0.86650  0.47390  0.69648  Biso   1.000  C
  H20      1.0000 0.89000  0.40710  0.69930  Biso   1.000  H
  C29      1.0000 0.79900  0.49650  0.65944  Biso   1.000  C
  C30      1.0000 0.68510  0.29000  0.54902  Biso   1.000  C
  H21      1.0000 0.70680  0.25800  0.57810  Biso   1.000  H
  C31      1.0000 0.86980  0.64070  0.72410  Biso   1.000  C
  H22      1.0000 0.89370  0.68980  0.74640  Biso   1.000  H
  C32      1.0000 0.76160  0.41320  0.62570  Biso   1.000  C
  H23      1.0000 0.81780  0.36880  0.61660  Biso   1.000  H
  H24      1.0000 0.71050  0.37250  0.64280  Biso   1.000  H
  C33      1.0000 0.80470  0.66920  0.68740  Biso   1.000  C
  H25      1.0000 0.78560  0.73740  0.68460  Biso   1.000  H
  C34      1.0000 0.76660  0.59930  0.65440  Biso   1.000  C
  H26      1.0000 0.72100  0.61850  0.62940  Biso   1.000  H
  N5       1.0000 0.09510  0.44990  0.83688  Biso   1.000  N
  O3       1.0000 0.45680  0.28050  0.08323  Biso   1.000  O
  N6       1.0000 0.54410  0.09920  0.22918  Biso   1.000  N
  C35      1.0000 0.38240  0.38590  0.96281  Biso   1.000  C
  H27      1.0000 0.41320  0.41410  0.93470  Biso   1.000  H
  C36      1.0000 0.44430  0.35100  0.00227  Biso   1.000  C
  C37      1.0000 0.21320  0.40620  0.92098  Biso   1.000  C
  C38      1.0000 0.27710  0.37950  0.96472  Biso   1.000  C
  C39      1.0000 0.25180  0.46400  0.88184  Biso   1.000  C
  H28      1.0000 0.31820  0.48920  0.88340  Biso   1.000  H
  C40      1.0000 0.19130  0.48440  0.84031  Biso   1.000  C
  H29      1.0000 0.21830  0.52290  0.81430  Biso   1.000  H
  C41      1.0000 0.39480  0.31600  0.04613  Biso   1.000  C
  C42      1.0000 0.23230  0.34590  0.00886  Biso   1.000  C
  H30      1.0000 0.16150  0.34430  0.01130  Biso   1.000  H
  C43      1.0000 0.11590  0.37010  0.91606  Biso   1.000  C
  H31      1.0000 0.08770  0.32950  0.94100  Biso   1.000  H
  C44      1.0000 0.05820  0.39370  0.87360  Biso   1.000  C
  H32      1.0000 0.99170  0.36900  0.87120  Biso   1.000  H
  C45      1.0000 0.47390  0.13350  0.19648  Biso   1.000  C
  H33      1.0000 0.40710  0.11000  0.19930  Biso   1.000  H
  C46      1.0000 0.49650  0.20100  0.15944  Biso   1.000  C
  C47      1.0000 0.29000  0.31490  0.04902  Biso   1.000  C
  H34      1.0000 0.25800  0.29320  0.07810  Biso   1.000  H
  C48      1.0000 0.64070  0.13020  0.22410  Biso   1.000  C
  H35      1.0000 0.68980  0.10630  0.24640  Biso   1.000  H
  C49      1.0000 0.41320  0.23840  0.12570  Biso   1.000  C
  H36      1.0000 0.36880  0.18220  0.11660  Biso   1.000  H
  H37      1.0000 0.37250  0.28950  0.14280  Biso   1.000  H
  C50      1.0000 0.66920  0.19530  0.18740  Biso   1.000  C
  H38      1.0000 0.73740  0.21440  0.18460  Biso   1.000  H
  C51      1.0000 0.59930  0.23340  0.15440  Biso   1.000  C
  H39      1.0000 0.61850  0.27900  0.12940  Biso   1.000  H
  N7       1.0000 0.90490  0.55010  0.83688  Biso   1.000  N
  O4       1.0000 0.54320  0.71950  0.08323  Biso   1.000  O
  N8       1.0000 0.45590  0.90080  0.22918  Biso   1.000  N
  C52      1.0000 0.61760  0.61410  0.96281  Biso   1.000  C
  H40      1.0000 0.58680  0.58590  0.93470  Biso   1.000  H
  C53      1.0000 0.55570  0.64900  0.00227  Biso   1.000  C
  C54      1.0000 0.78680  0.59380  0.92098  Biso   1.000  C
  C55      1.0000 0.72290  0.62050  0.96472  Biso   1.000  C
  C56      1.0000 0.74820  0.53600  0.88184  Biso   1.000  C
  H41      1.0000 0.68180  0.51080  0.88340  Biso   1.000  H
  C57      1.0000 0.80870  0.51560  0.84031  Biso   1.000  C
  H42      1.0000 0.78170  0.47710  0.81430  Biso   1.000  H
  C58      1.0000 0.60520  0.68400  0.04613  Biso   1.000  C
  C59      1.0000 0.76770  0.65410  0.00886  Biso   1.000  C
  H43      1.0000 0.83850  0.65570  0.01130  Biso   1.000  H
  C60      1.0000 0.88410  0.62990  0.91606  Biso   1.000  C
  H44      1.0000 0.91230  0.67050  0.94100  Biso   1.000  H
  C61      1.0000 0.94180  0.60630  0.87360  Biso   1.000  C
  H45      1.0000 0.00830  0.63100  0.87120  Biso   1.000  H
  C62      1.0000 0.52610  0.86650  0.19648  Biso   1.000  C
  H46      1.0000 0.59290  0.89000  0.19930  Biso   1.000  H
  C63      1.0000 0.50350  0.79900  0.15944  Biso   1.000  C
  C64      1.0000 0.71000  0.68510  0.04902  Biso   1.000  C
  H47      1.0000 0.74200  0.70680  0.07810  Biso   1.000  H
  C65      1.0000 0.35930  0.86980  0.22410  Biso   1.000  C
  H48      1.0000 0.31020  0.89370  0.24640  Biso   1.000  H
  C66      1.0000 0.58680  0.76160  0.12570  Biso   1.000  C
  H49      1.0000 0.63120  0.81780  0.11660  Biso   1.000  H
  H50      1.0000 0.62750  0.71050  0.14280  Biso   1.000  H
  C67      1.0000 0.33080  0.80470  0.18740  Biso   1.000  C
  H51      1.0000 0.26260  0.78560  0.18460  Biso   1.000  H
  C68      1.0000 0.40070  0.76660  0.15440  Biso   1.000  C
  H52      1.0000 0.38150  0.72100  0.12940  Biso   1.000  H
  N9       1.0000 0.55010  0.90490  0.66312  Biso   1.000  N
  O5       1.0000 0.71950  0.54320  0.41677  Biso   1.000  O
  N10      1.0000 0.90080  0.45590  0.27082  Biso   1.000  N
  C69      1.0000 0.61410  0.61760  0.53719  Biso   1.000  C
  H53      1.0000 0.58590  0.58680  0.56530  Biso   1.000  H
  C70      1.0000 0.64900  0.55570  0.49773  Biso   1.000  C
  C71      1.0000 0.59380  0.78680  0.57902  Biso   1.000  C
  C72      1.0000 0.62050  0.72290  0.53528  Biso   1.000  C
  C73      1.0000 0.53600  0.74820  0.61816  Biso   1.000  C
  H54      1.0000 0.51080  0.68180  0.61660  Biso   1.000  H
  C74      1.0000 0.51560  0.80870  0.65969  Biso   1.000  C
  H55      1.0000 0.47710  0.78170  0.68570  Biso   1.000  H
  C75      1.0000 0.68400  0.60520  0.45387  Biso   1.000  C
  C76      1.0000 0.65410  0.76770  0.49114  Biso   1.000  C
  H56      1.0000 0.65570  0.83850  0.48870  Biso   1.000  H
  C77      1.0000 0.62990  0.88410  0.58394  Biso   1.000  C
  H57      1.0000 0.67050  0.91230  0.55900  Biso   1.000  H
  C78      1.0000 0.60630  0.94180  0.62640  Biso   1.000  C
  H58      1.0000 0.63100  0.00830  0.62880  Biso   1.000  H
  C79      1.0000 0.86650  0.52610  0.30352  Biso   1.000  C
  H59      1.0000 0.89000  0.59290  0.30070  Biso   1.000  H
  C80      1.0000 0.79900  0.50350  0.34056  Biso   1.000  C
  C81      1.0000 0.68510  0.71000  0.45098  Biso   1.000  C
  H60      1.0000 0.70680  0.74200  0.42190  Biso   1.000  H
  C82      1.0000 0.86980  0.35930  0.27590  Biso   1.000  C
  H61      1.0000 0.89370  0.31020  0.25360  Biso   1.000  H
  C83      1.0000 0.76160  0.58680  0.37430  Biso   1.000  C
  H62      1.0000 0.81780  0.63120  0.38340  Biso   1.000  H
  H63      1.0000 0.71050  0.62750  0.35720  Biso   1.000  H
  C84      1.0000 0.80470  0.33080  0.31260  Biso   1.000  C
  H64      1.0000 0.78560  0.26260  0.31540  Biso   1.000  H
  C85      1.0000 0.76660  0.40070  0.34560  Biso   1.000  C
  H65      1.0000 0.72100  0.38150  0.37060  Biso   1.000  H
  N11      1.0000 0.44990  0.09510  0.66312  Biso   1.000  N
  O6       1.0000 0.28050  0.45680  0.41677  Biso   1.000  O
  N12      1.0000 0.09920  0.54410  0.27082  Biso   1.000  N
  C86      1.0000 0.38590  0.38240  0.53719  Biso   1.000  C
  H66      1.0000 0.41410  0.41320  0.56530  Biso   1.000  H
  C87      1.0000 0.35100  0.44430  0.49773  Biso   1.000  C
  C88      1.0000 0.40620  0.21320  0.57902  Biso   1.000  C
  C89      1.0000 0.37950  0.27710  0.53528  Biso   1.000  C
  C90      1.0000 0.46400  0.25180  0.61816  Biso   1.000  C
  H67      1.0000 0.48920  0.31820  0.61660  Biso   1.000  H
  C91      1.0000 0.48440  0.19130  0.65969  Biso   1.000  C
  H68      1.0000 0.52290  0.21830  0.68570  Biso   1.000  H
  C92      1.0000 0.31600  0.39480  0.45387  Biso   1.000  C
  C93      1.0000 0.34590  0.23230  0.49114  Biso   1.000  C
  H69      1.0000 0.34430  0.16150  0.48870  Biso   1.000  H
  C94      1.0000 0.37010  0.11590  0.58394  Biso   1.000  C
  H70      1.0000 0.32950  0.08770  0.55900  Biso   1.000  H
  C95      1.0000 0.39370  0.05820  0.62640  Biso   1.000  C
  H71      1.0000 0.36900  0.99170  0.62880  Biso   1.000  H
  C96      1.0000 0.13350  0.47390  0.30352  Biso   1.000  C
  H72      1.0000 0.11000  0.40710  0.30070  Biso   1.000  H
  C97      1.0000 0.20100  0.49650  0.34056  Biso   1.000  C
  C98      1.0000 0.31490  0.29000  0.45098  Biso   1.000  C
  H73      1.0000 0.29320  0.25800  0.42190  Biso   1.000  H
  C99      1.0000 0.13020  0.64070  0.27590  Biso   1.000  C
  H74      1.0000 0.10630  0.68980  0.25360  Biso   1.000  H
  C100     1.0000 0.23840  0.41320  0.37430  Biso   1.000  C
  H75      1.0000 0.18220  0.36880  0.38340  Biso   1.000  H
  H76      1.0000 0.28950  0.37250  0.35720  Biso   1.000  H
  C101     1.0000 0.19530  0.66920  0.31260  Biso   1.000  C
  H77      1.0000 0.21440  0.73740  0.31540  Biso   1.000  H
  C102     1.0000 0.23340  0.59930  0.34560  Biso   1.000  C
  H78      1.0000 0.27900  0.61850  0.37060  Biso   1.000  H
  N13      1.0000 0.90490  0.44990  0.16312  Biso   1.000  N
  O7       1.0000 0.54320  0.28050  0.91677  Biso   1.000  O
  N14      1.0000 0.45590  0.09920  0.77082  Biso   1.000  N
  C103     1.0000 0.61760  0.38590  0.03719  Biso   1.000  C
  H79      1.0000 0.58680  0.41410  0.06530  Biso   1.000  H
  C104     1.0000 0.55570  0.35100  0.99773  Biso   1.000  C
  C105     1.0000 0.78680  0.40620  0.07902  Biso   1.000  C
  C106     1.0000 0.72290  0.37950  0.03528  Biso   1.000  C
  C107     1.0000 0.74820  0.46400  0.11816  Biso   1.000  C
  H80      1.0000 0.68180  0.48920  0.11660  Biso   1.000  H
  C108     1.0000 0.80870  0.48440  0.15969  Biso   1.000  C
  H81      1.0000 0.78170  0.52290  0.18570  Biso   1.000  H
  C109     1.0000 0.60520  0.31600  0.95387  Biso   1.000  C
  C110     1.0000 0.76770  0.34590  0.99114  Biso   1.000  C
  H82      1.0000 0.83850  0.34430  0.98870  Biso   1.000  H
  C111     1.0000 0.88410  0.37010  0.08394  Biso   1.000  C
  H83      1.0000 0.91230  0.32950  0.05900  Biso   1.000  H
  C112     1.0000 0.94180  0.39370  0.12640  Biso   1.000  C
  H84      1.0000 0.00830  0.36900  0.12880  Biso   1.000  H
  C113     1.0000 0.52610  0.13350  0.80352  Biso   1.000  C
  H85      1.0000 0.59290  0.11000  0.80070  Biso   1.000  H
  C114     1.0000 0.50350  0.20100  0.84056  Biso   1.000  C
  C115     1.0000 0.71000  0.31490  0.95098  Biso   1.000  C
  H86      1.0000 0.74200  0.29320  0.92190  Biso   1.000  H
  C116     1.0000 0.35930  0.13020  0.77590  Biso   1.000  C
  H87      1.0000 0.31020  0.10630  0.75360  Biso   1.000  H
  C117     1.0000 0.58680  0.23840  0.87430  Biso   1.000  C
  H88      1.0000 0.63120  0.18220  0.88340  Biso   1.000  H
  H89      1.0000 0.62750  0.28950  0.85720  Biso   1.000  H
  C118     1.0000 0.33080  0.19530  0.81260  Biso   1.000  C
  H90      1.0000 0.26260  0.21440  0.81540  Biso   1.000  H
  C119     1.0000 0.40070  0.23340  0.84560  Biso   1.000  C
  H91      1.0000 0.38150  0.27900  0.87060  Biso   1.000  H
  N15      1.0000 0.09510  0.55010  0.16312  Biso   1.000  N
  O8       1.0000 0.45680  0.71950  0.91677  Biso   1.000  O
  N16      1.0000 0.54410  0.90080  0.77082  Biso   1.000  N
  C120     1.0000 0.38240  0.61410  0.03719  Biso   1.000  C
  H92      1.0000 0.41320  0.58590  0.06530  Biso   1.000  H
  C121     1.0000 0.44430  0.64900  0.99773  Biso   1.000  C
  C122     1.0000 0.21320  0.59380  0.07902  Biso   1.000  C
  C123     1.0000 0.27710  0.62050  0.03528  Biso   1.000  C
  C124     1.0000 0.25180  0.53600  0.11816  Biso   1.000  C
  H93      1.0000 0.31820  0.51080  0.11660  Biso   1.000  H
  C125     1.0000 0.19130  0.51560  0.15969  Biso   1.000  C
  H94      1.0000 0.21830  0.47710  0.18570  Biso   1.000  H
  C126     1.0000 0.39480  0.68400  0.95387  Biso   1.000  C
  C127     1.0000 0.23230  0.65410  0.99114  Biso   1.000  C
  H95      1.0000 0.16150  0.65570  0.98870  Biso   1.000  H
  C128     1.0000 0.11590  0.62990  0.08394  Biso   1.000  C
  H96      1.0000 0.08770  0.67050  0.05900  Biso   1.000  H
  C129     1.0000 0.05820  0.60630  0.12640  Biso   1.000  C
  H97      1.0000 0.99170  0.63100  0.12880  Biso   1.000  H
  C130     1.0000 0.47390  0.86650  0.80352  Biso   1.000  C
  H98      1.0000 0.40710  0.89000  0.80070  Biso   1.000  H
  C131     1.0000 0.49650  0.79900  0.84056  Biso   1.000  C
  C132     1.0000 0.29000  0.68510  0.95098  Biso   1.000  C
  H99      1.0000 0.25800  0.70680  0.92190  Biso   1.000  H
  C133     1.0000 0.64070  0.86980  0.77590  Biso   1.000  C
  H100     1.0000 0.68980  0.89370  0.75360  Biso   1.000  H
  C134     1.0000 0.41320  0.76160  0.87430  Biso   1.000  C
  H101     1.0000 0.36880  0.81780  0.88340  Biso   1.000  H
  H102     1.0000 0.37250  0.71050  0.85720  Biso   1.000  H
  C135     1.0000 0.66920  0.80470  0.81260  Biso   1.000  C
  H103     1.0000 0.73740  0.78560  0.81540  Biso   1.000  H
  C136     1.0000 0.59930  0.76660  0.84560  Biso   1.000  C
  H104     1.0000 0.61850  0.72100  0.87060  Biso   1.000  H
  Cu1      1.0000 0.50000  0.00000  0.28255  Biso   1.000  Cu
  Cu2      1.0000 0.00000  0.50000  0.78255  Biso   1.000  Cu
  Cu3      1.0000 0.50000  0.00000  0.71745  Biso   1.000  Cu
  Cu4      1.0000 0.00000  0.50000  0.21745  Biso   1.000  Cu
