data_DACYAI_clean
_audit_creation_date              2014-07-02
_audit_creation_method            'Materials Studio'
_symmetry_space_group_name_H-M    'P1'
_symmetry_Int_Tables_number       1
_symmetry_cell_setting            triclinic
loop_
_symmetry_equiv_pos_as_xyz
  x,y,z
_cell_length_a                    10.8762
_cell_length_b                    12.2294
_cell_length_c                    12.3328
_cell_angle_alpha                 93.9317
_cell_angle_beta                  106.6740
_cell_angle_gamma                 101.2610
loop_
_atom_site_label
_atom_site_type_symbol
_atom_site_fract_x
_atom_site_fract_y
_atom_site_fract_z
_atom_site_U_iso_or_equiv
_atom_site_adp_type
_atom_site_occupancy
Yb1    Yb    0.91598   0.19028   0.00188   0.01267  Uiso   1.00
Yb2    Yb    0.08402   0.80972   0.99812   0.01267  Uiso   1.00
H1     H     0.71110   0.93330   0.97430   0.01267  Uiso   1.00
H2     H     0.49560   0.82950   0.90420   0.01267  Uiso   1.00
H3     H     0.33560   0.91110   0.80220   0.01267  Uiso   1.00
H4     H     0.27340   0.08370   0.71380   0.01267  Uiso   1.00
H5     H     0.33020   0.26260   0.68940   0.01267  Uiso   1.00
H6     H     0.51210   0.43570   0.70960   0.01267  Uiso   1.00
H7     H     0.73080   0.52430   0.77790   0.01267  Uiso   1.00
H8     H     0.87810   0.43010   0.88370   0.01267  Uiso   1.00
H9     H     0.74410   0.30120   0.31790   0.01267  Uiso   1.00
H10    H     0.76040   0.39380   0.48870   0.01267  Uiso   1.00
H11    H     0.10490   0.46740   0.33710   0.01267  Uiso   1.00
H12    H     0.17820   0.45890   0.83470   0.01267  Uiso   1.00
H13    H     0.36040   0.58860   0.83140   0.01267  Uiso   1.00
H14    H     0.39650   0.32810   0.08810   0.01267  Uiso   1.00
H15    H     0.97580   0.18510   0.71120   0.01267  Uiso   1.00
H16    H     0.98030   0.20990   0.52940   0.01267  Uiso   1.00
H17    H     0.01340   0.86700   0.66060   0.01267  Uiso   1.00
H18    H     0.28890   0.06670   0.02570   0.01267  Uiso   1.00
H19    H     0.50440   0.17050   0.09580   0.01267  Uiso   1.00
H20    H     0.66440   0.08890   0.19780   0.01267  Uiso   1.00
H21    H     0.72660   0.91630   0.28620   0.01267  Uiso   1.00
H22    H     0.66980   0.73740   0.31060   0.01267  Uiso   1.00
H23    H     0.48790   0.56430   0.29040   0.01267  Uiso   1.00
H24    H     0.26920   0.47570   0.22210   0.01267  Uiso   1.00
H25    H     0.12190   0.56990   0.11630   0.01267  Uiso   1.00
H26    H     0.25590   0.69880   0.68210   0.01267  Uiso   1.00
H27    H     0.23960   0.60620   0.51130   0.01267  Uiso   1.00
H28    H     0.89510   0.53260   0.66290   0.01267  Uiso   1.00
H29    H     0.82180   0.54110   0.16530   0.01267  Uiso   1.00
H30    H     0.63960   0.41140   0.16860   0.01267  Uiso   1.00
H31    H     0.60350   0.67190   0.91190   0.01267  Uiso   1.00
H32    H     0.02420   0.81490   0.28880   0.01267  Uiso   1.00
H33    H     0.01970   0.79010   0.47060   0.01267  Uiso   1.00
H34    H     0.98660   0.13300   0.33940   0.01267  Uiso   1.00
C1     C     0.64660   0.96760   0.93310   0.01267  Uiso   1.00
C2     C     0.51640   0.90380   0.89080   0.01267  Uiso   1.00
C3     C     0.42230   0.95220   0.83040   0.01267  Uiso   1.00
C4     C     0.45390   0.06490   0.80940   0.01267  Uiso   1.00
C5     C     0.36080   0.12210   0.74520   0.01267  Uiso   1.00
C6     C     0.39480   0.22760   0.72900   0.01267  Uiso   1.00
C7     C     0.52950   0.29000   0.77120   0.01267  Uiso   1.00
C8     C     0.57270   0.39830   0.75150   0.01267  Uiso   1.00
C9     C     0.70190   0.45150   0.79210   0.01267  Uiso   1.00
C10    C     0.78960   0.39370   0.85550   0.01267  Uiso   1.00
C11    C     0.62520   0.23700   0.83660   0.01267  Uiso   1.00
C12    C     0.58710   0.12190   0.85620   0.01267  Uiso   1.00
C13    C     0.91160   0.31840   0.19420   0.01267  Uiso   1.00
C14    C     0.92480   0.37690   0.31080   0.01267  Uiso   1.00
C15    C     0.82060   0.35420   0.35750   0.01267  Uiso   1.00
C16    C     0.83070   0.40860   0.45930   0.01267  Uiso   1.00
C17    C     0.03640   0.45280   0.36890   0.01267  Uiso   1.00
C18    C     0.94820   0.48900   0.52280   0.01267  Uiso   1.00
C19    C     0.14870   0.30640   0.97120   0.01267  Uiso   1.00
C20    C     0.27160   0.38330   0.96560   0.01267  Uiso   1.00
C21    C     0.26000   0.46020   0.88620   0.01267  Uiso   1.00
C22    C     0.36910   0.53740   0.88410   0.01267  Uiso   1.00
C23    C     0.39030   0.38170   0.03800   0.01267  Uiso   1.00
C24    C     0.49400   0.54010   0.96050   0.01267  Uiso   1.00
C25    C     0.99100   0.00590   0.82260   0.01267  Uiso   1.00
C26    C     0.99440   0.02200   0.70280   0.01267  Uiso   1.00
C27    C     0.98380   0.12630   0.66360   0.01267  Uiso   1.00
C28    C     0.98550   0.14060   0.55460   0.01267  Uiso   1.00
C29    C     0.00540   0.93510   0.63310   0.01267  Uiso   1.00
C30    C     0.99510   0.05290   0.48060   0.01267  Uiso   1.00
C31    C     0.35340   0.03240   0.06690   0.01267  Uiso   1.00
C32    C     0.48360   0.09620   0.10920   0.01267  Uiso   1.00
C33    C     0.57770   0.04780   0.16960   0.01267  Uiso   1.00
C34    C     0.54610   0.93510   0.19060   0.01267  Uiso   1.00
C35    C     0.63920   0.87790   0.25480   0.01267  Uiso   1.00
C36    C     0.60520   0.77240   0.27100   0.01267  Uiso   1.00
C37    C     0.47050   0.71000   0.22880   0.01267  Uiso   1.00
C38    C     0.42730   0.60170   0.24850   0.01267  Uiso   1.00
C39    C     0.29810   0.54850   0.20790   0.01267  Uiso   1.00
C40    C     0.21040   0.60630   0.14450   0.01267  Uiso   1.00
C41    C     0.37480   0.76300   0.16340   0.01267  Uiso   1.00
C42    C     0.41290   0.87810   0.14380   0.01267  Uiso   1.00
C43    C     0.08840   0.68160   0.80580   0.01267  Uiso   1.00
C44    C     0.07520   0.62310   0.68920   0.01267  Uiso   1.00
C45    C     0.17940   0.64580   0.64250   0.01267  Uiso   1.00
C46    C     0.16930   0.59140   0.54070   0.01267  Uiso   1.00
C47    C     0.96360   0.54720   0.63110   0.01267  Uiso   1.00
C48    C     0.05180   0.51100   0.47720   0.01267  Uiso   1.00
C49    C     0.85130   0.69360   0.02880   0.01267  Uiso   1.00
C50    C     0.72840   0.61670   0.03440   0.01267  Uiso   1.00
C51    C     0.74000   0.53980   0.11380   0.01267  Uiso   1.00
C52    C     0.63090   0.46260   0.11590   0.01267  Uiso   1.00
C53    C     0.60970   0.61830   0.96200   0.01267  Uiso   1.00
C54    C     0.50600   0.45990   0.03950   0.01267  Uiso   1.00
C55    C     0.00900   0.99410   0.17740   0.01267  Uiso   1.00
C56    C     0.00560   0.97800   0.29720   0.01267  Uiso   1.00
C57    C     0.01620   0.87370   0.33640   0.01267  Uiso   1.00
C58    C     0.01450   0.85940   0.44540   0.01267  Uiso   1.00
C59    C     0.99460   0.06490   0.36690   0.01267  Uiso   1.00
C60    C     0.00490   0.94710   0.51940   0.01267  Uiso   1.00
N1     N     0.68240   0.07310   0.91780   0.01267  Uiso   1.00
N2     N     0.75470   0.28990   0.87800   0.01267  Uiso   1.00
N3     N     0.31760   0.92690   0.08220   0.01267  Uiso   1.00
N4     N     0.24530   0.71010   0.12200   0.01267  Uiso   1.00
O1     O     0.80830   0.24860   0.13980   0.01267  Uiso   1.00
O2     O     0.00850   0.33900   0.15570   0.01267  Uiso   1.00
O3     O     0.03910   0.31870   0.91330   0.01267  Uiso   1.00
O4     O     0.15730   0.23090   0.03790   0.01267  Uiso   1.00
O5     O     0.93070   0.06540   0.86480   0.01267  Uiso   1.00
O6     O     0.04670   0.93470   0.87130   0.01267  Uiso   1.00
O7     O     0.19170   0.75140   0.86020   0.01267  Uiso   1.00
O8     O     0.99150   0.66100   0.84430   0.01267  Uiso   1.00
O9     O     0.96090   0.68130   0.08670   0.01267  Uiso   1.00
O10    O     0.84270   0.76910   0.96210   0.01267  Uiso   1.00
O11    O     0.06930   0.93460   0.13520   0.01267  Uiso   1.00
O12    O     0.95330   0.06530   0.12870   0.01267  Uiso   1.00
