data_image0
_cell_length_a       10.7621
_cell_length_b       21.2484
_cell_length_c       15.5667
_cell_angle_alpha    90
_cell_angle_beta     102.881
_cell_angle_gamma    90

_symmetry_space_group_name_H-M    "P 1"
_symmetry_int_tables_number       1

loop_
  _symmetry_equiv_pos_as_xyz
  'x, y, z'

loop_
  _atom_site_label
  _atom_site_occupancy
  _atom_site_fract_x
  _atom_site_fract_y
  _atom_site_fract_z
  _atom_site_thermal_displace_type
  _atom_site_B_iso_or_equiv
  _atom_site_type_symbol
  C1       1.0000 0.91827  0.29299  0.01598  Biso   1.000  C
  H1       1.0000 0.89790  0.25040  0.01300  Biso   1.000  H
  C2       1.0000 0.03900  0.37928  0.09123  Biso   1.000  C
  H2       1.0000 0.09870  0.39490  0.13910  Biso   1.000  H
  C3       1.0000 0.89230  0.39635  0.95176  Biso   1.000  C
  H3       1.0000 0.85370  0.42350  0.90680  Biso   1.000  H
  C4       1.0000 0.85999  0.33323  0.94797  Biso   1.000  C
  C5       1.0000 0.98280  0.41902  0.02306  Biso   1.000  C
  O1       1.0000 0.03280  0.21790  0.16309  Biso   1.000  O
  O2       1.0000 0.14232  0.30138  0.22665  Biso   1.000  O
  C6       1.0000 0.00601  0.31602  0.08771  Biso   1.000  C
  C7       1.0000 0.06390  0.27351  0.16419  Biso   1.000  C
  N1       1.0000 0.02326  0.48334  0.03240  Biso   1.000  N
  O3       1.0000 0.76566  0.25101  0.85599  Biso   1.000  O
  C8       1.0000 0.76230  0.30985  0.87001  Biso   1.000  C
  O4       1.0000 0.68839  0.34842  0.82552  Biso   1.000  O
  C9       1.0000 0.41827  0.79299  0.01598  Biso   1.000  C
  H4       1.0000 0.39790  0.75040  0.01300  Biso   1.000  H
  C10      1.0000 0.53900  0.87928  0.09123  Biso   1.000  C
  H5       1.0000 0.59870  0.89490  0.13910  Biso   1.000  H
  C11      1.0000 0.39230  0.89635  0.95176  Biso   1.000  C
  H6       1.0000 0.35370  0.92350  0.90680  Biso   1.000  H
  C12      1.0000 0.35999  0.83323  0.94797  Biso   1.000  C
  C13      1.0000 0.48280  0.91902  0.02306  Biso   1.000  C
  O5       1.0000 0.53280  0.71790  0.16309  Biso   1.000  O
  O6       1.0000 0.64232  0.80138  0.22665  Biso   1.000  O
  C14      1.0000 0.50601  0.81602  0.08771  Biso   1.000  C
  C15      1.0000 0.56390  0.77351  0.16419  Biso   1.000  C
  N2       1.0000 0.52326  0.98334  0.03240  Biso   1.000  N
  O7       1.0000 0.26566  0.75101  0.85599  Biso   1.000  O
  C16      1.0000 0.26230  0.80985  0.87001  Biso   1.000  C
  O8       1.0000 0.18839  0.84842  0.82552  Biso   1.000  O
  C17      1.0000 0.08173  0.29299  0.48402  Biso   1.000  C
  H7       1.0000 0.10210  0.25040  0.48700  Biso   1.000  H
  C18      1.0000 0.96100  0.37928  0.40877  Biso   1.000  C
  H8       1.0000 0.90130  0.39490  0.36090  Biso   1.000  H
  C19      1.0000 0.10770  0.39635  0.54824  Biso   1.000  C
  H9       1.0000 0.14630  0.42350  0.59320  Biso   1.000  H
  C20      1.0000 0.14001  0.33323  0.55203  Biso   1.000  C
  C21      1.0000 0.01720  0.41902  0.47694  Biso   1.000  C
  O9       1.0000 0.96720  0.21790  0.33691  Biso   1.000  O
  O10      1.0000 0.85768  0.30138  0.27335  Biso   1.000  O
  C22      1.0000 0.99399  0.31602  0.41229  Biso   1.000  C
  C23      1.0000 0.93610  0.27351  0.33581  Biso   1.000  C
  N3       1.0000 0.97674  0.48334  0.46760  Biso   1.000  N
  O11      1.0000 0.23434  0.25101  0.64401  Biso   1.000  O
  C24      1.0000 0.23770  0.30985  0.62999  Biso   1.000  C
  O12      1.0000 0.31161  0.34842  0.67448  Biso   1.000  O
  C25      1.0000 0.58173  0.79299  0.48402  Biso   1.000  C
  H10      1.0000 0.60210  0.75040  0.48700  Biso   1.000  H
  C26      1.0000 0.46100  0.87928  0.40877  Biso   1.000  C
  H11      1.0000 0.40130  0.89490  0.36090  Biso   1.000  H
  C27      1.0000 0.60770  0.89635  0.54824  Biso   1.000  C
  H12      1.0000 0.64630  0.92350  0.59320  Biso   1.000  H
  C28      1.0000 0.64001  0.83323  0.55203  Biso   1.000  C
  C29      1.0000 0.51720  0.91902  0.47694  Biso   1.000  C
  O13      1.0000 0.46720  0.71790  0.33691  Biso   1.000  O
  O14      1.0000 0.35768  0.80138  0.27335  Biso   1.000  O
  C30      1.0000 0.49399  0.81602  0.41229  Biso   1.000  C
  C31      1.0000 0.43610  0.77351  0.33581  Biso   1.000  C
  N4       1.0000 0.47674  0.98334  0.46760  Biso   1.000  N
  O15      1.0000 0.73434  0.75101  0.64401  Biso   1.000  O
  C32      1.0000 0.73770  0.80985  0.62999  Biso   1.000  C
  O16      1.0000 0.81161  0.84842  0.67448  Biso   1.000  O
  C33      1.0000 0.08173  0.70701  0.98402  Biso   1.000  C
  H13      1.0000 0.10210  0.74960  0.98700  Biso   1.000  H
  C34      1.0000 0.96100  0.62072  0.90877  Biso   1.000  C
  H14      1.0000 0.90130  0.60510  0.86090  Biso   1.000  H
  C35      1.0000 0.10770  0.60365  0.04824  Biso   1.000  C
  H15      1.0000 0.14630  0.57650  0.09320  Biso   1.000  H
  C36      1.0000 0.14001  0.66677  0.05203  Biso   1.000  C
  C37      1.0000 0.01720  0.58098  0.97694  Biso   1.000  C
  O17      1.0000 0.96720  0.78210  0.83691  Biso   1.000  O
  O18      1.0000 0.85768  0.69862  0.77335  Biso   1.000  O
  C38      1.0000 0.99399  0.68398  0.91229  Biso   1.000  C
  C39      1.0000 0.93610  0.72649  0.83581  Biso   1.000  C
  N5       1.0000 0.97674  0.51666  0.96760  Biso   1.000  N
  O19      1.0000 0.23434  0.74899  0.14401  Biso   1.000  O
  C40      1.0000 0.23770  0.69015  0.12999  Biso   1.000  C
  O20      1.0000 0.31161  0.65158  0.17448  Biso   1.000  O
  C41      1.0000 0.58173  0.20701  0.98402  Biso   1.000  C
  H16      1.0000 0.60210  0.24960  0.98700  Biso   1.000  H
  C42      1.0000 0.46100  0.12072  0.90877  Biso   1.000  C
  H17      1.0000 0.40130  0.10510  0.86090  Biso   1.000  H
  C43      1.0000 0.60770  0.10365  0.04824  Biso   1.000  C
  H18      1.0000 0.64630  0.07650  0.09320  Biso   1.000  H
  C44      1.0000 0.64001  0.16677  0.05203  Biso   1.000  C
  C45      1.0000 0.51720  0.08098  0.97694  Biso   1.000  C
  O21      1.0000 0.46720  0.28210  0.83691  Biso   1.000  O
  O22      1.0000 0.35768  0.19862  0.77335  Biso   1.000  O
  C46      1.0000 0.49399  0.18398  0.91229  Biso   1.000  C
  C47      1.0000 0.43610  0.22649  0.83581  Biso   1.000  C
  N6       1.0000 0.47674  0.01666  0.96760  Biso   1.000  N
  O23      1.0000 0.73434  0.24899  0.14401  Biso   1.000  O
  C48      1.0000 0.73770  0.19015  0.12999  Biso   1.000  C
  O24      1.0000 0.81161  0.15158  0.17448  Biso   1.000  O
  C49      1.0000 0.91827  0.70701  0.51598  Biso   1.000  C
  H19      1.0000 0.89790  0.74960  0.51300  Biso   1.000  H
  C50      1.0000 0.03900  0.62072  0.59123  Biso   1.000  C
  H20      1.0000 0.09870  0.60510  0.63910  Biso   1.000  H
  C51      1.0000 0.89230  0.60365  0.45176  Biso   1.000  C
  H21      1.0000 0.85370  0.57650  0.40680  Biso   1.000  H
  C52      1.0000 0.85999  0.66677  0.44797  Biso   1.000  C
  C53      1.0000 0.98280  0.58098  0.52306  Biso   1.000  C
  O25      1.0000 0.03280  0.78210  0.66309  Biso   1.000  O
  O26      1.0000 0.14232  0.69862  0.72665  Biso   1.000  O
  C54      1.0000 0.00601  0.68398  0.58771  Biso   1.000  C
  C55      1.0000 0.06390  0.72649  0.66419  Biso   1.000  C
  N7       1.0000 0.02326  0.51666  0.53240  Biso   1.000  N
  O27      1.0000 0.76566  0.74899  0.35599  Biso   1.000  O
  C56      1.0000 0.76230  0.69015  0.37001  Biso   1.000  C
  O28      1.0000 0.68839  0.65158  0.32552  Biso   1.000  O
  C57      1.0000 0.41827  0.20701  0.51598  Biso   1.000  C
  H22      1.0000 0.39790  0.24960  0.51300  Biso   1.000  H
  C58      1.0000 0.53900  0.12072  0.59123  Biso   1.000  C
  H23      1.0000 0.59870  0.10510  0.63910  Biso   1.000  H
  C59      1.0000 0.39230  0.10365  0.45176  Biso   1.000  C
  H24      1.0000 0.35370  0.07650  0.40680  Biso   1.000  H
  C60      1.0000 0.35999  0.16677  0.44797  Biso   1.000  C
  C61      1.0000 0.48280  0.08098  0.52306  Biso   1.000  C
  O29      1.0000 0.53280  0.28210  0.66309  Biso   1.000  O
  O30      1.0000 0.64232  0.19862  0.72665  Biso   1.000  O
  C62      1.0000 0.50601  0.18398  0.58771  Biso   1.000  C
  C63      1.0000 0.56390  0.22649  0.66419  Biso   1.000  C
  N8       1.0000 0.52326  0.01666  0.53240  Biso   1.000  N
  O31      1.0000 0.26566  0.24899  0.35599  Biso   1.000  O
  C64      1.0000 0.26230  0.19015  0.37001  Biso   1.000  C
  O32      1.0000 0.18839  0.15158  0.32552  Biso   1.000  O
  Mg1      1.0000 0.00000  0.14860  0.25000  Biso   1.000  Mg
  Mg2      1.0000 0.50000  0.64860  0.25000  Biso   1.000  Mg
  Mg3      1.0000 0.00000  0.85140  0.75000  Biso   1.000  Mg
  Mg4      1.0000 0.50000  0.35140  0.75000  Biso   1.000  Mg
