data_image0
_cell_length_a       34.791
_cell_length_b       10.29
_cell_length_c       13.669
_cell_angle_alpha    90
_cell_angle_beta     112.964
_cell_angle_gamma    90

_symmetry_space_group_name_H-M    "P 1"
_symmetry_int_tables_number       1

loop_
  _symmetry_equiv_pos_as_xyz
  'x, y, z'

loop_
  _atom_site_label
  _atom_site_occupancy
  _atom_site_fract_x
  _atom_site_fract_y
  _atom_site_fract_z
  _atom_site_thermal_displace_type
  _atom_site_B_iso_or_equiv
  _atom_site_type_symbol
  Co1      1.0000 0.09697  0.00608  0.47105  Biso   1.000  Co
  C1       1.0000 0.29930  0.98890  0.42380  Biso   1.000  C
  O1       1.0000 0.41840  0.70660  0.54770  Biso   1.000  O
  N1       1.0000 0.09610  0.01380  0.29980  Biso   1.000  N
  O2       1.0000 0.03470  0.05210  0.40950  Biso   1.000  O
  N2       1.0000 0.05630  0.01150  0.22790  Biso   1.000  N
  N3       1.0000 0.05600  0.01010  0.13310  Biso   1.000  N
  C2       1.0000 0.37820  0.71930  0.50890  Biso   1.000  C
  O3       1.0000 0.37780  0.31740  0.49860  Biso   1.000  O
  N4       1.0000 0.09580  0.00470  0.13980  Biso   1.000  N
  O4       1.0000 0.35410  0.62550  0.48420  Biso   1.000  O
  C3       1.0000 0.32590  0.10400  0.45390  Biso   1.000  C
  H1       1.0000 0.31410  0.18650  0.44500  Biso   1.000  H
  C4       1.0000 0.38410  0.96190  0.51060  Biso   1.000  C
  H2       1.0000 0.41300  0.95280  0.54080  Biso   1.000  H
  C5       1.0000 0.31560  0.87210  0.44010  Biso   1.000  C
  H3       1.0000 0.29860  0.79890  0.42320  Biso   1.000  H
  C6       1.0000 0.36680  0.08990  0.49380  Biso   1.000  C
  C7       1.0000 0.36160  0.85870  0.48580  Biso   1.000  C
  O5       1.0000 0.43410  0.19020  0.56580  Biso   1.000  O
  C8       1.0000 0.25240  0.00290  0.37500  Biso   1.000  C
  C9       1.0000 0.23030  0.93700  0.27600  Biso   1.000  C
  H4       1.0000 0.24480  0.89440  0.24120  Biso   1.000  H
  C10      1.0000 0.22970  0.06600  0.42240  Biso   1.000  C
  H5       1.0000 0.24390  0.10700  0.48710  Biso   1.000  H
  C11      1.0000 0.11880  0.01370  0.24230  Biso   1.000  C
  C12      1.0000 0.16570  0.01370  0.29040  Biso   1.000  C
  C13      1.0000 0.18680  0.07100  0.37920  Biso   1.000  C
  H6       1.0000 0.17290  0.11540  0.41450  Biso   1.000  H
  C14      1.0000 0.18760  0.93900  0.23370  Biso   1.000  C
  H7       1.0000 0.17260  0.89540  0.17090  Biso   1.000  H
  C15      1.0000 0.39600  0.20270  0.52500  Biso   1.000  C
  Co2      1.0000 0.59697  0.50608  0.47105  Biso   1.000  Co
  C16      1.0000 0.79930  0.48890  0.42380  Biso   1.000  C
  O6       1.0000 0.91840  0.20660  0.54770  Biso   1.000  O
  N5       1.0000 0.59610  0.51380  0.29980  Biso   1.000  N
  O7       1.0000 0.53470  0.55210  0.40950  Biso   1.000  O
  N6       1.0000 0.55630  0.51150  0.22790  Biso   1.000  N
  N7       1.0000 0.55600  0.51010  0.13310  Biso   1.000  N
  C17      1.0000 0.87820  0.21930  0.50890  Biso   1.000  C
  O8       1.0000 0.87780  0.81740  0.49860  Biso   1.000  O
  N8       1.0000 0.59580  0.50470  0.13980  Biso   1.000  N
  O9       1.0000 0.85410  0.12550  0.48420  Biso   1.000  O
  C18      1.0000 0.82590  0.60400  0.45390  Biso   1.000  C
  H8       1.0000 0.81410  0.68650  0.44500  Biso   1.000  H
  C19      1.0000 0.88410  0.46190  0.51060  Biso   1.000  C
  H9       1.0000 0.91300  0.45280  0.54080  Biso   1.000  H
  C20      1.0000 0.81560  0.37210  0.44010  Biso   1.000  C
  H10      1.0000 0.79860  0.29890  0.42320  Biso   1.000  H
  C21      1.0000 0.86680  0.58990  0.49380  Biso   1.000  C
  C22      1.0000 0.86160  0.35870  0.48580  Biso   1.000  C
  O10      1.0000 0.93410  0.69020  0.56580  Biso   1.000  O
  C23      1.0000 0.75240  0.50290  0.37500  Biso   1.000  C
  C24      1.0000 0.73030  0.43700  0.27600  Biso   1.000  C
  H11      1.0000 0.74480  0.39440  0.24120  Biso   1.000  H
  C25      1.0000 0.72970  0.56600  0.42240  Biso   1.000  C
  H12      1.0000 0.74390  0.60700  0.48710  Biso   1.000  H
  C26      1.0000 0.61880  0.51370  0.24230  Biso   1.000  C
  C27      1.0000 0.66570  0.51370  0.29040  Biso   1.000  C
  C28      1.0000 0.68680  0.57100  0.37920  Biso   1.000  C
  H13      1.0000 0.67290  0.61540  0.41450  Biso   1.000  H
  C29      1.0000 0.68760  0.43900  0.23370  Biso   1.000  C
  H14      1.0000 0.67260  0.39540  0.17090  Biso   1.000  H
  C30      1.0000 0.89600  0.70270  0.52500  Biso   1.000  C
  Co3      1.0000 0.90303  0.00608  0.02895  Biso   1.000  Co
  C31      1.0000 0.70070  0.98890  0.07620  Biso   1.000  C
  O11      1.0000 0.58160  0.70660  0.95230  Biso   1.000  O
  N9       1.0000 0.90390  0.01380  0.20020  Biso   1.000  N
  O12      1.0000 0.96530  0.05210  0.09050  Biso   1.000  O
  N10      1.0000 0.94370  0.01150  0.27210  Biso   1.000  N
  N11      1.0000 0.94400  0.01010  0.36690  Biso   1.000  N
  C32      1.0000 0.62180  0.71930  0.99110  Biso   1.000  C
  O13      1.0000 0.62220  0.31740  0.00140  Biso   1.000  O
  N12      1.0000 0.90420  0.00470  0.36020  Biso   1.000  N
  O14      1.0000 0.64590  0.62550  0.01580  Biso   1.000  O
  C33      1.0000 0.67410  0.10400  0.04610  Biso   1.000  C
  H15      1.0000 0.68590  0.18650  0.05500  Biso   1.000  H
  C34      1.0000 0.61590  0.96190  0.98940  Biso   1.000  C
  H16      1.0000 0.58700  0.95280  0.95920  Biso   1.000  H
  C35      1.0000 0.68440  0.87210  0.05990  Biso   1.000  C
  H17      1.0000 0.70140  0.79890  0.07680  Biso   1.000  H
  C36      1.0000 0.63320  0.08990  0.00620  Biso   1.000  C
  C37      1.0000 0.63840  0.85870  0.01420  Biso   1.000  C
  O15      1.0000 0.56590  0.19020  0.93420  Biso   1.000  O
  C38      1.0000 0.74760  0.00290  0.12500  Biso   1.000  C
  C39      1.0000 0.76970  0.93700  0.22400  Biso   1.000  C
  H18      1.0000 0.75520  0.89440  0.25880  Biso   1.000  H
  C40      1.0000 0.77030  0.06600  0.07760  Biso   1.000  C
  H19      1.0000 0.75610  0.10700  0.01290  Biso   1.000  H
  C41      1.0000 0.88120  0.01370  0.25770  Biso   1.000  C
  C42      1.0000 0.83430  0.01370  0.20960  Biso   1.000  C
  C43      1.0000 0.81320  0.07100  0.12080  Biso   1.000  C
  H20      1.0000 0.82710  0.11540  0.08550  Biso   1.000  H
  C44      1.0000 0.81240  0.93900  0.26630  Biso   1.000  C
  H21      1.0000 0.82740  0.89540  0.32910  Biso   1.000  H
  C45      1.0000 0.60400  0.20270  0.97500  Biso   1.000  C
  Co4      1.0000 0.40303  0.50608  0.02895  Biso   1.000  Co
  C46      1.0000 0.20070  0.48890  0.07620  Biso   1.000  C
  O16      1.0000 0.08160  0.20660  0.95230  Biso   1.000  O
  N13      1.0000 0.40390  0.51380  0.20020  Biso   1.000  N
  O17      1.0000 0.46530  0.55210  0.09050  Biso   1.000  O
  N14      1.0000 0.44370  0.51150  0.27210  Biso   1.000  N
  N15      1.0000 0.44400  0.51010  0.36690  Biso   1.000  N
  C47      1.0000 0.12180  0.21930  0.99110  Biso   1.000  C
  O18      1.0000 0.12220  0.81740  0.00140  Biso   1.000  O
  N16      1.0000 0.40420  0.50470  0.36020  Biso   1.000  N
  O19      1.0000 0.14590  0.12550  0.01580  Biso   1.000  O
  C48      1.0000 0.17410  0.60400  0.04610  Biso   1.000  C
  H22      1.0000 0.18590  0.68650  0.05500  Biso   1.000  H
  C49      1.0000 0.11590  0.46190  0.98940  Biso   1.000  C
  H23      1.0000 0.08700  0.45280  0.95920  Biso   1.000  H
  C50      1.0000 0.18440  0.37210  0.05990  Biso   1.000  C
  H24      1.0000 0.20140  0.29890  0.07680  Biso   1.000  H
  C51      1.0000 0.13320  0.58990  0.00620  Biso   1.000  C
  C52      1.0000 0.13840  0.35870  0.01420  Biso   1.000  C
  O20      1.0000 0.06590  0.69020  0.93420  Biso   1.000  O
  C53      1.0000 0.24760  0.50290  0.12500  Biso   1.000  C
  C54      1.0000 0.26970  0.43700  0.22400  Biso   1.000  C
  H25      1.0000 0.25520  0.39440  0.25880  Biso   1.000  H
  C55      1.0000 0.27030  0.56600  0.07760  Biso   1.000  C
  H26      1.0000 0.25610  0.60700  0.01290  Biso   1.000  H
  C56      1.0000 0.38120  0.51370  0.25770  Biso   1.000  C
  C57      1.0000 0.33430  0.51370  0.20960  Biso   1.000  C
  C58      1.0000 0.31320  0.57100  0.12080  Biso   1.000  C
  H27      1.0000 0.32710  0.61540  0.08550  Biso   1.000  H
  C59      1.0000 0.31240  0.43900  0.26630  Biso   1.000  C
  H28      1.0000 0.32740  0.39540  0.32910  Biso   1.000  H
  C60      1.0000 0.10400  0.70270  0.97500  Biso   1.000  C
  Co5      1.0000 0.90303  0.99392  0.52895  Biso   1.000  Co
  C61      1.0000 0.70070  0.01110  0.57620  Biso   1.000  C
  O21      1.0000 0.58160  0.29340  0.45230  Biso   1.000  O
  N17      1.0000 0.90390  0.98620  0.70020  Biso   1.000  N
  O22      1.0000 0.96530  0.94790  0.59050  Biso   1.000  O
  N18      1.0000 0.94370  0.98850  0.77210  Biso   1.000  N
  N19      1.0000 0.94400  0.98990  0.86690  Biso   1.000  N
  C62      1.0000 0.62180  0.28070  0.49110  Biso   1.000  C
  O23      1.0000 0.62220  0.68260  0.50140  Biso   1.000  O
  N20      1.0000 0.90420  0.99530  0.86020  Biso   1.000  N
  O24      1.0000 0.64590  0.37450  0.51580  Biso   1.000  O
  C63      1.0000 0.67410  0.89600  0.54610  Biso   1.000  C
  H29      1.0000 0.68590  0.81350  0.55500  Biso   1.000  H
  C64      1.0000 0.61590  0.03810  0.48940  Biso   1.000  C
  H30      1.0000 0.58700  0.04720  0.45920  Biso   1.000  H
  C65      1.0000 0.68440  0.12790  0.55990  Biso   1.000  C
  H31      1.0000 0.70140  0.20110  0.57680  Biso   1.000  H
  C66      1.0000 0.63320  0.91010  0.50620  Biso   1.000  C
  C67      1.0000 0.63840  0.14130  0.51420  Biso   1.000  C
  O25      1.0000 0.56590  0.80980  0.43420  Biso   1.000  O
  C68      1.0000 0.74760  0.99710  0.62500  Biso   1.000  C
  C69      1.0000 0.76970  0.06300  0.72400  Biso   1.000  C
  H32      1.0000 0.75520  0.10560  0.75880  Biso   1.000  H
  C70      1.0000 0.77030  0.93400  0.57760  Biso   1.000  C
  H33      1.0000 0.75610  0.89300  0.51290  Biso   1.000  H
  C71      1.0000 0.88120  0.98630  0.75770  Biso   1.000  C
  C72      1.0000 0.83430  0.98630  0.70960  Biso   1.000  C
  C73      1.0000 0.81320  0.92900  0.62080  Biso   1.000  C
  H34      1.0000 0.82710  0.88460  0.58550  Biso   1.000  H
  C74      1.0000 0.81240  0.06100  0.76630  Biso   1.000  C
  H35      1.0000 0.82740  0.10460  0.82910  Biso   1.000  H
  C75      1.0000 0.60400  0.79730  0.47500  Biso   1.000  C
  Co6      1.0000 0.40303  0.49392  0.52895  Biso   1.000  Co
  C76      1.0000 0.20070  0.51110  0.57620  Biso   1.000  C
  O26      1.0000 0.08160  0.79340  0.45230  Biso   1.000  O
  N21      1.0000 0.40390  0.48620  0.70020  Biso   1.000  N
  O27      1.0000 0.46530  0.44790  0.59050  Biso   1.000  O
  N22      1.0000 0.44370  0.48850  0.77210  Biso   1.000  N
  N23      1.0000 0.44400  0.48990  0.86690  Biso   1.000  N
  C77      1.0000 0.12180  0.78070  0.49110  Biso   1.000  C
  O28      1.0000 0.12220  0.18260  0.50140  Biso   1.000  O
  N24      1.0000 0.40420  0.49530  0.86020  Biso   1.000  N
  O29      1.0000 0.14590  0.87450  0.51580  Biso   1.000  O
  C78      1.0000 0.17410  0.39600  0.54610  Biso   1.000  C
  H36      1.0000 0.18590  0.31350  0.55500  Biso   1.000  H
  C79      1.0000 0.11590  0.53810  0.48940  Biso   1.000  C
  H37      1.0000 0.08700  0.54720  0.45920  Biso   1.000  H
  C80      1.0000 0.18440  0.62790  0.55990  Biso   1.000  C
  H38      1.0000 0.20140  0.70110  0.57680  Biso   1.000  H
  C81      1.0000 0.13320  0.41010  0.50620  Biso   1.000  C
  C82      1.0000 0.13840  0.64130  0.51420  Biso   1.000  C
  O30      1.0000 0.06590  0.30980  0.43420  Biso   1.000  O
  C83      1.0000 0.24760  0.49710  0.62500  Biso   1.000  C
  C84      1.0000 0.26970  0.56300  0.72400  Biso   1.000  C
  H39      1.0000 0.25520  0.60560  0.75880  Biso   1.000  H
  C85      1.0000 0.27030  0.43400  0.57760  Biso   1.000  C
  H40      1.0000 0.25610  0.39300  0.51290  Biso   1.000  H
  C86      1.0000 0.38120  0.48630  0.75770  Biso   1.000  C
  C87      1.0000 0.33430  0.48630  0.70960  Biso   1.000  C
  C88      1.0000 0.31320  0.42900  0.62080  Biso   1.000  C
  H41      1.0000 0.32710  0.38460  0.58550  Biso   1.000  H
  C89      1.0000 0.31240  0.56100  0.76630  Biso   1.000  C
  H42      1.0000 0.32740  0.60460  0.82910  Biso   1.000  H
  C90      1.0000 0.10400  0.29730  0.47500  Biso   1.000  C
  Co7      1.0000 0.09697  0.99392  0.97105  Biso   1.000  Co
  C91      1.0000 0.29930  0.01110  0.92380  Biso   1.000  C
  O31      1.0000 0.41840  0.29340  0.04770  Biso   1.000  O
  N25      1.0000 0.09610  0.98620  0.79980  Biso   1.000  N
  O32      1.0000 0.03470  0.94790  0.90950  Biso   1.000  O
  N26      1.0000 0.05630  0.98850  0.72790  Biso   1.000  N
  N27      1.0000 0.05600  0.98990  0.63310  Biso   1.000  N
  C92      1.0000 0.37820  0.28070  0.00890  Biso   1.000  C
  O33      1.0000 0.37780  0.68260  0.99860  Biso   1.000  O
  N28      1.0000 0.09580  0.99530  0.63980  Biso   1.000  N
  O34      1.0000 0.35410  0.37450  0.98420  Biso   1.000  O
  C93      1.0000 0.32590  0.89600  0.95390  Biso   1.000  C
  H43      1.0000 0.31410  0.81350  0.94500  Biso   1.000  H
  C94      1.0000 0.38410  0.03810  0.01060  Biso   1.000  C
  H44      1.0000 0.41300  0.04720  0.04080  Biso   1.000  H
  C95      1.0000 0.31560  0.12790  0.94010  Biso   1.000  C
  H45      1.0000 0.29860  0.20110  0.92320  Biso   1.000  H
  C96      1.0000 0.36680  0.91010  0.99380  Biso   1.000  C
  C97      1.0000 0.36160  0.14130  0.98580  Biso   1.000  C
  O35      1.0000 0.43410  0.80980  0.06580  Biso   1.000  O
  C98      1.0000 0.25240  0.99710  0.87500  Biso   1.000  C
  C99      1.0000 0.23030  0.06300  0.77600  Biso   1.000  C
  H46      1.0000 0.24480  0.10560  0.74120  Biso   1.000  H
  C100     1.0000 0.22970  0.93400  0.92240  Biso   1.000  C
  H47      1.0000 0.24390  0.89300  0.98710  Biso   1.000  H
  C101     1.0000 0.11880  0.98630  0.74230  Biso   1.000  C
  C102     1.0000 0.16570  0.98630  0.79040  Biso   1.000  C
  C103     1.0000 0.18680  0.92900  0.87920  Biso   1.000  C
  H48      1.0000 0.17290  0.88460  0.91450  Biso   1.000  H
  C104     1.0000 0.18760  0.06100  0.73370  Biso   1.000  C
  H49      1.0000 0.17260  0.10460  0.67090  Biso   1.000  H
  C105     1.0000 0.39600  0.79730  0.02500  Biso   1.000  C
  Co8      1.0000 0.59697  0.49392  0.97105  Biso   1.000  Co
  C106     1.0000 0.79930  0.51110  0.92380  Biso   1.000  C
  O36      1.0000 0.91840  0.79340  0.04770  Biso   1.000  O
  N29      1.0000 0.59610  0.48620  0.79980  Biso   1.000  N
  O37      1.0000 0.53470  0.44790  0.90950  Biso   1.000  O
  N30      1.0000 0.55630  0.48850  0.72790  Biso   1.000  N
  N31      1.0000 0.55600  0.48990  0.63310  Biso   1.000  N
  C107     1.0000 0.87820  0.78070  0.00890  Biso   1.000  C
  O38      1.0000 0.87780  0.18260  0.99860  Biso   1.000  O
  N32      1.0000 0.59580  0.49530  0.63980  Biso   1.000  N
  O39      1.0000 0.85410  0.87450  0.98420  Biso   1.000  O
  C108     1.0000 0.82590  0.39600  0.95390  Biso   1.000  C
  H50      1.0000 0.81410  0.31350  0.94500  Biso   1.000  H
  C109     1.0000 0.88410  0.53810  0.01060  Biso   1.000  C
  H51      1.0000 0.91300  0.54720  0.04080  Biso   1.000  H
  C110     1.0000 0.81560  0.62790  0.94010  Biso   1.000  C
  H52      1.0000 0.79860  0.70110  0.92320  Biso   1.000  H
  C111     1.0000 0.86680  0.41010  0.99380  Biso   1.000  C
  C112     1.0000 0.86160  0.64130  0.98580  Biso   1.000  C
  O40      1.0000 0.93410  0.30980  0.06580  Biso   1.000  O
  C113     1.0000 0.75240  0.49710  0.87500  Biso   1.000  C
  C114     1.0000 0.73030  0.56300  0.77600  Biso   1.000  C
  H53      1.0000 0.74480  0.60560  0.74120  Biso   1.000  H
  C115     1.0000 0.72970  0.43400  0.92240  Biso   1.000  C
  H54      1.0000 0.74390  0.39300  0.98710  Biso   1.000  H
  C116     1.0000 0.61880  0.48630  0.74230  Biso   1.000  C
  C117     1.0000 0.66570  0.48630  0.79040  Biso   1.000  C
  C118     1.0000 0.68680  0.42900  0.87920  Biso   1.000  C
  H55      1.0000 0.67290  0.38460  0.91450  Biso   1.000  H
  C119     1.0000 0.68760  0.56100  0.73370  Biso   1.000  C
  H56      1.0000 0.67260  0.60460  0.67090  Biso   1.000  H
  C120     1.0000 0.89600  0.29730  0.02500  Biso   1.000  C
  Co9      1.0000 0.00000  0.02070  0.25000  Biso   1.000  Co
  Co10     1.0000 0.50000  0.52070  0.25000  Biso   1.000  Co
  Co11     1.0000 0.00000  0.97930  0.75000  Biso   1.000  Co
  Co12     1.0000 0.50000  0.47930  0.75000  Biso   1.000  Co
  Co13     1.0000 0.00000  0.00000  0.50000  Biso   1.000  Co
  Co14     1.0000 0.50000  0.50000  0.50000  Biso   1.000  Co
  Co15     1.0000 0.00000  0.00000  0.00000  Biso   1.000  Co
  Co16     1.0000 0.50000  0.50000  0.00000  Biso   1.000  Co
