data_image0
_cell_length_a       37.475
_cell_length_b       13.327
_cell_length_c       15.9941
_cell_angle_alpha    90
_cell_angle_beta     90
_cell_angle_gamma    90

_symmetry_space_group_name_H-M    "P 1"
_symmetry_int_tables_number       1

loop_
  _symmetry_equiv_pos_as_xyz
  'x, y, z'

loop_
  _atom_site_label
  _atom_site_occupancy
  _atom_site_fract_x
  _atom_site_fract_y
  _atom_site_fract_z
  _atom_site_thermal_displace_type
  _atom_site_B_iso_or_equiv
  _atom_site_type_symbol
  Mn1      1.0000 0.97164  0.13597  0.13880  Biso   1.000  Mn
  C1       1.0000 0.74608  0.87710  0.93520  Biso   1.000  C
  C2       1.0000 0.68552  0.87250  0.83410  Biso   1.000  C
  C3       1.0000 0.80996  0.23280  0.17690  Biso   1.000  C
  C4       1.0000 0.83798  0.62890  0.05000  Biso   1.000  C
  C5       1.0000 0.80019  0.14640  0.12480  Biso   1.000  C
  C6       1.0000 0.73760  0.95910  0.88500  Biso   1.000  C
  H1       1.0000 0.75230  0.01540  0.88400  Biso   1.000  H
  C7       1.0000 0.69410  0.79190  0.88280  Biso   1.000  C
  H2       1.0000 0.67950  0.73540  0.88240  Biso   1.000  H
  C8       1.0000 0.80355  0.72770  0.95050  Biso   1.000  C
  H3       1.0000 0.79460  0.73490  0.89660  Biso   1.000  H
  C9       1.0000 0.87470  0.36720  0.04740  Biso   1.000  C
  H4       1.0000 0.86930  0.30560  0.02320  Biso   1.000  H
  C10      1.0000 0.85966  0.54170  0.06960  Biso   1.000  C
  C11      1.0000 0.58485  0.89340  0.70610  Biso   1.000  C
  C12      1.0000 0.64999  0.87740  0.78580  Biso   1.000  C
  C13      1.0000 0.90511  0.37640  0.09790  Biso   1.000  C
  C14      1.0000 0.72439  0.79360  0.93270  Biso   1.000  C
  H5       1.0000 0.73010  0.73780  0.96490  Biso   1.000  H
  C15      1.0000 0.79637  0.79800  0.00970  Biso   1.000  C
  C16      1.0000 0.91154  0.46790  0.13750  Biso   1.000  C
  H6       1.0000 0.93070  0.47420  0.17400  Biso   1.000  H
  C17      1.0000 0.80070  0.39900  0.23150  Biso   1.000  C
  H7       1.0000 0.78600  0.45510  0.23510  Biso   1.000  H
  C18      1.0000 0.78927  0.31580  0.18760  Biso   1.000  C
  H8       1.0000 0.76650  0.31650  0.16440  Biso   1.000  H
  C19      1.0000 0.70691  0.95540  0.83630  Biso   1.000  C
  H9       1.0000 0.70080  0.01100  0.80430  Biso   1.000  H
  C20      1.0000 0.76569  0.10960  0.12280  Biso   1.000  C
  H10      1.0000 0.74800  0.14160  0.15370  Biso   1.000  H
  C21      1.0000 0.85240  0.45040  0.03290  Biso   1.000  C
  H11      1.0000 0.83260  0.44370  0.99820  Biso   1.000  H
  C22      1.0000 0.88947  0.54940  0.12250  Biso   1.000  C
  H12      1.0000 0.89450  0.61040  0.14810  Biso   1.000  H
  C23      1.0000 0.59130  0.81680  0.76150  Biso   1.000  C
  H13      1.0000 0.57360  0.77030  0.77360  Biso   1.000  H
  C24      1.0000 0.82975  0.70200  0.11040  Biso   1.000  C
  H14      1.0000 0.83830  0.69450  0.16460  Biso   1.000  H
  C25      1.0000 0.78226  0.97500  0.03310  Biso   1.000  C
  C26      1.0000 0.80930  0.78440  0.09100  Biso   1.000  C
  H15      1.0000 0.80400  0.83140  0.13220  Biso   1.000  H
  C27      1.0000 0.54810  0.90820  0.66920  Biso   1.000  C
  C28      1.0000 0.92860  0.28740  0.11290  Biso   1.000  C
  C29      1.0000 0.84270  0.23510  0.21810  Biso   1.000  C
  H16      1.0000 0.85740  0.17910  0.21440  Biso   1.000  H
  C30      1.0000 0.83350  0.39990  0.26990  Biso   1.000  C
  C31      1.0000 0.82506  0.64220  0.97150  Biso   1.000  C
  H17      1.0000 0.83020  0.59500  0.93050  Biso   1.000  H
  C32      1.0000 0.62429  0.80950  0.79890  Biso   1.000  C
  H18      1.0000 0.62880  0.75580  0.83440  Biso   1.000  H
  C33      1.0000 0.85410  0.31470  0.26320  Biso   1.000  C
  H19      1.0000 0.87610  0.31190  0.28990  Biso   1.000  H
  C34      1.0000 0.81787  0.01430  0.03270  Biso   1.000  C
  H20      1.0000 0.83580  0.98290  0.00230  Biso   1.000  H
  C35      1.0000 0.82462  0.09700  0.07690  Biso   1.000  C
  H21      1.0000 0.84770  0.12280  0.07490  Biso   1.000  H
  C36      1.0000 0.61090  0.96050  0.68930  Biso   1.000  C
  H22      1.0000 0.60730  0.01180  0.65080  Biso   1.000  H
  C37      1.0000 0.84410  0.49260  0.31450  Biso   1.000  C
  C38      1.0000 0.75702  0.02630  0.07590  Biso   1.000  C
  H23      1.0000 0.73340  0.00510  0.07360  Biso   1.000  H
  C39      1.0000 0.64323  0.95090  0.73080  Biso   1.000  C
  H24      1.0000 0.66110  0.99770  0.72000  Biso   1.000  H
  O1       1.0000 0.91899  0.20180  0.09060  Biso   1.000  O
  O2       1.0000 0.95823  0.30160  0.15110  Biso   1.000  O
  O3       1.0000 0.54299  0.98380  0.62240  Biso   1.000  O
  O4       1.0000 0.52473  0.84110  0.68110  Biso   1.000  O
  O5       1.0000 0.87538  0.47630  0.35250  Biso   1.000  O
  H25      1.0000 0.88200  0.52800  0.37550  Biso   1.000  H
  O6       1.0000 0.82884  0.56820  0.31730  Biso   1.000  O
  N1       1.0000 0.77557  0.88320  0.98940  Biso   1.000  N
  Mn2      1.0000 0.02836  0.86403  0.13880  Biso   1.000  Mn
  C40      1.0000 0.25392  0.12290  0.93520  Biso   1.000  C
  C41      1.0000 0.31448  0.12750  0.83410  Biso   1.000  C
  C42      1.0000 0.19004  0.76720  0.17690  Biso   1.000  C
  C43      1.0000 0.16202  0.37110  0.05000  Biso   1.000  C
  C44      1.0000 0.19981  0.85360  0.12480  Biso   1.000  C
  C45      1.0000 0.26240  0.04090  0.88500  Biso   1.000  C
  H26      1.0000 0.24770  0.98460  0.88400  Biso   1.000  H
  C46      1.0000 0.30590  0.20810  0.88280  Biso   1.000  C
  H27      1.0000 0.32050  0.26460  0.88240  Biso   1.000  H
  C47      1.0000 0.19645  0.27230  0.95050  Biso   1.000  C
  H28      1.0000 0.20540  0.26510  0.89660  Biso   1.000  H
  C48      1.0000 0.12530  0.63280  0.04740  Biso   1.000  C
  H29      1.0000 0.13070  0.69440  0.02320  Biso   1.000  H
  C49      1.0000 0.14034  0.45830  0.06960  Biso   1.000  C
  C50      1.0000 0.41515  0.10660  0.70610  Biso   1.000  C
  C51      1.0000 0.35001  0.12260  0.78580  Biso   1.000  C
  C52      1.0000 0.09489  0.62360  0.09790  Biso   1.000  C
  C53      1.0000 0.27561  0.20640  0.93270  Biso   1.000  C
  H30      1.0000 0.26990  0.26220  0.96490  Biso   1.000  H
  C54      1.0000 0.20363  0.20200  0.00970  Biso   1.000  C
  C55      1.0000 0.08846  0.53210  0.13750  Biso   1.000  C
  H31      1.0000 0.06930  0.52580  0.17400  Biso   1.000  H
  C56      1.0000 0.19930  0.60100  0.23150  Biso   1.000  C
  H32      1.0000 0.21400  0.54490  0.23510  Biso   1.000  H
  C57      1.0000 0.21073  0.68420  0.18760  Biso   1.000  C
  H33      1.0000 0.23350  0.68350  0.16440  Biso   1.000  H
  C58      1.0000 0.29309  0.04460  0.83630  Biso   1.000  C
  H34      1.0000 0.29920  0.98900  0.80430  Biso   1.000  H
  C59      1.0000 0.23431  0.89040  0.12280  Biso   1.000  C
  H35      1.0000 0.25200  0.85840  0.15370  Biso   1.000  H
  C60      1.0000 0.14760  0.54960  0.03290  Biso   1.000  C
  H36      1.0000 0.16740  0.55630  0.99820  Biso   1.000  H
  C61      1.0000 0.11053  0.45060  0.12250  Biso   1.000  C
  H37      1.0000 0.10550  0.38960  0.14810  Biso   1.000  H
  C62      1.0000 0.40870  0.18320  0.76150  Biso   1.000  C
  H38      1.0000 0.42640  0.22970  0.77360  Biso   1.000  H
  C63      1.0000 0.17025  0.29800  0.11040  Biso   1.000  C
  H39      1.0000 0.16170  0.30550  0.16460  Biso   1.000  H
  C64      1.0000 0.21774  0.02500  0.03310  Biso   1.000  C
  C65      1.0000 0.19070  0.21560  0.09100  Biso   1.000  C
  H40      1.0000 0.19600  0.16860  0.13220  Biso   1.000  H
  C66      1.0000 0.45190  0.09180  0.66920  Biso   1.000  C
  C67      1.0000 0.07140  0.71260  0.11290  Biso   1.000  C
  C68      1.0000 0.15730  0.76490  0.21810  Biso   1.000  C
  H41      1.0000 0.14260  0.82090  0.21440  Biso   1.000  H
  C69      1.0000 0.16650  0.60010  0.26990  Biso   1.000  C
  C70      1.0000 0.17494  0.35780  0.97150  Biso   1.000  C
  H42      1.0000 0.16980  0.40500  0.93050  Biso   1.000  H
  C71      1.0000 0.37571  0.19050  0.79890  Biso   1.000  C
  H43      1.0000 0.37120  0.24420  0.83440  Biso   1.000  H
  C72      1.0000 0.14590  0.68530  0.26320  Biso   1.000  C
  H44      1.0000 0.12390  0.68810  0.28990  Biso   1.000  H
  C73      1.0000 0.18213  0.98570  0.03270  Biso   1.000  C
  H45      1.0000 0.16420  0.01710  0.00230  Biso   1.000  H
  C74      1.0000 0.17538  0.90300  0.07690  Biso   1.000  C
  H46      1.0000 0.15230  0.87720  0.07490  Biso   1.000  H
  C75      1.0000 0.38910  0.03950  0.68930  Biso   1.000  C
  H47      1.0000 0.39270  0.98820  0.65080  Biso   1.000  H
  C76      1.0000 0.15590  0.50740  0.31450  Biso   1.000  C
  C77      1.0000 0.24298  0.97370  0.07590  Biso   1.000  C
  H48      1.0000 0.26660  0.99490  0.07360  Biso   1.000  H
  C78      1.0000 0.35677  0.04910  0.73080  Biso   1.000  C
  H49      1.0000 0.33890  0.00230  0.72000  Biso   1.000  H
  O7       1.0000 0.08101  0.79820  0.09060  Biso   1.000  O
  O8       1.0000 0.04177  0.69840  0.15110  Biso   1.000  O
  O9       1.0000 0.45701  0.01620  0.62240  Biso   1.000  O
  O10      1.0000 0.47527  0.15890  0.68110  Biso   1.000  O
  O11      1.0000 0.12462  0.52370  0.35250  Biso   1.000  O
  H50      1.0000 0.11800  0.47200  0.37550  Biso   1.000  H
  O12      1.0000 0.17116  0.43180  0.31730  Biso   1.000  O
  N2       1.0000 0.22443  0.11680  0.98940  Biso   1.000  N
  Mn3      1.0000 0.47164  0.86403  0.63880  Biso   1.000  Mn
  C79      1.0000 0.24608  0.12290  0.43520  Biso   1.000  C
  C80      1.0000 0.18552  0.12750  0.33410  Biso   1.000  C
  C81      1.0000 0.30996  0.76720  0.67690  Biso   1.000  C
  C82      1.0000 0.33798  0.37110  0.55000  Biso   1.000  C
  C83      1.0000 0.30019  0.85360  0.62480  Biso   1.000  C
  C84      1.0000 0.23760  0.04090  0.38500  Biso   1.000  C
  H51      1.0000 0.25230  0.98460  0.38400  Biso   1.000  H
  C85      1.0000 0.19410  0.20810  0.38280  Biso   1.000  C
  H52      1.0000 0.17950  0.26460  0.38240  Biso   1.000  H
  C86      1.0000 0.30355  0.27230  0.45050  Biso   1.000  C
  H53      1.0000 0.29460  0.26510  0.39660  Biso   1.000  H
  C87      1.0000 0.37470  0.63280  0.54740  Biso   1.000  C
  H54      1.0000 0.36930  0.69440  0.52320  Biso   1.000  H
  C88      1.0000 0.35966  0.45830  0.56960  Biso   1.000  C
  C89      1.0000 0.08485  0.10660  0.20610  Biso   1.000  C
  C90      1.0000 0.14999  0.12260  0.28580  Biso   1.000  C
  C91      1.0000 0.40511  0.62360  0.59790  Biso   1.000  C
  C92      1.0000 0.22439  0.20640  0.43270  Biso   1.000  C
  H55      1.0000 0.23010  0.26220  0.46490  Biso   1.000  H
  C93      1.0000 0.29637  0.20200  0.50970  Biso   1.000  C
  C94      1.0000 0.41154  0.53210  0.63750  Biso   1.000  C
  H56      1.0000 0.43070  0.52580  0.67400  Biso   1.000  H
  C95      1.0000 0.30070  0.60100  0.73150  Biso   1.000  C
  H57      1.0000 0.28600  0.54490  0.73510  Biso   1.000  H
  C96      1.0000 0.28927  0.68420  0.68760  Biso   1.000  C
  H58      1.0000 0.26650  0.68350  0.66440  Biso   1.000  H
  C97      1.0000 0.20691  0.04460  0.33630  Biso   1.000  C
  H59      1.0000 0.20080  0.98900  0.30430  Biso   1.000  H
  C98      1.0000 0.26569  0.89040  0.62280  Biso   1.000  C
  H60      1.0000 0.24800  0.85840  0.65370  Biso   1.000  H
  C99      1.0000 0.35240  0.54960  0.53290  Biso   1.000  C
  H61      1.0000 0.33260  0.55630  0.49820  Biso   1.000  H
  C100     1.0000 0.38947  0.45060  0.62250  Biso   1.000  C
  H62      1.0000 0.39450  0.38960  0.64810  Biso   1.000  H
  C101     1.0000 0.09130  0.18320  0.26150  Biso   1.000  C
  H63      1.0000 0.07360  0.22970  0.27360  Biso   1.000  H
  C102     1.0000 0.32975  0.29800  0.61040  Biso   1.000  C
  H64      1.0000 0.33830  0.30550  0.66460  Biso   1.000  H
  C103     1.0000 0.28226  0.02500  0.53310  Biso   1.000  C
  C104     1.0000 0.30930  0.21560  0.59100  Biso   1.000  C
  H65      1.0000 0.30400  0.16860  0.63220  Biso   1.000  H
  C105     1.0000 0.04810  0.09180  0.16920  Biso   1.000  C
  C106     1.0000 0.42860  0.71260  0.61290  Biso   1.000  C
  C107     1.0000 0.34270  0.76490  0.71810  Biso   1.000  C
  H66      1.0000 0.35740  0.82090  0.71440  Biso   1.000  H
  C108     1.0000 0.33350  0.60010  0.76990  Biso   1.000  C
  C109     1.0000 0.32506  0.35780  0.47150  Biso   1.000  C
  H67      1.0000 0.33020  0.40500  0.43050  Biso   1.000  H
  C110     1.0000 0.12429  0.19050  0.29890  Biso   1.000  C
  H68      1.0000 0.12880  0.24420  0.33440  Biso   1.000  H
  C111     1.0000 0.35410  0.68530  0.76320  Biso   1.000  C
  H69      1.0000 0.37610  0.68810  0.78990  Biso   1.000  H
  C112     1.0000 0.31787  0.98570  0.53270  Biso   1.000  C
  H70      1.0000 0.33580  0.01710  0.50230  Biso   1.000  H
  C113     1.0000 0.32462  0.90300  0.57690  Biso   1.000  C
  H71      1.0000 0.34770  0.87720  0.57490  Biso   1.000  H
  C114     1.0000 0.11090  0.03950  0.18930  Biso   1.000  C
  H72      1.0000 0.10730  0.98820  0.15080  Biso   1.000  H
  C115     1.0000 0.34410  0.50740  0.81450  Biso   1.000  C
  C116     1.0000 0.25702  0.97370  0.57590  Biso   1.000  C
  H73      1.0000 0.23340  0.99490  0.57360  Biso   1.000  H
  C117     1.0000 0.14323  0.04910  0.23080  Biso   1.000  C
  H74      1.0000 0.16110  0.00230  0.22000  Biso   1.000  H
  O13      1.0000 0.41899  0.79820  0.59060  Biso   1.000  O
  O14      1.0000 0.45823  0.69840  0.65110  Biso   1.000  O
  O15      1.0000 0.04299  0.01620  0.12240  Biso   1.000  O
  O16      1.0000 0.02473  0.15890  0.18110  Biso   1.000  O
  O17      1.0000 0.37538  0.52370  0.85250  Biso   1.000  O
  H75      1.0000 0.38200  0.47200  0.87550  Biso   1.000  H
  O18      1.0000 0.32884  0.43180  0.81730  Biso   1.000  O
  N3       1.0000 0.27557  0.11680  0.48940  Biso   1.000  N
  Mn4      1.0000 0.52836  0.13597  0.63880  Biso   1.000  Mn
  C118     1.0000 0.75392  0.87710  0.43520  Biso   1.000  C
  C119     1.0000 0.81448  0.87250  0.33410  Biso   1.000  C
  C120     1.0000 0.69004  0.23280  0.67690  Biso   1.000  C
  C121     1.0000 0.66202  0.62890  0.55000  Biso   1.000  C
  C122     1.0000 0.69981  0.14640  0.62480  Biso   1.000  C
  C123     1.0000 0.76240  0.95910  0.38500  Biso   1.000  C
  H76      1.0000 0.74770  0.01540  0.38400  Biso   1.000  H
  C124     1.0000 0.80590  0.79190  0.38280  Biso   1.000  C
  H77      1.0000 0.82050  0.73540  0.38240  Biso   1.000  H
  C125     1.0000 0.69645  0.72770  0.45050  Biso   1.000  C
  H78      1.0000 0.70540  0.73490  0.39660  Biso   1.000  H
  C126     1.0000 0.62530  0.36720  0.54740  Biso   1.000  C
  H79      1.0000 0.63070  0.30560  0.52320  Biso   1.000  H
  C127     1.0000 0.64034  0.54170  0.56960  Biso   1.000  C
  C128     1.0000 0.91515  0.89340  0.20610  Biso   1.000  C
  C129     1.0000 0.85001  0.87740  0.28580  Biso   1.000  C
  C130     1.0000 0.59489  0.37640  0.59790  Biso   1.000  C
  C131     1.0000 0.77561  0.79360  0.43270  Biso   1.000  C
  H80      1.0000 0.76990  0.73780  0.46490  Biso   1.000  H
  C132     1.0000 0.70363  0.79800  0.50970  Biso   1.000  C
  C133     1.0000 0.58846  0.46790  0.63750  Biso   1.000  C
  H81      1.0000 0.56930  0.47420  0.67400  Biso   1.000  H
  C134     1.0000 0.69930  0.39900  0.73150  Biso   1.000  C
  H82      1.0000 0.71400  0.45510  0.73510  Biso   1.000  H
  C135     1.0000 0.71073  0.31580  0.68760  Biso   1.000  C
  H83      1.0000 0.73350  0.31650  0.66440  Biso   1.000  H
  C136     1.0000 0.79309  0.95540  0.33630  Biso   1.000  C
  H84      1.0000 0.79920  0.01100  0.30430  Biso   1.000  H
  C137     1.0000 0.73431  0.10960  0.62280  Biso   1.000  C
  H85      1.0000 0.75200  0.14160  0.65370  Biso   1.000  H
  C138     1.0000 0.64760  0.45040  0.53290  Biso   1.000  C
  H86      1.0000 0.66740  0.44370  0.49820  Biso   1.000  H
  C139     1.0000 0.61053  0.54940  0.62250  Biso   1.000  C
  H87      1.0000 0.60550  0.61040  0.64810  Biso   1.000  H
  C140     1.0000 0.90870  0.81680  0.26150  Biso   1.000  C
  H88      1.0000 0.92640  0.77030  0.27360  Biso   1.000  H
  C141     1.0000 0.67025  0.70200  0.61040  Biso   1.000  C
  H89      1.0000 0.66170  0.69450  0.66460  Biso   1.000  H
  C142     1.0000 0.71774  0.97500  0.53310  Biso   1.000  C
  C143     1.0000 0.69070  0.78440  0.59100  Biso   1.000  C
  H90      1.0000 0.69600  0.83140  0.63220  Biso   1.000  H
  C144     1.0000 0.95190  0.90820  0.16920  Biso   1.000  C
  C145     1.0000 0.57140  0.28740  0.61290  Biso   1.000  C
  C146     1.0000 0.65730  0.23510  0.71810  Biso   1.000  C
  H91      1.0000 0.64260  0.17910  0.71440  Biso   1.000  H
  C147     1.0000 0.66650  0.39990  0.76990  Biso   1.000  C
  C148     1.0000 0.67494  0.64220  0.47150  Biso   1.000  C
  H92      1.0000 0.66980  0.59500  0.43050  Biso   1.000  H
  C149     1.0000 0.87571  0.80950  0.29890  Biso   1.000  C
  H93      1.0000 0.87120  0.75580  0.33440  Biso   1.000  H
  C150     1.0000 0.64590  0.31470  0.76320  Biso   1.000  C
  H94      1.0000 0.62390  0.31190  0.78990  Biso   1.000  H
  C151     1.0000 0.68213  0.01430  0.53270  Biso   1.000  C
  H95      1.0000 0.66420  0.98290  0.50230  Biso   1.000  H
  C152     1.0000 0.67538  0.09700  0.57690  Biso   1.000  C
  H96      1.0000 0.65230  0.12280  0.57490  Biso   1.000  H
  C153     1.0000 0.88910  0.96050  0.18930  Biso   1.000  C
  H97      1.0000 0.89270  0.01180  0.15080  Biso   1.000  H
  C154     1.0000 0.65590  0.49260  0.81450  Biso   1.000  C
  C155     1.0000 0.74298  0.02630  0.57590  Biso   1.000  C
  H98      1.0000 0.76660  0.00510  0.57360  Biso   1.000  H
  C156     1.0000 0.85677  0.95090  0.23080  Biso   1.000  C
  H99      1.0000 0.83890  0.99770  0.22000  Biso   1.000  H
  O19      1.0000 0.58101  0.20180  0.59060  Biso   1.000  O
  O20      1.0000 0.54177  0.30160  0.65110  Biso   1.000  O
  O21      1.0000 0.95701  0.98380  0.12240  Biso   1.000  O
  O22      1.0000 0.97527  0.84110  0.18110  Biso   1.000  O
  O23      1.0000 0.62462  0.47630  0.85250  Biso   1.000  O
  H100     1.0000 0.61800  0.52800  0.87550  Biso   1.000  H
  O24      1.0000 0.67116  0.56820  0.81730  Biso   1.000  O
  N4       1.0000 0.72443  0.88320  0.48940  Biso   1.000  N
  Mn5      1.0000 0.97164  0.63597  0.63880  Biso   1.000  Mn
  C157     1.0000 0.74608  0.37710  0.43520  Biso   1.000  C
  C158     1.0000 0.68552  0.37250  0.33410  Biso   1.000  C
  C159     1.0000 0.80996  0.73280  0.67690  Biso   1.000  C
  C160     1.0000 0.83798  0.12890  0.55000  Biso   1.000  C
  C161     1.0000 0.80019  0.64640  0.62480  Biso   1.000  C
  C162     1.0000 0.73760  0.45910  0.38500  Biso   1.000  C
  H101     1.0000 0.75230  0.51540  0.38400  Biso   1.000  H
  C163     1.0000 0.69410  0.29190  0.38280  Biso   1.000  C
  H102     1.0000 0.67950  0.23540  0.38240  Biso   1.000  H
  C164     1.0000 0.80355  0.22770  0.45050  Biso   1.000  C
  H103     1.0000 0.79460  0.23490  0.39660  Biso   1.000  H
  C165     1.0000 0.87470  0.86720  0.54740  Biso   1.000  C
  H104     1.0000 0.86930  0.80560  0.52320  Biso   1.000  H
  C166     1.0000 0.85966  0.04170  0.56960  Biso   1.000  C
  C167     1.0000 0.58485  0.39340  0.20610  Biso   1.000  C
  C168     1.0000 0.64999  0.37740  0.28580  Biso   1.000  C
  C169     1.0000 0.90511  0.87640  0.59790  Biso   1.000  C
  C170     1.0000 0.72439  0.29360  0.43270  Biso   1.000  C
  H105     1.0000 0.73010  0.23780  0.46490  Biso   1.000  H
  C171     1.0000 0.79637  0.29800  0.50970  Biso   1.000  C
  C172     1.0000 0.91154  0.96790  0.63750  Biso   1.000  C
  H106     1.0000 0.93070  0.97420  0.67400  Biso   1.000  H
  C173     1.0000 0.80070  0.89900  0.73150  Biso   1.000  C
  H107     1.0000 0.78600  0.95510  0.73510  Biso   1.000  H
  C174     1.0000 0.78927  0.81580  0.68760  Biso   1.000  C
  H108     1.0000 0.76650  0.81650  0.66440  Biso   1.000  H
  C175     1.0000 0.70691  0.45540  0.33630  Biso   1.000  C
  H109     1.0000 0.70080  0.51100  0.30430  Biso   1.000  H
  C176     1.0000 0.76569  0.60960  0.62280  Biso   1.000  C
  H110     1.0000 0.74800  0.64160  0.65370  Biso   1.000  H
  C177     1.0000 0.85240  0.95040  0.53290  Biso   1.000  C
  H111     1.0000 0.83260  0.94370  0.49820  Biso   1.000  H
  C178     1.0000 0.88947  0.04940  0.62250  Biso   1.000  C
  H112     1.0000 0.89450  0.11040  0.64810  Biso   1.000  H
  C179     1.0000 0.59130  0.31680  0.26150  Biso   1.000  C
  H113     1.0000 0.57360  0.27030  0.27360  Biso   1.000  H
  C180     1.0000 0.82975  0.20200  0.61040  Biso   1.000  C
  H114     1.0000 0.83830  0.19450  0.66460  Biso   1.000  H
  C181     1.0000 0.78226  0.47500  0.53310  Biso   1.000  C
  C182     1.0000 0.80930  0.28440  0.59100  Biso   1.000  C
  H115     1.0000 0.80400  0.33140  0.63220  Biso   1.000  H
  C183     1.0000 0.54810  0.40820  0.16920  Biso   1.000  C
  C184     1.0000 0.92860  0.78740  0.61290  Biso   1.000  C
  C185     1.0000 0.84270  0.73510  0.71810  Biso   1.000  C
  H116     1.0000 0.85740  0.67910  0.71440  Biso   1.000  H
  C186     1.0000 0.83350  0.89990  0.76990  Biso   1.000  C
  C187     1.0000 0.82506  0.14220  0.47150  Biso   1.000  C
  H117     1.0000 0.83020  0.09500  0.43050  Biso   1.000  H
  C188     1.0000 0.62429  0.30950  0.29890  Biso   1.000  C
  H118     1.0000 0.62880  0.25580  0.33440  Biso   1.000  H
  C189     1.0000 0.85410  0.81470  0.76320  Biso   1.000  C
  H119     1.0000 0.87610  0.81190  0.78990  Biso   1.000  H
  C190     1.0000 0.81787  0.51430  0.53270  Biso   1.000  C
  H120     1.0000 0.83580  0.48290  0.50230  Biso   1.000  H
  C191     1.0000 0.82462  0.59700  0.57690  Biso   1.000  C
  H121     1.0000 0.84770  0.62280  0.57490  Biso   1.000  H
  C192     1.0000 0.61090  0.46050  0.18930  Biso   1.000  C
  H122     1.0000 0.60730  0.51180  0.15080  Biso   1.000  H
  C193     1.0000 0.84410  0.99260  0.81450  Biso   1.000  C
  C194     1.0000 0.75702  0.52630  0.57590  Biso   1.000  C
  H123     1.0000 0.73340  0.50510  0.57360  Biso   1.000  H
  C195     1.0000 0.64323  0.45090  0.23080  Biso   1.000  C
  H124     1.0000 0.66110  0.49770  0.22000  Biso   1.000  H
  O25      1.0000 0.91899  0.70180  0.59060  Biso   1.000  O
  O26      1.0000 0.95823  0.80160  0.65110  Biso   1.000  O
  O27      1.0000 0.54299  0.48380  0.12240  Biso   1.000  O
  O28      1.0000 0.52473  0.34110  0.18110  Biso   1.000  O
  O29      1.0000 0.87538  0.97630  0.85250  Biso   1.000  O
  H125     1.0000 0.88200  0.02800  0.87550  Biso   1.000  H
  O30      1.0000 0.82884  0.06820  0.81730  Biso   1.000  O
  N5       1.0000 0.77557  0.38320  0.48940  Biso   1.000  N
  Mn6      1.0000 0.02836  0.36403  0.63880  Biso   1.000  Mn
  C196     1.0000 0.25392  0.62290  0.43520  Biso   1.000  C
  C197     1.0000 0.31448  0.62750  0.33410  Biso   1.000  C
  C198     1.0000 0.19004  0.26720  0.67690  Biso   1.000  C
  C199     1.0000 0.16202  0.87110  0.55000  Biso   1.000  C
  C200     1.0000 0.19981  0.35360  0.62480  Biso   1.000  C
  C201     1.0000 0.26240  0.54090  0.38500  Biso   1.000  C
  H126     1.0000 0.24770  0.48460  0.38400  Biso   1.000  H
  C202     1.0000 0.30590  0.70810  0.38280  Biso   1.000  C
  H127     1.0000 0.32050  0.76460  0.38240  Biso   1.000  H
  C203     1.0000 0.19645  0.77230  0.45050  Biso   1.000  C
  H128     1.0000 0.20540  0.76510  0.39660  Biso   1.000  H
  C204     1.0000 0.12530  0.13280  0.54740  Biso   1.000  C
  H129     1.0000 0.13070  0.19440  0.52320  Biso   1.000  H
  C205     1.0000 0.14034  0.95830  0.56960  Biso   1.000  C
  C206     1.0000 0.41515  0.60660  0.20610  Biso   1.000  C
  C207     1.0000 0.35001  0.62260  0.28580  Biso   1.000  C
  C208     1.0000 0.09489  0.12360  0.59790  Biso   1.000  C
  C209     1.0000 0.27561  0.70640  0.43270  Biso   1.000  C
  H130     1.0000 0.26990  0.76220  0.46490  Biso   1.000  H
  C210     1.0000 0.20363  0.70200  0.50970  Biso   1.000  C
  C211     1.0000 0.08846  0.03210  0.63750  Biso   1.000  C
  H131     1.0000 0.06930  0.02580  0.67400  Biso   1.000  H
  C212     1.0000 0.19930  0.10100  0.73150  Biso   1.000  C
  H132     1.0000 0.21400  0.04490  0.73510  Biso   1.000  H
  C213     1.0000 0.21073  0.18420  0.68760  Biso   1.000  C
  H133     1.0000 0.23350  0.18350  0.66440  Biso   1.000  H
  C214     1.0000 0.29309  0.54460  0.33630  Biso   1.000  C
  H134     1.0000 0.29920  0.48900  0.30430  Biso   1.000  H
  C215     1.0000 0.23431  0.39040  0.62280  Biso   1.000  C
  H135     1.0000 0.25200  0.35840  0.65370  Biso   1.000  H
  C216     1.0000 0.14760  0.04960  0.53290  Biso   1.000  C
  H136     1.0000 0.16740  0.05630  0.49820  Biso   1.000  H
  C217     1.0000 0.11053  0.95060  0.62250  Biso   1.000  C
  H137     1.0000 0.10550  0.88960  0.64810  Biso   1.000  H
  C218     1.0000 0.40870  0.68320  0.26150  Biso   1.000  C
  H138     1.0000 0.42640  0.72970  0.27360  Biso   1.000  H
  C219     1.0000 0.17025  0.79800  0.61040  Biso   1.000  C
  H139     1.0000 0.16170  0.80550  0.66460  Biso   1.000  H
  C220     1.0000 0.21774  0.52500  0.53310  Biso   1.000  C
  C221     1.0000 0.19070  0.71560  0.59100  Biso   1.000  C
  H140     1.0000 0.19600  0.66860  0.63220  Biso   1.000  H
  C222     1.0000 0.45190  0.59180  0.16920  Biso   1.000  C
  C223     1.0000 0.07140  0.21260  0.61290  Biso   1.000  C
  C224     1.0000 0.15730  0.26490  0.71810  Biso   1.000  C
  H141     1.0000 0.14260  0.32090  0.71440  Biso   1.000  H
  C225     1.0000 0.16650  0.10010  0.76990  Biso   1.000  C
  C226     1.0000 0.17494  0.85780  0.47150  Biso   1.000  C
  H142     1.0000 0.16980  0.90500  0.43050  Biso   1.000  H
  C227     1.0000 0.37571  0.69050  0.29890  Biso   1.000  C
  H143     1.0000 0.37120  0.74420  0.33440  Biso   1.000  H
  C228     1.0000 0.14590  0.18530  0.76320  Biso   1.000  C
  H144     1.0000 0.12390  0.18810  0.78990  Biso   1.000  H
  C229     1.0000 0.18213  0.48570  0.53270  Biso   1.000  C
  H145     1.0000 0.16420  0.51710  0.50230  Biso   1.000  H
  C230     1.0000 0.17538  0.40300  0.57690  Biso   1.000  C
  H146     1.0000 0.15230  0.37720  0.57490  Biso   1.000  H
  C231     1.0000 0.38910  0.53950  0.18930  Biso   1.000  C
  H147     1.0000 0.39270  0.48820  0.15080  Biso   1.000  H
  C232     1.0000 0.15590  0.00740  0.81450  Biso   1.000  C
  C233     1.0000 0.24298  0.47370  0.57590  Biso   1.000  C
  H148     1.0000 0.26660  0.49490  0.57360  Biso   1.000  H
  C234     1.0000 0.35677  0.54910  0.23080  Biso   1.000  C
  H149     1.0000 0.33890  0.50230  0.22000  Biso   1.000  H
  O31      1.0000 0.08101  0.29820  0.59060  Biso   1.000  O
  O32      1.0000 0.04177  0.19840  0.65110  Biso   1.000  O
  O33      1.0000 0.45701  0.51620  0.12240  Biso   1.000  O
  O34      1.0000 0.47527  0.65890  0.18110  Biso   1.000  O
  O35      1.0000 0.12462  0.02370  0.85250  Biso   1.000  O
  H150     1.0000 0.11800  0.97200  0.87550  Biso   1.000  H
  O36      1.0000 0.17116  0.93180  0.81730  Biso   1.000  O
  N6       1.0000 0.22443  0.61680  0.48940  Biso   1.000  N
  Mn7      1.0000 0.47164  0.36403  0.13880  Biso   1.000  Mn
  C235     1.0000 0.24608  0.62290  0.93520  Biso   1.000  C
  C236     1.0000 0.18552  0.62750  0.83410  Biso   1.000  C
  C237     1.0000 0.30996  0.26720  0.17690  Biso   1.000  C
  C238     1.0000 0.33798  0.87110  0.05000  Biso   1.000  C
  C239     1.0000 0.30019  0.35360  0.12480  Biso   1.000  C
  C240     1.0000 0.23760  0.54090  0.88500  Biso   1.000  C
  H151     1.0000 0.25230  0.48460  0.88400  Biso   1.000  H
  C241     1.0000 0.19410  0.70810  0.88280  Biso   1.000  C
  H152     1.0000 0.17950  0.76460  0.88240  Biso   1.000  H
  C242     1.0000 0.30355  0.77230  0.95050  Biso   1.000  C
  H153     1.0000 0.29460  0.76510  0.89660  Biso   1.000  H
  C243     1.0000 0.37470  0.13280  0.04740  Biso   1.000  C
  H154     1.0000 0.36930  0.19440  0.02320  Biso   1.000  H
  C244     1.0000 0.35966  0.95830  0.06960  Biso   1.000  C
  C245     1.0000 0.08485  0.60660  0.70610  Biso   1.000  C
  C246     1.0000 0.14999  0.62260  0.78580  Biso   1.000  C
  C247     1.0000 0.40511  0.12360  0.09790  Biso   1.000  C
  C248     1.0000 0.22439  0.70640  0.93270  Biso   1.000  C
  H155     1.0000 0.23010  0.76220  0.96490  Biso   1.000  H
  C249     1.0000 0.29637  0.70200  0.00970  Biso   1.000  C
  C250     1.0000 0.41154  0.03210  0.13750  Biso   1.000  C
  H156     1.0000 0.43070  0.02580  0.17400  Biso   1.000  H
  C251     1.0000 0.30070  0.10100  0.23150  Biso   1.000  C
  H157     1.0000 0.28600  0.04490  0.23510  Biso   1.000  H
  C252     1.0000 0.28927  0.18420  0.18760  Biso   1.000  C
  H158     1.0000 0.26650  0.18350  0.16440  Biso   1.000  H
  C253     1.0000 0.20691  0.54460  0.83630  Biso   1.000  C
  H159     1.0000 0.20080  0.48900  0.80430  Biso   1.000  H
  C254     1.0000 0.26569  0.39040  0.12280  Biso   1.000  C
  H160     1.0000 0.24800  0.35840  0.15370  Biso   1.000  H
  C255     1.0000 0.35240  0.04960  0.03290  Biso   1.000  C
  H161     1.0000 0.33260  0.05630  0.99820  Biso   1.000  H
  C256     1.0000 0.38947  0.95060  0.12250  Biso   1.000  C
  H162     1.0000 0.39450  0.88960  0.14810  Biso   1.000  H
  C257     1.0000 0.09130  0.68320  0.76150  Biso   1.000  C
  H163     1.0000 0.07360  0.72970  0.77360  Biso   1.000  H
  C258     1.0000 0.32975  0.79800  0.11040  Biso   1.000  C
  H164     1.0000 0.33830  0.80550  0.16460  Biso   1.000  H
  C259     1.0000 0.28226  0.52500  0.03310  Biso   1.000  C
  C260     1.0000 0.30930  0.71560  0.09100  Biso   1.000  C
  H165     1.0000 0.30400  0.66860  0.13220  Biso   1.000  H
  C261     1.0000 0.04810  0.59180  0.66920  Biso   1.000  C
  C262     1.0000 0.42860  0.21260  0.11290  Biso   1.000  C
  C263     1.0000 0.34270  0.26490  0.21810  Biso   1.000  C
  H166     1.0000 0.35740  0.32090  0.21440  Biso   1.000  H
  C264     1.0000 0.33350  0.10010  0.26990  Biso   1.000  C
  C265     1.0000 0.32506  0.85780  0.97150  Biso   1.000  C
  H167     1.0000 0.33020  0.90500  0.93050  Biso   1.000  H
  C266     1.0000 0.12429  0.69050  0.79890  Biso   1.000  C
  H168     1.0000 0.12880  0.74420  0.83440  Biso   1.000  H
  C267     1.0000 0.35410  0.18530  0.26320  Biso   1.000  C
  H169     1.0000 0.37610  0.18810  0.28990  Biso   1.000  H
  C268     1.0000 0.31787  0.48570  0.03270  Biso   1.000  C
  H170     1.0000 0.33580  0.51710  0.00230  Biso   1.000  H
  C269     1.0000 0.32462  0.40300  0.07690  Biso   1.000  C
  H171     1.0000 0.34770  0.37720  0.07490  Biso   1.000  H
  C270     1.0000 0.11090  0.53950  0.68930  Biso   1.000  C
  H172     1.0000 0.10730  0.48820  0.65080  Biso   1.000  H
  C271     1.0000 0.34410  0.00740  0.31450  Biso   1.000  C
  C272     1.0000 0.25702  0.47370  0.07590  Biso   1.000  C
  H173     1.0000 0.23340  0.49490  0.07360  Biso   1.000  H
  C273     1.0000 0.14323  0.54910  0.73080  Biso   1.000  C
  H174     1.0000 0.16110  0.50230  0.72000  Biso   1.000  H
  O37      1.0000 0.41899  0.29820  0.09060  Biso   1.000  O
  O38      1.0000 0.45823  0.19840  0.15110  Biso   1.000  O
  O39      1.0000 0.04299  0.51620  0.62240  Biso   1.000  O
  O40      1.0000 0.02473  0.65890  0.68110  Biso   1.000  O
  O41      1.0000 0.37538  0.02370  0.35250  Biso   1.000  O
  H175     1.0000 0.38200  0.97200  0.37550  Biso   1.000  H
  O42      1.0000 0.32884  0.93180  0.31730  Biso   1.000  O
  N7       1.0000 0.27557  0.61680  0.98940  Biso   1.000  N
  Mn8      1.0000 0.52836  0.63597  0.13880  Biso   1.000  Mn
  C274     1.0000 0.75392  0.37710  0.93520  Biso   1.000  C
  C275     1.0000 0.81448  0.37250  0.83410  Biso   1.000  C
  C276     1.0000 0.69004  0.73280  0.17690  Biso   1.000  C
  C277     1.0000 0.66202  0.12890  0.05000  Biso   1.000  C
  C278     1.0000 0.69981  0.64640  0.12480  Biso   1.000  C
  C279     1.0000 0.76240  0.45910  0.88500  Biso   1.000  C
  H176     1.0000 0.74770  0.51540  0.88400  Biso   1.000  H
  C280     1.0000 0.80590  0.29190  0.88280  Biso   1.000  C
  H177     1.0000 0.82050  0.23540  0.88240  Biso   1.000  H
  C281     1.0000 0.69645  0.22770  0.95050  Biso   1.000  C
  H178     1.0000 0.70540  0.23490  0.89660  Biso   1.000  H
  C282     1.0000 0.62530  0.86720  0.04740  Biso   1.000  C
  H179     1.0000 0.63070  0.80560  0.02320  Biso   1.000  H
  C283     1.0000 0.64034  0.04170  0.06960  Biso   1.000  C
  C284     1.0000 0.91515  0.39340  0.70610  Biso   1.000  C
  C285     1.0000 0.85001  0.37740  0.78580  Biso   1.000  C
  C286     1.0000 0.59489  0.87640  0.09790  Biso   1.000  C
  C287     1.0000 0.77561  0.29360  0.93270  Biso   1.000  C
  H180     1.0000 0.76990  0.23780  0.96490  Biso   1.000  H
  C288     1.0000 0.70363  0.29800  0.00970  Biso   1.000  C
  C289     1.0000 0.58846  0.96790  0.13750  Biso   1.000  C
  H181     1.0000 0.56930  0.97420  0.17400  Biso   1.000  H
  C290     1.0000 0.69930  0.89900  0.23150  Biso   1.000  C
  H182     1.0000 0.71400  0.95510  0.23510  Biso   1.000  H
  C291     1.0000 0.71073  0.81580  0.18760  Biso   1.000  C
  H183     1.0000 0.73350  0.81650  0.16440  Biso   1.000  H
  C292     1.0000 0.79309  0.45540  0.83630  Biso   1.000  C
  H184     1.0000 0.79920  0.51100  0.80430  Biso   1.000  H
  C293     1.0000 0.73431  0.60960  0.12280  Biso   1.000  C
  H185     1.0000 0.75200  0.64160  0.15370  Biso   1.000  H
  C294     1.0000 0.64760  0.95040  0.03290  Biso   1.000  C
  H186     1.0000 0.66740  0.94370  0.99820  Biso   1.000  H
  C295     1.0000 0.61053  0.04940  0.12250  Biso   1.000  C
  H187     1.0000 0.60550  0.11040  0.14810  Biso   1.000  H
  C296     1.0000 0.90870  0.31680  0.76150  Biso   1.000  C
  H188     1.0000 0.92640  0.27030  0.77360  Biso   1.000  H
  C297     1.0000 0.67025  0.20200  0.11040  Biso   1.000  C
  H189     1.0000 0.66170  0.19450  0.16460  Biso   1.000  H
  C298     1.0000 0.71774  0.47500  0.03310  Biso   1.000  C
  C299     1.0000 0.69070  0.28440  0.09100  Biso   1.000  C
  H190     1.0000 0.69600  0.33140  0.13220  Biso   1.000  H
  C300     1.0000 0.95190  0.40820  0.66920  Biso   1.000  C
  C301     1.0000 0.57140  0.78740  0.11290  Biso   1.000  C
  C302     1.0000 0.65730  0.73510  0.21810  Biso   1.000  C
  H191     1.0000 0.64260  0.67910  0.21440  Biso   1.000  H
  C303     1.0000 0.66650  0.89990  0.26990  Biso   1.000  C
  C304     1.0000 0.67494  0.14220  0.97150  Biso   1.000  C
  H192     1.0000 0.66980  0.09500  0.93050  Biso   1.000  H
  C305     1.0000 0.87571  0.30950  0.79890  Biso   1.000  C
  H193     1.0000 0.87120  0.25580  0.83440  Biso   1.000  H
  C306     1.0000 0.64590  0.81470  0.26320  Biso   1.000  C
  H194     1.0000 0.62390  0.81190  0.28990  Biso   1.000  H
  C307     1.0000 0.68213  0.51430  0.03270  Biso   1.000  C
  H195     1.0000 0.66420  0.48290  0.00230  Biso   1.000  H
  C308     1.0000 0.67538  0.59700  0.07690  Biso   1.000  C
  H196     1.0000 0.65230  0.62280  0.07490  Biso   1.000  H
  C309     1.0000 0.88910  0.46050  0.68930  Biso   1.000  C
  H197     1.0000 0.89270  0.51180  0.65080  Biso   1.000  H
  C310     1.0000 0.65590  0.99260  0.31450  Biso   1.000  C
  C311     1.0000 0.74298  0.52630  0.07590  Biso   1.000  C
  H198     1.0000 0.76660  0.50510  0.07360  Biso   1.000  H
  C312     1.0000 0.85677  0.45090  0.73080  Biso   1.000  C
  H199     1.0000 0.83890  0.49770  0.72000  Biso   1.000  H
  O43      1.0000 0.58101  0.70180  0.09060  Biso   1.000  O
  O44      1.0000 0.54177  0.80160  0.15110  Biso   1.000  O
  O45      1.0000 0.95701  0.48380  0.62240  Biso   1.000  O
  O46      1.0000 0.97527  0.34110  0.68110  Biso   1.000  O
  O47      1.0000 0.62462  0.97630  0.35250  Biso   1.000  O
  H200     1.0000 0.61800  0.02800  0.37550  Biso   1.000  H
  O48      1.0000 0.67116  0.06820  0.31730  Biso   1.000  O
  N8       1.0000 0.72443  0.38320  0.98940  Biso   1.000  N
