data_image0
_cell_length_a       10.1565
_cell_length_b       37.9051
_cell_length_c       41.2175
_cell_angle_alpha    90
_cell_angle_beta     99.894
_cell_angle_gamma    90

_symmetry_space_group_name_H-M    "P 1"
_symmetry_int_tables_number       1

loop_
  _symmetry_equiv_pos_as_xyz
  'x, y, z'

loop_
  _atom_site_label
  _atom_site_occupancy
  _atom_site_fract_x
  _atom_site_fract_y
  _atom_site_fract_z
  _atom_site_thermal_displace_type
  _atom_site_B_iso_or_equiv
  _atom_site_type_symbol
  Mn1      1.0000 0.84924  0.33299  0.29257  Biso   1.000  Mn
  Mn2      1.0000 0.52712  0.37998  0.28139  Biso   1.000  Mn
  Mn3      1.0000 0.92424  0.89928  0.22683  Biso   1.000  Mn
  O1       1.0000 0.64750  0.33280  0.26850  Biso   1.000  O
  O2       1.0000 0.50150  0.35630  0.22920  Biso   1.000  O
  O3       1.0000 0.17250  0.12340  0.82026  Biso   1.000  O
  O4       1.0000 0.80890  0.94407  0.21492  Biso   1.000  O
  O5       1.0000 0.92580  0.32630  0.24646  Biso   1.000  O
  O6       1.0000 0.31570  0.91540  0.22349  Biso   1.000  O
  O7       1.0000 0.11190  0.88870  0.21321  Biso   1.000  O
  O8       1.0000 0.11800  0.35600  0.24500  Biso   1.000  O
  O9       1.0000 0.05160  0.17270  0.81856  Biso   1.000  O
  O10      1.0000 0.58320  0.12690  0.83212  Biso   1.000  O
  O11      1.0000 0.78550  0.15100  0.83710  Biso   1.000  O
  O12      1.0000 0.61710  0.91874  0.22168  Biso   1.000  O
  N1       1.0000 0.76630  0.13290  0.09520  Biso   1.000  N
  N2       1.0000 0.23870  0.14680  0.07840  Biso   1.000  N
  C1       1.0000 0.58420  0.28010  0.16210  Biso   1.000  C
  H1       1.0000 0.55800  0.28250  0.13950  Biso   1.000  H
  C2       1.0000 0.72800  0.19590  0.10300  Biso   1.000  C
  H2       1.0000 0.75380  0.20130  0.08300  Biso   1.000  H
  C3       1.0000 0.41570  0.10170  0.09080  Biso   1.000  C
  H3       1.0000 0.45630  0.11140  0.07430  Biso   1.000  H
  C4       1.0000 0.70220  0.13650  0.88510  Biso   1.000  C
  C5       1.0000 0.30050  0.11530  0.09660  Biso   1.000  C
  C6       1.0000 0.65720  0.21660  0.15170  Biso   1.000  C
  C7       1.0000 0.16210  0.18210  0.92000  Biso   1.000  C
  H4       1.0000 0.14770  0.20300  0.93060  Biso   1.000  H
  C8       1.0000 0.72820  0.16040  0.11350  Biso   1.000  C
  C9       1.0000 0.73700  0.13680  0.99090  Biso   1.000  C
  C10      1.0000 0.64810  0.27070  0.22980  Biso   1.000  C
  H5       1.0000 0.67120  0.26770  0.25240  Biso   1.000  H
  C11      1.0000 0.95640  0.04250  0.14550  Biso   1.000  C
  C12      1.0000 0.98620  0.97730  0.15090  Biso   1.000  C
  H6       1.0000 0.92880  0.97520  0.13090  Biso   1.000  H
  C13      1.0000 0.99940  0.25740  0.17430  Biso   1.000  C
  H7       1.0000 0.93370  0.24150  0.16510  Biso   1.000  H
  C14      1.0000 0.75890  0.13590  0.06140  Biso   1.000  C
  C15      1.0000 0.20850  0.15100  0.93970  Biso   1.000  C
  C16      1.0000 0.41820  0.05870  0.13370  Biso   1.000  C
  C17      1.0000 0.58080  0.33330  0.23780  Biso   1.000  C
  C18      1.0000 0.60510  0.30380  0.21650  Biso   1.000  C
  C19      1.0000 0.21860  0.12050  0.88820  Biso   1.000  C
  H8       1.0000 0.24320  0.10040  0.87780  Biso   1.000  H
  C20      1.0000 0.14030  0.18110  0.88760  Biso   1.000  C
  H9       1.0000 0.10940  0.20150  0.87620  Biso   1.000  H
  C21      1.0000 0.16140  0.15050  0.86890  Biso   1.000  C
  C22      1.0000 0.65560  0.24260  0.20870  Biso   1.000  C
  H10      1.0000 0.67600  0.22030  0.21770  Biso   1.000  H
  C23      1.0000 0.20720  0.11970  0.99260  Biso   1.000  C
  H11      1.0000 0.18830  0.09880  0.98090  Biso   1.000  H
  C24      1.0000 0.09160  0.19360  0.09350  Biso   1.000  C
  H12      1.0000 0.02670  0.18660  0.07600  Biso   1.000  H
  C25      1.0000 0.64710  0.18140  0.16320  Biso   1.000  C
  H13      1.0000 0.62040  0.17710  0.18330  Biso   1.000  H
  C26      1.0000 0.83030  0.10160  0.11350  Biso   1.000  C
  C27      1.0000 0.23650  0.14810  0.04500  Biso   1.000  C
  C28      1.0000 0.28930  0.21420  0.14640  Biso   1.000  C
  H14      1.0000 0.35360  0.22060  0.16430  Biso   1.000  H
  C29      1.0000 0.24560  0.18010  0.02870  Biso   1.000  C
  H15      1.0000 0.25570  0.20080  0.04090  Biso   1.000  H
  C30      1.0000 0.61350  0.97260  0.19160  Biso   1.000  C
  C31      1.0000 0.67750  0.15430  0.14420  Biso   1.000  C
  H16      1.0000 0.66560  0.13130  0.15080  Biso   1.000  H
  C32      1.0000 0.16680  0.98460  0.20900  Biso   1.000  C
  H17      1.0000 0.22750  0.98800  0.22840  Biso   1.000  H
  C33      1.0000 0.24000  0.18200  0.99400  Biso   1.000  C
  H18      1.0000 0.24750  0.20370  0.98390  Biso   1.000  H
  C34      1.0000 0.21760  0.11850  0.02500  Biso   1.000  C
  H19      1.0000 0.21190  0.09660  0.03490  Biso   1.000  H
  C35      1.0000 0.69100  0.22230  0.12170  Biso   1.000  C
  H20      1.0000 0.68850  0.24530  0.11360  Biso   1.000  H
  C36      1.0000 0.69400  0.13840  0.84860  Biso   1.000  C
  C37      1.0000 0.10780  0.01170  0.19180  Biso   1.000  C
  H21      1.0000 0.13060  0.03410  0.20000  Biso   1.000  H
  C38      1.0000 0.59020  0.13390  0.90090  Biso   1.000  C
  H22      1.0000 0.50560  0.13250  0.88810  Biso   1.000  H
  C39      1.0000 0.85930  0.12470  0.04510  Biso   1.000  C
  H23      1.0000 0.93760  0.11610  0.05770  Biso   1.000  H
  C40      1.0000 0.23170  0.10060  0.11960  Biso   1.000  C
  H24      1.0000 0.14900  0.10920  0.12270  Biso   1.000  H
  C41      1.0000 0.85150  0.12530  0.01160  Biso   1.000  C
  H25      1.0000 0.92450  0.11790  0.00250  Biso   1.000  H
  C42      1.0000 0.63380  0.24630  0.17460  Biso   1.000  C
  C43      1.0000 0.22280  0.15040  0.97480  Biso   1.000  C
  C44      1.0000 0.88030  0.04060  0.11410  Biso   1.000  C
  H26      1.0000 0.86900  0.01870  0.10380  Biso   1.000  H
  C45      1.0000 0.96200  0.07520  0.16010  Biso   1.000  C
  H27      1.0000 0.00340  0.07700  0.18190  Biso   1.000  H
  C46      1.0000 0.48580  0.02800  0.15310  Biso   1.000  C
  C47      1.0000 0.82500  0.14170  0.90620  Biso   1.000  C
  H28      1.0000 0.90100  0.14590  0.89700  Biso   1.000  H
  C48      1.0000 0.03800  0.94640  0.16730  Biso   1.000  C
  H29      1.0000 0.01010  0.92430  0.15900  Biso   1.000  H
  C49      1.0000 0.83720  0.14090  0.93970  Biso   1.000  C
  H30      1.0000 0.92150  0.14230  0.95270  Biso   1.000  H
  C50      1.0000 0.72250  0.13790  0.95490  Biso   1.000  C
  C51      1.0000 0.03440  0.33180  0.23750  Biso   1.000  C
  C52      1.0000 0.82230  0.06900  0.09810  Biso   1.000  C
  H31      1.0000 0.77680  0.06680  0.07660  Biso   1.000  H
  C53      1.0000 0.60180  0.13330  0.93560  Biso   1.000  C
  H32      1.0000 0.52630  0.12970  0.94520  Biso   1.000  H
  C54      1.0000 0.18860  0.30590  0.20000  Biso   1.000  C
  H33      1.0000 0.24810  0.32400  0.20740  Biso   1.000  H
  C55      1.0000 0.57330  0.30830  0.18120  Biso   1.000  C
  H34      1.0000 0.54630  0.33010  0.17200  Biso   1.000  H
  C56      1.0000 0.12700  0.25700  0.16420  Biso   1.000  C
  C57      1.0000 0.61890  0.02920  0.16380  Biso   1.000  C
  H35      1.0000 0.66700  0.04860  0.15840  Biso   1.000  H
  C58      1.0000 0.06100  0.30510  0.21170  Biso   1.000  C
  C59      1.0000 0.31290  0.18820  0.12390  Biso   1.000  C
  H36      1.0000 0.39750  0.17810  0.12620  Biso   1.000  H
  C60      1.0000 0.06500  0.21950  0.11350  Biso   1.000  C
  H37      1.0000 0.98210  0.23060  0.10990  Biso   1.000  H
  C61      1.0000 0.23670  0.12200  0.92330  Biso   1.000  C
  H38      1.0000 0.26940  0.10220  0.93530  Biso   1.000  H
  C62      1.0000 0.90980  0.10610  0.14420  Biso   1.000  C
  H39      1.0000 0.92720  0.12830  0.15360  Biso   1.000  H
  C63      1.0000 0.64160  0.14910  0.04200  Biso   1.000  C
  H40      1.0000 0.57230  0.15790  0.05170  Biso   1.000  H
  C64      1.0000 0.41330  0.00090  0.16030  Biso   1.000  C
  H41      1.0000 0.32200  0.00000  0.15230  Biso   1.000  H
  C65      1.0000 0.16350  0.22980  0.14010  Biso   1.000  C
  C66      1.0000 0.97280  0.28130  0.19770  Biso   1.000  C
  H42      1.0000 0.88910  0.28070  0.20390  Biso   1.000  H
  C67      1.0000 0.21580  0.17700  0.09890  Biso   1.000  C
  C68      1.0000 0.29490  0.07130  0.13850  Biso   1.000  C
  H43      1.0000 0.25230  0.06080  0.15420  Biso   1.000  H
  C69      1.0000 0.47530  0.07360  0.10870  Biso   1.000  C
  H44      1.0000 0.55500  0.06460  0.10400  Biso   1.000  H
  C70      1.0000 0.22550  0.28180  0.17910  Biso   1.000  C
  H45      1.0000 0.31200  0.28140  0.17460  Biso   1.000  H
  C71      1.0000 0.19500  0.91640  0.21310  Biso   1.000  C
  C72      1.0000 0.01670  0.00980  0.16320  Biso   1.000  C
  C73      1.0000 0.68720  0.00180  0.18320  Biso   1.000  C
  H46      1.0000 0.77910  0.00300  0.19020  Biso   1.000  H
  C74      1.0000 0.68310  0.94390  0.21100  Biso   1.000  C
  C75      1.0000 0.12800  0.14840  0.83500  Biso   1.000  C
  C76      1.0000 0.13220  0.94960  0.19610  Biso   1.000  C
  C77      1.0000 0.47830  0.97260  0.18090  Biso   1.000  C
  H47      1.0000 0.42700  0.95420  0.18680  Biso   1.000  H
  C78      1.0000 0.63130  0.14860  0.00750  Biso   1.000  C
  H48      1.0000 0.55210  0.15640  0.99480  Biso   1.000  H
  O13      1.0000 0.35760  0.34360  0.28499  Biso   1.000  O
  H49      1.0000 0.35600  0.35100  0.27300  Biso   1.000  H
  Mn4      1.0000 0.15076  0.83299  0.20743  Biso   1.000  Mn
  Mn5      1.0000 0.47288  0.87998  0.21861  Biso   1.000  Mn
  Mn6      1.0000 0.07576  0.39928  0.27317  Biso   1.000  Mn
  O14      1.0000 0.35250  0.83280  0.23150  Biso   1.000  O
  O15      1.0000 0.49850  0.85630  0.27080  Biso   1.000  O
  O16      1.0000 0.82750  0.62340  0.67974  Biso   1.000  O
  O17      1.0000 0.19110  0.44407  0.28508  Biso   1.000  O
  O18      1.0000 0.07420  0.82630  0.25354  Biso   1.000  O
  O19      1.0000 0.68430  0.41540  0.27651  Biso   1.000  O
  O20      1.0000 0.88810  0.38870  0.28679  Biso   1.000  O
  O21      1.0000 0.88200  0.85600  0.25500  Biso   1.000  O
  O22      1.0000 0.94840  0.67270  0.68144  Biso   1.000  O
  O23      1.0000 0.41680  0.62690  0.66788  Biso   1.000  O
  O24      1.0000 0.21450  0.65100  0.66290  Biso   1.000  O
  O25      1.0000 0.38290  0.41874  0.27832  Biso   1.000  O
  N3       1.0000 0.23370  0.63290  0.40480  Biso   1.000  N
  N4       1.0000 0.76130  0.64680  0.42160  Biso   1.000  N
  C79      1.0000 0.41580  0.78010  0.33790  Biso   1.000  C
  H50      1.0000 0.44200  0.78250  0.36050  Biso   1.000  H
  C80      1.0000 0.27200  0.69590  0.39700  Biso   1.000  C
  H51      1.0000 0.24620  0.70130  0.41700  Biso   1.000  H
  C81      1.0000 0.58430  0.60170  0.40920  Biso   1.000  C
  H52      1.0000 0.54370  0.61140  0.42570  Biso   1.000  H
  C82      1.0000 0.29780  0.63650  0.61490  Biso   1.000  C
  C83      1.0000 0.69950  0.61530  0.40340  Biso   1.000  C
  C84      1.0000 0.34280  0.71660  0.34830  Biso   1.000  C
  C85      1.0000 0.83790  0.68210  0.58000  Biso   1.000  C
  H53      1.0000 0.85230  0.70300  0.56940  Biso   1.000  H
  C86      1.0000 0.27180  0.66040  0.38650  Biso   1.000  C
  C87      1.0000 0.26300  0.63680  0.50910  Biso   1.000  C
  C88      1.0000 0.35190  0.77070  0.27020  Biso   1.000  C
  H54      1.0000 0.32880  0.76770  0.24760  Biso   1.000  H
  C89      1.0000 0.04360  0.54250  0.35450  Biso   1.000  C
  C90      1.0000 0.01380  0.47730  0.34910  Biso   1.000  C
  H55      1.0000 0.07120  0.47520  0.36910  Biso   1.000  H
  C91      1.0000 0.00060  0.75740  0.32570  Biso   1.000  C
  H56      1.0000 0.06630  0.74150  0.33490  Biso   1.000  H
  C92      1.0000 0.24110  0.63590  0.43860  Biso   1.000  C
  C93      1.0000 0.79150  0.65100  0.56030  Biso   1.000  C
  C94      1.0000 0.58180  0.55870  0.36630  Biso   1.000  C
  C95      1.0000 0.41920  0.83330  0.26220  Biso   1.000  C
  C96      1.0000 0.39490  0.80380  0.28350  Biso   1.000  C
  C97      1.0000 0.78140  0.62050  0.61180  Biso   1.000  C
  H57      1.0000 0.75680  0.60040  0.62220  Biso   1.000  H
  C98      1.0000 0.85970  0.68110  0.61240  Biso   1.000  C
  H58      1.0000 0.89060  0.70150  0.62380  Biso   1.000  H
  C99      1.0000 0.83860  0.65050  0.63110  Biso   1.000  C
  C100     1.0000 0.34440  0.74260  0.29130  Biso   1.000  C
  H59      1.0000 0.32400  0.72030  0.28230  Biso   1.000  H
  C101     1.0000 0.79280  0.61970  0.50740  Biso   1.000  C
  H60      1.0000 0.81170  0.59880  0.51910  Biso   1.000  H
  C102     1.0000 0.90840  0.69360  0.40650  Biso   1.000  C
  H61      1.0000 0.97330  0.68660  0.42400  Biso   1.000  H
  C103     1.0000 0.35290  0.68140  0.33680  Biso   1.000  C
  H62      1.0000 0.37960  0.67710  0.31670  Biso   1.000  H
  C104     1.0000 0.16970  0.60160  0.38650  Biso   1.000  C
  C105     1.0000 0.76350  0.64810  0.45500  Biso   1.000  C
  C106     1.0000 0.71070  0.71420  0.35360  Biso   1.000  C
  H63      1.0000 0.64640  0.72060  0.33570  Biso   1.000  H
  C107     1.0000 0.75440  0.68010  0.47130  Biso   1.000  C
  H64      1.0000 0.74430  0.70080  0.45910  Biso   1.000  H
  C108     1.0000 0.38650  0.47260  0.30840  Biso   1.000  C
  C109     1.0000 0.32250  0.65430  0.35580  Biso   1.000  C
  H65      1.0000 0.33440  0.63130  0.34920  Biso   1.000  H
  C110     1.0000 0.83320  0.48460  0.29100  Biso   1.000  C
  H66      1.0000 0.77250  0.48800  0.27160  Biso   1.000  H
  C111     1.0000 0.76000  0.68200  0.50600  Biso   1.000  C
  H67      1.0000 0.75250  0.70370  0.51610  Biso   1.000  H
  C112     1.0000 0.78240  0.61850  0.47500  Biso   1.000  C
  H68      1.0000 0.78810  0.59660  0.46510  Biso   1.000  H
  C113     1.0000 0.30900  0.72230  0.37830  Biso   1.000  C
  H69      1.0000 0.31150  0.74530  0.38640  Biso   1.000  H
  C114     1.0000 0.30600  0.63840  0.65140  Biso   1.000  C
  C115     1.0000 0.89220  0.51170  0.30820  Biso   1.000  C
  H70      1.0000 0.86940  0.53410  0.30000  Biso   1.000  H
  C116     1.0000 0.40980  0.63390  0.59910  Biso   1.000  C
  H71      1.0000 0.49440  0.63250  0.61190  Biso   1.000  H
  C117     1.0000 0.14070  0.62470  0.45490  Biso   1.000  C
  H72      1.0000 0.06240  0.61610  0.44230  Biso   1.000  H
  C118     1.0000 0.76830  0.60060  0.38040  Biso   1.000  C
  H73      1.0000 0.85100  0.60920  0.37730  Biso   1.000  H
  C119     1.0000 0.14850  0.62530  0.48840  Biso   1.000  C
  H74      1.0000 0.07550  0.61790  0.49750  Biso   1.000  H
  C120     1.0000 0.36620  0.74630  0.32540  Biso   1.000  C
  C121     1.0000 0.77720  0.65040  0.52520  Biso   1.000  C
  C122     1.0000 0.11970  0.54060  0.38590  Biso   1.000  C
  H75      1.0000 0.13100  0.51870  0.39620  Biso   1.000  H
  C123     1.0000 0.03800  0.57520  0.33990  Biso   1.000  C
  H76      1.0000 0.99660  0.57700  0.31810  Biso   1.000  H
  C124     1.0000 0.51420  0.52800  0.34690  Biso   1.000  C
  C125     1.0000 0.17500  0.64170  0.59380  Biso   1.000  C
  H77      1.0000 0.09900  0.64590  0.60300  Biso   1.000  H
  C126     1.0000 0.96200  0.44640  0.33270  Biso   1.000  C
  H78      1.0000 0.98990  0.42430  0.34100  Biso   1.000  H
  C127     1.0000 0.16280  0.64090  0.56030  Biso   1.000  C
  H79      1.0000 0.07850  0.64230  0.54730  Biso   1.000  H
  C128     1.0000 0.27750  0.63790  0.54510  Biso   1.000  C
  C129     1.0000 0.96560  0.83180  0.26250  Biso   1.000  C
  C130     1.0000 0.17770  0.56900  0.40190  Biso   1.000  C
  H80      1.0000 0.22320  0.56680  0.42340  Biso   1.000  H
  C131     1.0000 0.39820  0.63330  0.56440  Biso   1.000  C
  H81      1.0000 0.47370  0.62970  0.55480  Biso   1.000  H
  C132     1.0000 0.81140  0.80590  0.30000  Biso   1.000  C
  H82      1.0000 0.75190  0.82400  0.29260  Biso   1.000  H
  C133     1.0000 0.42670  0.80830  0.31880  Biso   1.000  C
  H83      1.0000 0.45370  0.83010  0.32800  Biso   1.000  H
  C134     1.0000 0.87300  0.75700  0.33580  Biso   1.000  C
  C135     1.0000 0.38110  0.52920  0.33620  Biso   1.000  C
  H84      1.0000 0.33300  0.54860  0.34160  Biso   1.000  H
  C136     1.0000 0.93900  0.80510  0.28830  Biso   1.000  C
  C137     1.0000 0.68710  0.68820  0.37610  Biso   1.000  C
  H85      1.0000 0.60250  0.67810  0.37380  Biso   1.000  H
  C138     1.0000 0.93500  0.71950  0.38650  Biso   1.000  C
  H86      1.0000 0.01790  0.73060  0.39010  Biso   1.000  H
  C139     1.0000 0.76330  0.62200  0.57670  Biso   1.000  C
  H87      1.0000 0.73060  0.60220  0.56470  Biso   1.000  H
  C140     1.0000 0.09020  0.60610  0.35580  Biso   1.000  C
  H88      1.0000 0.07280  0.62830  0.34640  Biso   1.000  H
  C141     1.0000 0.35840  0.64910  0.45800  Biso   1.000  C
  H89      1.0000 0.42770  0.65790  0.44830  Biso   1.000  H
  C142     1.0000 0.58670  0.50090  0.33970  Biso   1.000  C
  H90      1.0000 0.67800  0.50000  0.34770  Biso   1.000  H
  C143     1.0000 0.83650  0.72980  0.35990  Biso   1.000  C
  C144     1.0000 0.02720  0.78130  0.30230  Biso   1.000  C
  H91      1.0000 0.11090  0.78070  0.29610  Biso   1.000  H
  C145     1.0000 0.78420  0.67700  0.40110  Biso   1.000  C
  C146     1.0000 0.70510  0.57130  0.36150  Biso   1.000  C
  H92      1.0000 0.74770  0.56080  0.34580  Biso   1.000  H
  C147     1.0000 0.52470  0.57360  0.39130  Biso   1.000  C
  H93      1.0000 0.44500  0.56460  0.39600  Biso   1.000  H
  C148     1.0000 0.77450  0.78180  0.32090  Biso   1.000  C
  H94      1.0000 0.68800  0.78140  0.32540  Biso   1.000  H
  C149     1.0000 0.80500  0.41640  0.28690  Biso   1.000  C
  C150     1.0000 0.98330  0.50980  0.33680  Biso   1.000  C
  C151     1.0000 0.31280  0.50180  0.31680  Biso   1.000  C
  H95      1.0000 0.22090  0.50300  0.30980  Biso   1.000  H
  C152     1.0000 0.31690  0.44390  0.28900  Biso   1.000  C
  C153     1.0000 0.87200  0.64840  0.66500  Biso   1.000  C
  C154     1.0000 0.86780  0.44960  0.30390  Biso   1.000  C
  C155     1.0000 0.52170  0.47260  0.31910  Biso   1.000  C
  H96      1.0000 0.57300  0.45420  0.31320  Biso   1.000  H
  C156     1.0000 0.36870  0.64860  0.49250  Biso   1.000  C
  H97      1.0000 0.44790  0.65640  0.50520  Biso   1.000  H
  O26      1.0000 0.64240  0.84360  0.21501  Biso   1.000  O
  H98      1.0000 0.64400  0.85100  0.22700  Biso   1.000  H
  Mn7      1.0000 0.15076  0.66701  0.70743  Biso   1.000  Mn
  Mn8      1.0000 0.47288  0.62002  0.71861  Biso   1.000  Mn
  Mn9      1.0000 0.07576  0.10072  0.77317  Biso   1.000  Mn
  O27      1.0000 0.35250  0.66720  0.73150  Biso   1.000  O
  O28      1.0000 0.49850  0.64370  0.77080  Biso   1.000  O
  O29      1.0000 0.82750  0.87660  0.17974  Biso   1.000  O
  O30      1.0000 0.19110  0.05593  0.78508  Biso   1.000  O
  O31      1.0000 0.07420  0.67370  0.75354  Biso   1.000  O
  O32      1.0000 0.68430  0.08460  0.77651  Biso   1.000  O
  O33      1.0000 0.88810  0.11130  0.78679  Biso   1.000  O
  O34      1.0000 0.88200  0.64400  0.75500  Biso   1.000  O
  O35      1.0000 0.94840  0.82730  0.18144  Biso   1.000  O
  O36      1.0000 0.41680  0.87310  0.16788  Biso   1.000  O
  O37      1.0000 0.21450  0.84900  0.16290  Biso   1.000  O
  O38      1.0000 0.38290  0.08126  0.77832  Biso   1.000  O
  N5       1.0000 0.23370  0.86710  0.90480  Biso   1.000  N
  N6       1.0000 0.76130  0.85320  0.92160  Biso   1.000  N
  C157     1.0000 0.41580  0.71990  0.83790  Biso   1.000  C
  H99      1.0000 0.44200  0.71750  0.86050  Biso   1.000  H
  C158     1.0000 0.27200  0.80410  0.89700  Biso   1.000  C
  H100     1.0000 0.24620  0.79870  0.91700  Biso   1.000  H
  C159     1.0000 0.58430  0.89830  0.90920  Biso   1.000  C
  H101     1.0000 0.54370  0.88860  0.92570  Biso   1.000  H
  C160     1.0000 0.29780  0.86350  0.11490  Biso   1.000  C
  C161     1.0000 0.69950  0.88470  0.90340  Biso   1.000  C
  C162     1.0000 0.34280  0.78340  0.84830  Biso   1.000  C
  C163     1.0000 0.83790  0.81790  0.08000  Biso   1.000  C
  H102     1.0000 0.85230  0.79700  0.06940  Biso   1.000  H
  C164     1.0000 0.27180  0.83960  0.88650  Biso   1.000  C
  C165     1.0000 0.26300  0.86320  0.00910  Biso   1.000  C
  C166     1.0000 0.35190  0.72930  0.77020  Biso   1.000  C
  H103     1.0000 0.32880  0.73230  0.74760  Biso   1.000  H
  C167     1.0000 0.04360  0.95750  0.85450  Biso   1.000  C
  C168     1.0000 0.01380  0.02270  0.84910  Biso   1.000  C
  H104     1.0000 0.07120  0.02480  0.86910  Biso   1.000  H
  C169     1.0000 0.00060  0.74260  0.82570  Biso   1.000  C
  H105     1.0000 0.06630  0.75850  0.83490  Biso   1.000  H
  C170     1.0000 0.24110  0.86410  0.93860  Biso   1.000  C
  C171     1.0000 0.79150  0.84900  0.06030  Biso   1.000  C
  C172     1.0000 0.58180  0.94130  0.86630  Biso   1.000  C
  C173     1.0000 0.41920  0.66670  0.76220  Biso   1.000  C
  C174     1.0000 0.39490  0.69620  0.78350  Biso   1.000  C
  C175     1.0000 0.78140  0.87950  0.11180  Biso   1.000  C
  H106     1.0000 0.75680  0.89960  0.12220  Biso   1.000  H
  C176     1.0000 0.85970  0.81890  0.11240  Biso   1.000  C
  H107     1.0000 0.89060  0.79850  0.12380  Biso   1.000  H
  C177     1.0000 0.83860  0.84950  0.13110  Biso   1.000  C
  C178     1.0000 0.34440  0.75740  0.79130  Biso   1.000  C
  H108     1.0000 0.32400  0.77970  0.78230  Biso   1.000  H
  C179     1.0000 0.79280  0.88030  0.00740  Biso   1.000  C
  H109     1.0000 0.81170  0.90120  0.01910  Biso   1.000  H
  C180     1.0000 0.90840  0.80640  0.90650  Biso   1.000  C
  H110     1.0000 0.97330  0.81340  0.92400  Biso   1.000  H
  C181     1.0000 0.35290  0.81860  0.83680  Biso   1.000  C
  H111     1.0000 0.37960  0.82290  0.81670  Biso   1.000  H
  C182     1.0000 0.16970  0.89840  0.88650  Biso   1.000  C
  C183     1.0000 0.76350  0.85190  0.95500  Biso   1.000  C
  C184     1.0000 0.71070  0.78580  0.85360  Biso   1.000  C
  H112     1.0000 0.64640  0.77940  0.83570  Biso   1.000  H
  C185     1.0000 0.75440  0.81990  0.97130  Biso   1.000  C
  H113     1.0000 0.74430  0.79920  0.95910  Biso   1.000  H
  C186     1.0000 0.38650  0.02740  0.80840  Biso   1.000  C
  C187     1.0000 0.32250  0.84570  0.85580  Biso   1.000  C
  H114     1.0000 0.33440  0.86870  0.84920  Biso   1.000  H
  C188     1.0000 0.83320  0.01540  0.79100  Biso   1.000  C
  H115     1.0000 0.77250  0.01200  0.77160  Biso   1.000  H
  C189     1.0000 0.76000  0.81800  0.00600  Biso   1.000  C
  H116     1.0000 0.75250  0.79630  0.01610  Biso   1.000  H
  C190     1.0000 0.78240  0.88150  0.97500  Biso   1.000  C
  H117     1.0000 0.78810  0.90340  0.96510  Biso   1.000  H
  C191     1.0000 0.30900  0.77770  0.87830  Biso   1.000  C
  H118     1.0000 0.31150  0.75470  0.88640  Biso   1.000  H
  C192     1.0000 0.30600  0.86160  0.15140  Biso   1.000  C
  C193     1.0000 0.89220  0.98830  0.80820  Biso   1.000  C
  H119     1.0000 0.86940  0.96590  0.80000  Biso   1.000  H
  C194     1.0000 0.40980  0.86610  0.09910  Biso   1.000  C
  H120     1.0000 0.49440  0.86750  0.11190  Biso   1.000  H
  C195     1.0000 0.14070  0.87530  0.95490  Biso   1.000  C
  H121     1.0000 0.06240  0.88390  0.94230  Biso   1.000  H
  C196     1.0000 0.76830  0.89940  0.88040  Biso   1.000  C
  H122     1.0000 0.85100  0.89080  0.87730  Biso   1.000  H
  C197     1.0000 0.14850  0.87470  0.98840  Biso   1.000  C
  H123     1.0000 0.07550  0.88210  0.99750  Biso   1.000  H
  C198     1.0000 0.36620  0.75370  0.82540  Biso   1.000  C
  C199     1.0000 0.77720  0.84960  0.02520  Biso   1.000  C
  C200     1.0000 0.11970  0.95940  0.88590  Biso   1.000  C
  H124     1.0000 0.13100  0.98130  0.89620  Biso   1.000  H
  C201     1.0000 0.03800  0.92480  0.83990  Biso   1.000  C
  H125     1.0000 0.99660  0.92300  0.81810  Biso   1.000  H
  C202     1.0000 0.51420  0.97200  0.84690  Biso   1.000  C
  C203     1.0000 0.17500  0.85830  0.09380  Biso   1.000  C
  H126     1.0000 0.09900  0.85410  0.10300  Biso   1.000  H
  C204     1.0000 0.96200  0.05360  0.83270  Biso   1.000  C
  H127     1.0000 0.98990  0.07570  0.84100  Biso   1.000  H
  C205     1.0000 0.16280  0.85910  0.06030  Biso   1.000  C
  H128     1.0000 0.07850  0.85770  0.04730  Biso   1.000  H
  C206     1.0000 0.27750  0.86210  0.04510  Biso   1.000  C
  C207     1.0000 0.96560  0.66820  0.76250  Biso   1.000  C
  C208     1.0000 0.17770  0.93100  0.90190  Biso   1.000  C
  H129     1.0000 0.22320  0.93320  0.92340  Biso   1.000  H
  C209     1.0000 0.39820  0.86670  0.06440  Biso   1.000  C
  H130     1.0000 0.47370  0.87030  0.05480  Biso   1.000  H
  C210     1.0000 0.81140  0.69410  0.80000  Biso   1.000  C
  H131     1.0000 0.75190  0.67600  0.79260  Biso   1.000  H
  C211     1.0000 0.42670  0.69170  0.81880  Biso   1.000  C
  H132     1.0000 0.45370  0.66990  0.82800  Biso   1.000  H
  C212     1.0000 0.87300  0.74300  0.83580  Biso   1.000  C
  C213     1.0000 0.38110  0.97080  0.83620  Biso   1.000  C
  H133     1.0000 0.33300  0.95140  0.84160  Biso   1.000  H
  C214     1.0000 0.93900  0.69490  0.78830  Biso   1.000  C
  C215     1.0000 0.68710  0.81180  0.87610  Biso   1.000  C
  H134     1.0000 0.60250  0.82190  0.87380  Biso   1.000  H
  C216     1.0000 0.93500  0.78050  0.88650  Biso   1.000  C
  H135     1.0000 0.01790  0.76940  0.89010  Biso   1.000  H
  C217     1.0000 0.76330  0.87800  0.07670  Biso   1.000  C
  H136     1.0000 0.73060  0.89780  0.06470  Biso   1.000  H
  C218     1.0000 0.09020  0.89390  0.85580  Biso   1.000  C
  H137     1.0000 0.07280  0.87170  0.84640  Biso   1.000  H
  C219     1.0000 0.35840  0.85090  0.95800  Biso   1.000  C
  H138     1.0000 0.42770  0.84210  0.94830  Biso   1.000  H
  C220     1.0000 0.58670  0.99910  0.83970  Biso   1.000  C
  H139     1.0000 0.67800  0.00000  0.84770  Biso   1.000  H
  C221     1.0000 0.83650  0.77020  0.85990  Biso   1.000  C
  C222     1.0000 0.02720  0.71870  0.80230  Biso   1.000  C
  H140     1.0000 0.11090  0.71930  0.79610  Biso   1.000  H
  C223     1.0000 0.78420  0.82300  0.90110  Biso   1.000  C
  C224     1.0000 0.70510  0.92870  0.86150  Biso   1.000  C
  H141     1.0000 0.74770  0.93920  0.84580  Biso   1.000  H
  C225     1.0000 0.52470  0.92640  0.89130  Biso   1.000  C
  H142     1.0000 0.44500  0.93540  0.89600  Biso   1.000  H
  C226     1.0000 0.77450  0.71820  0.82090  Biso   1.000  C
  H143     1.0000 0.68800  0.71860  0.82540  Biso   1.000  H
  C227     1.0000 0.80500  0.08360  0.78690  Biso   1.000  C
  C228     1.0000 0.98330  0.99020  0.83680  Biso   1.000  C
  C229     1.0000 0.31280  0.99820  0.81680  Biso   1.000  C
  H144     1.0000 0.22090  0.99700  0.80980  Biso   1.000  H
  C230     1.0000 0.31690  0.05610  0.78900  Biso   1.000  C
  C231     1.0000 0.87200  0.85160  0.16500  Biso   1.000  C
  C232     1.0000 0.86780  0.05040  0.80390  Biso   1.000  C
  C233     1.0000 0.52170  0.02740  0.81910  Biso   1.000  C
  H145     1.0000 0.57300  0.04580  0.81320  Biso   1.000  H
  C234     1.0000 0.36870  0.85140  0.99250  Biso   1.000  C
  H146     1.0000 0.44790  0.84360  0.00520  Biso   1.000  H
  O39      1.0000 0.64240  0.65640  0.71501  Biso   1.000  O
  H147     1.0000 0.64400  0.64900  0.72700  Biso   1.000  H
  Mn10     1.0000 0.84924  0.16701  0.79257  Biso   1.000  Mn
  Mn11     1.0000 0.52712  0.12002  0.78139  Biso   1.000  Mn
  Mn12     1.0000 0.92424  0.60072  0.72683  Biso   1.000  Mn
  O40      1.0000 0.64750  0.16720  0.76850  Biso   1.000  O
  O41      1.0000 0.50150  0.14370  0.72920  Biso   1.000  O
  O42      1.0000 0.17250  0.37660  0.32026  Biso   1.000  O
  O43      1.0000 0.80890  0.55593  0.71492  Biso   1.000  O
  O44      1.0000 0.92580  0.17370  0.74646  Biso   1.000  O
  O45      1.0000 0.31570  0.58460  0.72349  Biso   1.000  O
  O46      1.0000 0.11190  0.61130  0.71321  Biso   1.000  O
  O47      1.0000 0.11800  0.14400  0.74500  Biso   1.000  O
  O48      1.0000 0.05160  0.32730  0.31856  Biso   1.000  O
  O49      1.0000 0.58320  0.37310  0.33212  Biso   1.000  O
  O50      1.0000 0.78550  0.34900  0.33710  Biso   1.000  O
  O51      1.0000 0.61710  0.58126  0.72168  Biso   1.000  O
  N7       1.0000 0.76630  0.36710  0.59520  Biso   1.000  N
  N8       1.0000 0.23870  0.35320  0.57840  Biso   1.000  N
  C235     1.0000 0.58420  0.21990  0.66210  Biso   1.000  C
  H148     1.0000 0.55800  0.21750  0.63950  Biso   1.000  H
  C236     1.0000 0.72800  0.30410  0.60300  Biso   1.000  C
  H149     1.0000 0.75380  0.29870  0.58300  Biso   1.000  H
  C237     1.0000 0.41570  0.39830  0.59080  Biso   1.000  C
  H150     1.0000 0.45630  0.38860  0.57430  Biso   1.000  H
  C238     1.0000 0.70220  0.36350  0.38510  Biso   1.000  C
  C239     1.0000 0.30050  0.38470  0.59660  Biso   1.000  C
  C240     1.0000 0.65720  0.28340  0.65170  Biso   1.000  C
  C241     1.0000 0.16210  0.31790  0.42000  Biso   1.000  C
  H151     1.0000 0.14770  0.29700  0.43060  Biso   1.000  H
  C242     1.0000 0.72820  0.33960  0.61350  Biso   1.000  C
  C243     1.0000 0.73700  0.36320  0.49090  Biso   1.000  C
  C244     1.0000 0.64810  0.22930  0.72980  Biso   1.000  C
  H152     1.0000 0.67120  0.23230  0.75240  Biso   1.000  H
  C245     1.0000 0.95640  0.45750  0.64550  Biso   1.000  C
  C246     1.0000 0.98620  0.52270  0.65090  Biso   1.000  C
  H153     1.0000 0.92880  0.52480  0.63090  Biso   1.000  H
  C247     1.0000 0.99940  0.24260  0.67430  Biso   1.000  C
  H154     1.0000 0.93370  0.25850  0.66510  Biso   1.000  H
  C248     1.0000 0.75890  0.36410  0.56140  Biso   1.000  C
  C249     1.0000 0.20850  0.34900  0.43970  Biso   1.000  C
  C250     1.0000 0.41820  0.44130  0.63370  Biso   1.000  C
  C251     1.0000 0.58080  0.16670  0.73780  Biso   1.000  C
  C252     1.0000 0.60510  0.19620  0.71650  Biso   1.000  C
  C253     1.0000 0.21860  0.37950  0.38820  Biso   1.000  C
  H155     1.0000 0.24320  0.39960  0.37780  Biso   1.000  H
  C254     1.0000 0.14030  0.31890  0.38760  Biso   1.000  C
  H156     1.0000 0.10940  0.29850  0.37620  Biso   1.000  H
  C255     1.0000 0.16140  0.34950  0.36890  Biso   1.000  C
  C256     1.0000 0.65560  0.25740  0.70870  Biso   1.000  C
  H157     1.0000 0.67600  0.27970  0.71770  Biso   1.000  H
  C257     1.0000 0.20720  0.38030  0.49260  Biso   1.000  C
  H158     1.0000 0.18830  0.40120  0.48090  Biso   1.000  H
  C258     1.0000 0.09160  0.30640  0.59350  Biso   1.000  C
  H159     1.0000 0.02670  0.31340  0.57600  Biso   1.000  H
  C259     1.0000 0.64710  0.31860  0.66320  Biso   1.000  C
  H160     1.0000 0.62040  0.32290  0.68330  Biso   1.000  H
  C260     1.0000 0.83030  0.39840  0.61350  Biso   1.000  C
  C261     1.0000 0.23650  0.35190  0.54500  Biso   1.000  C
  C262     1.0000 0.28930  0.28580  0.64640  Biso   1.000  C
  H161     1.0000 0.35360  0.27940  0.66430  Biso   1.000  H
  C263     1.0000 0.24560  0.31990  0.52870  Biso   1.000  C
  H162     1.0000 0.25570  0.29920  0.54090  Biso   1.000  H
  C264     1.0000 0.61350  0.52740  0.69160  Biso   1.000  C
  C265     1.0000 0.67750  0.34570  0.64420  Biso   1.000  C
  H163     1.0000 0.66560  0.36870  0.65080  Biso   1.000  H
  C266     1.0000 0.16680  0.51540  0.70900  Biso   1.000  C
  H164     1.0000 0.22750  0.51200  0.72840  Biso   1.000  H
  C267     1.0000 0.24000  0.31800  0.49400  Biso   1.000  C
  H165     1.0000 0.24750  0.29630  0.48390  Biso   1.000  H
  C268     1.0000 0.21760  0.38150  0.52500  Biso   1.000  C
  H166     1.0000 0.21190  0.40340  0.53490  Biso   1.000  H
  C269     1.0000 0.69100  0.27770  0.62170  Biso   1.000  C
  H167     1.0000 0.68850  0.25470  0.61360  Biso   1.000  H
  C270     1.0000 0.69400  0.36160  0.34860  Biso   1.000  C
  C271     1.0000 0.10780  0.48830  0.69180  Biso   1.000  C
  H168     1.0000 0.13060  0.46590  0.70000  Biso   1.000  H
  C272     1.0000 0.59020  0.36610  0.40090  Biso   1.000  C
  H169     1.0000 0.50560  0.36750  0.38810  Biso   1.000  H
  C273     1.0000 0.85930  0.37530  0.54510  Biso   1.000  C
  H170     1.0000 0.93760  0.38390  0.55770  Biso   1.000  H
  C274     1.0000 0.23170  0.39940  0.61960  Biso   1.000  C
  H171     1.0000 0.14900  0.39080  0.62270  Biso   1.000  H
  C275     1.0000 0.85150  0.37470  0.51160  Biso   1.000  C
  H172     1.0000 0.92450  0.38210  0.50250  Biso   1.000  H
  C276     1.0000 0.63380  0.25370  0.67460  Biso   1.000  C
  C277     1.0000 0.22280  0.34960  0.47480  Biso   1.000  C
  C278     1.0000 0.88030  0.45940  0.61410  Biso   1.000  C
  H173     1.0000 0.86900  0.48130  0.60380  Biso   1.000  H
  C279     1.0000 0.96200  0.42480  0.66010  Biso   1.000  C
  H174     1.0000 0.00340  0.42300  0.68190  Biso   1.000  H
  C280     1.0000 0.48580  0.47200  0.65310  Biso   1.000  C
  C281     1.0000 0.82500  0.35830  0.40620  Biso   1.000  C
  H175     1.0000 0.90100  0.35410  0.39700  Biso   1.000  H
  C282     1.0000 0.03800  0.55360  0.66730  Biso   1.000  C
  H176     1.0000 0.01010  0.57570  0.65900  Biso   1.000  H
  C283     1.0000 0.83720  0.35910  0.43970  Biso   1.000  C
  H177     1.0000 0.92150  0.35770  0.45270  Biso   1.000  H
  C284     1.0000 0.72250  0.36210  0.45490  Biso   1.000  C
  C285     1.0000 0.03440  0.16820  0.73750  Biso   1.000  C
  C286     1.0000 0.82230  0.43100  0.59810  Biso   1.000  C
  H178     1.0000 0.77680  0.43320  0.57660  Biso   1.000  H
  C287     1.0000 0.60180  0.36670  0.43560  Biso   1.000  C
  H179     1.0000 0.52630  0.37030  0.44520  Biso   1.000  H
  C288     1.0000 0.18860  0.19410  0.70000  Biso   1.000  C
  H180     1.0000 0.24810  0.17600  0.70740  Biso   1.000  H
  C289     1.0000 0.57330  0.19170  0.68120  Biso   1.000  C
  H181     1.0000 0.54630  0.16990  0.67200  Biso   1.000  H
  C290     1.0000 0.12700  0.24300  0.66420  Biso   1.000  C
  C291     1.0000 0.61890  0.47080  0.66380  Biso   1.000  C
  H182     1.0000 0.66700  0.45140  0.65840  Biso   1.000  H
  C292     1.0000 0.06100  0.19490  0.71170  Biso   1.000  C
  C293     1.0000 0.31290  0.31180  0.62390  Biso   1.000  C
  H183     1.0000 0.39750  0.32190  0.62620  Biso   1.000  H
  C294     1.0000 0.06500  0.28050  0.61350  Biso   1.000  C
  H184     1.0000 0.98210  0.26940  0.60990  Biso   1.000  H
  C295     1.0000 0.23670  0.37800  0.42330  Biso   1.000  C
  H185     1.0000 0.26940  0.39780  0.43530  Biso   1.000  H
  C296     1.0000 0.90980  0.39390  0.64420  Biso   1.000  C
  H186     1.0000 0.92720  0.37170  0.65360  Biso   1.000  H
  C297     1.0000 0.64160  0.35090  0.54200  Biso   1.000  C
  H187     1.0000 0.57230  0.34210  0.55170  Biso   1.000  H
  C298     1.0000 0.41330  0.49910  0.66030  Biso   1.000  C
  H188     1.0000 0.32200  0.50000  0.65230  Biso   1.000  H
  C299     1.0000 0.16350  0.27020  0.64010  Biso   1.000  C
  C300     1.0000 0.97280  0.21870  0.69770  Biso   1.000  C
  H189     1.0000 0.88910  0.21930  0.70390  Biso   1.000  H
  C301     1.0000 0.21580  0.32300  0.59890  Biso   1.000  C
  C302     1.0000 0.29490  0.42870  0.63850  Biso   1.000  C
  H190     1.0000 0.25230  0.43920  0.65420  Biso   1.000  H
  C303     1.0000 0.47530  0.42640  0.60870  Biso   1.000  C
  H191     1.0000 0.55500  0.43540  0.60400  Biso   1.000  H
  C304     1.0000 0.22550  0.21820  0.67910  Biso   1.000  C
  H192     1.0000 0.31200  0.21860  0.67460  Biso   1.000  H
  C305     1.0000 0.19500  0.58360  0.71310  Biso   1.000  C
  C306     1.0000 0.01670  0.49020  0.66320  Biso   1.000  C
  C307     1.0000 0.68720  0.49820  0.68320  Biso   1.000  C
  H193     1.0000 0.77910  0.49700  0.69020  Biso   1.000  H
  C308     1.0000 0.68310  0.55610  0.71100  Biso   1.000  C
  C309     1.0000 0.12800  0.35160  0.33500  Biso   1.000  C
  C310     1.0000 0.13220  0.55040  0.69610  Biso   1.000  C
  C311     1.0000 0.47830  0.52740  0.68090  Biso   1.000  C
  H194     1.0000 0.42700  0.54580  0.68680  Biso   1.000  H
  C312     1.0000 0.63130  0.35140  0.50750  Biso   1.000  C
  H195     1.0000 0.55210  0.34360  0.49480  Biso   1.000  H
  O52      1.0000 0.35760  0.15640  0.78499  Biso   1.000  O
  H196     1.0000 0.35600  0.14900  0.77300  Biso   1.000  H
