data_image0
_cell_length_a       15.5244
_cell_length_b       16.3987
_cell_length_c       12.6433
_cell_angle_alpha    90
_cell_angle_beta     93.075
_cell_angle_gamma    90

_symmetry_space_group_name_H-M    "P 1"
_symmetry_int_tables_number       1

loop_
  _symmetry_equiv_pos_as_xyz
  'x, y, z'

loop_
  _atom_site_label
  _atom_site_occupancy
  _atom_site_fract_x
  _atom_site_fract_y
  _atom_site_fract_z
  _atom_site_thermal_displace_type
  _atom_site_B_iso_or_equiv
  _atom_site_type_symbol
  Eu1      1.0000 0.12197  0.18899  0.91147  Biso   1.000  Eu
  S1       1.0000 0.10725  0.21920  0.66703  Biso   1.000  S
  S2       1.0000 0.18365  0.34951  0.07570  Biso   1.000  S
  O1       1.0000 0.05450  0.06220  0.90110  Biso   1.000  O
  O2       1.0000 0.10310  0.14140  0.72790  Biso   1.000  O
  O3       1.0000 0.08630  0.14320  0.07660  Biso   1.000  O
  O4       1.0000 0.02420  0.23380  0.60850  Biso   1.000  O
  O5       1.0000 0.12670  0.32110  0.98880  Biso   1.000  O
  O6       1.0000 0.12200  0.28240  0.74950  Biso   1.000  O
  O7       1.0000 0.07490  0.04120  0.18420  Biso   1.000  O
  O8       1.0000 0.17670  0.21820  0.59620  Biso   1.000  O
  O9       1.0000 0.25480  0.40010  0.04080  Biso   1.000  O
  C1       1.0000 0.06480  0.07340  0.09520  Biso   1.000  C
  O10      1.0000 0.13150  0.38890  0.15260  Biso   1.000  O
  O11      1.0000 0.22780  0.27740  0.12280  Biso   1.000  O
  C2       1.0000 0.03680  0.02200  0.99690  Biso   1.000  C
  H1       1.0000 0.08060  0.97890  0.99970  Biso   1.000  H
  Eu2      1.0000 0.62197  0.68899  0.91147  Biso   1.000  Eu
  S3       1.0000 0.60725  0.71920  0.66703  Biso   1.000  S
  S4       1.0000 0.68365  0.84951  0.07570  Biso   1.000  S
  O12      1.0000 0.55450  0.56220  0.90110  Biso   1.000  O
  O13      1.0000 0.60310  0.64140  0.72790  Biso   1.000  O
  O14      1.0000 0.58630  0.64320  0.07660  Biso   1.000  O
  O15      1.0000 0.52420  0.73380  0.60850  Biso   1.000  O
  O16      1.0000 0.62670  0.82110  0.98880  Biso   1.000  O
  O17      1.0000 0.62200  0.78240  0.74950  Biso   1.000  O
  O18      1.0000 0.57490  0.54120  0.18420  Biso   1.000  O
  O19      1.0000 0.67670  0.71820  0.59620  Biso   1.000  O
  O20      1.0000 0.75480  0.90010  0.04080  Biso   1.000  O
  C3       1.0000 0.56480  0.57340  0.09520  Biso   1.000  C
  O21      1.0000 0.63150  0.88890  0.15260  Biso   1.000  O
  O22      1.0000 0.72780  0.77740  0.12280  Biso   1.000  O
  C4       1.0000 0.53680  0.52200  0.99690  Biso   1.000  C
  H2       1.0000 0.58060  0.47890  0.99970  Biso   1.000  H
  Eu3      1.0000 0.87803  0.18899  0.58853  Biso   1.000  Eu
  S5       1.0000 0.89275  0.21920  0.83297  Biso   1.000  S
  S6       1.0000 0.81635  0.34951  0.42430  Biso   1.000  S
  O23      1.0000 0.94550  0.06220  0.59890  Biso   1.000  O
  O24      1.0000 0.89690  0.14140  0.77210  Biso   1.000  O
  O25      1.0000 0.91370  0.14320  0.42340  Biso   1.000  O
  O26      1.0000 0.97580  0.23380  0.89150  Biso   1.000  O
  O27      1.0000 0.87330  0.32110  0.51120  Biso   1.000  O
  O28      1.0000 0.87800  0.28240  0.75050  Biso   1.000  O
  O29      1.0000 0.92510  0.04120  0.31580  Biso   1.000  O
  O30      1.0000 0.82330  0.21820  0.90380  Biso   1.000  O
  O31      1.0000 0.74520  0.40010  0.45920  Biso   1.000  O
  C5       1.0000 0.93520  0.07340  0.40480  Biso   1.000  C
  O32      1.0000 0.86850  0.38890  0.34740  Biso   1.000  O
  O33      1.0000 0.77220  0.27740  0.37720  Biso   1.000  O
  C6       1.0000 0.96320  0.02200  0.50310  Biso   1.000  C
  H3       1.0000 0.91940  0.97890  0.50030  Biso   1.000  H
  Eu4      1.0000 0.37803  0.68899  0.58853  Biso   1.000  Eu
  S7       1.0000 0.39275  0.71920  0.83297  Biso   1.000  S
  S8       1.0000 0.31635  0.84951  0.42430  Biso   1.000  S
  O34      1.0000 0.44550  0.56220  0.59890  Biso   1.000  O
  O35      1.0000 0.39690  0.64140  0.77210  Biso   1.000  O
  O36      1.0000 0.41370  0.64320  0.42340  Biso   1.000  O
  O37      1.0000 0.47580  0.73380  0.89150  Biso   1.000  O
  O38      1.0000 0.37330  0.82110  0.51120  Biso   1.000  O
  O39      1.0000 0.37800  0.78240  0.75050  Biso   1.000  O
  O40      1.0000 0.42510  0.54120  0.31580  Biso   1.000  O
  O41      1.0000 0.32330  0.71820  0.90380  Biso   1.000  O
  O42      1.0000 0.24520  0.90010  0.45920  Biso   1.000  O
  C7       1.0000 0.43520  0.57340  0.40480  Biso   1.000  C
  O43      1.0000 0.36850  0.88890  0.34740  Biso   1.000  O
  O44      1.0000 0.27220  0.77740  0.37720  Biso   1.000  O
  C8       1.0000 0.46320  0.52200  0.50310  Biso   1.000  C
  H4       1.0000 0.41940  0.47890  0.50030  Biso   1.000  H
  Eu5      1.0000 0.87803  0.81101  0.08853  Biso   1.000  Eu
  S9       1.0000 0.89275  0.78080  0.33297  Biso   1.000  S
  S10      1.0000 0.81635  0.65049  0.92430  Biso   1.000  S
  O45      1.0000 0.94550  0.93780  0.09890  Biso   1.000  O
  O46      1.0000 0.89690  0.85860  0.27210  Biso   1.000  O
  O47      1.0000 0.91370  0.85680  0.92340  Biso   1.000  O
  O48      1.0000 0.97580  0.76620  0.39150  Biso   1.000  O
  O49      1.0000 0.87330  0.67890  0.01120  Biso   1.000  O
  O50      1.0000 0.87800  0.71760  0.25050  Biso   1.000  O
  O51      1.0000 0.92510  0.95880  0.81580  Biso   1.000  O
  O52      1.0000 0.82330  0.78180  0.40380  Biso   1.000  O
  O53      1.0000 0.74520  0.59990  0.95920  Biso   1.000  O
  C9       1.0000 0.93520  0.92660  0.90480  Biso   1.000  C
  O54      1.0000 0.86850  0.61110  0.84740  Biso   1.000  O
  O55      1.0000 0.77220  0.72260  0.87720  Biso   1.000  O
  C10      1.0000 0.96320  0.97800  0.00310  Biso   1.000  C
  H5       1.0000 0.91940  0.02110  0.00030  Biso   1.000  H
  Eu6      1.0000 0.37803  0.31101  0.08853  Biso   1.000  Eu
  S11      1.0000 0.39275  0.28080  0.33297  Biso   1.000  S
  S12      1.0000 0.31635  0.15049  0.92430  Biso   1.000  S
  O56      1.0000 0.44550  0.43780  0.09890  Biso   1.000  O
  O57      1.0000 0.39690  0.35860  0.27210  Biso   1.000  O
  O58      1.0000 0.41370  0.35680  0.92340  Biso   1.000  O
  O59      1.0000 0.47580  0.26620  0.39150  Biso   1.000  O
  O60      1.0000 0.37330  0.17890  0.01120  Biso   1.000  O
  O61      1.0000 0.37800  0.21760  0.25050  Biso   1.000  O
  O62      1.0000 0.42510  0.45880  0.81580  Biso   1.000  O
  O63      1.0000 0.32330  0.28180  0.40380  Biso   1.000  O
  O64      1.0000 0.24520  0.09990  0.95920  Biso   1.000  O
  C11      1.0000 0.43520  0.42660  0.90480  Biso   1.000  C
  O65      1.0000 0.36850  0.11110  0.84740  Biso   1.000  O
  O66      1.0000 0.27220  0.22260  0.87720  Biso   1.000  O
  C12      1.0000 0.46320  0.47800  0.00310  Biso   1.000  C
  H6       1.0000 0.41940  0.52110  0.00030  Biso   1.000  H
  Eu7      1.0000 0.12197  0.81101  0.41147  Biso   1.000  Eu
  S13      1.0000 0.10725  0.78080  0.16703  Biso   1.000  S
  S14      1.0000 0.18365  0.65049  0.57570  Biso   1.000  S
  O67      1.0000 0.05450  0.93780  0.40110  Biso   1.000  O
  O68      1.0000 0.10310  0.85860  0.22790  Biso   1.000  O
  O69      1.0000 0.08630  0.85680  0.57660  Biso   1.000  O
  O70      1.0000 0.02420  0.76620  0.10850  Biso   1.000  O
  O71      1.0000 0.12670  0.67890  0.48880  Biso   1.000  O
  O72      1.0000 0.12200  0.71760  0.24950  Biso   1.000  O
  O73      1.0000 0.07490  0.95880  0.68420  Biso   1.000  O
  O74      1.0000 0.17670  0.78180  0.09620  Biso   1.000  O
  O75      1.0000 0.25480  0.59990  0.54080  Biso   1.000  O
  C13      1.0000 0.06480  0.92660  0.59520  Biso   1.000  C
  O76      1.0000 0.13150  0.61110  0.65260  Biso   1.000  O
  O77      1.0000 0.22780  0.72260  0.62280  Biso   1.000  O
  C14      1.0000 0.03680  0.97800  0.49690  Biso   1.000  C
  H7       1.0000 0.08060  0.02110  0.49970  Biso   1.000  H
  Eu8      1.0000 0.62197  0.31101  0.41147  Biso   1.000  Eu
  S15      1.0000 0.60725  0.28080  0.16703  Biso   1.000  S
  S16      1.0000 0.68365  0.15049  0.57570  Biso   1.000  S
  O78      1.0000 0.55450  0.43780  0.40110  Biso   1.000  O
  O79      1.0000 0.60310  0.35860  0.22790  Biso   1.000  O
  O80      1.0000 0.58630  0.35680  0.57660  Biso   1.000  O
  O81      1.0000 0.52420  0.26620  0.10850  Biso   1.000  O
  O82      1.0000 0.62670  0.17890  0.48880  Biso   1.000  O
  O83      1.0000 0.62200  0.21760  0.24950  Biso   1.000  O
  O84      1.0000 0.57490  0.45880  0.68420  Biso   1.000  O
  O85      1.0000 0.67670  0.28180  0.09620  Biso   1.000  O
  O86      1.0000 0.75480  0.09990  0.54080  Biso   1.000  O
  C15      1.0000 0.56480  0.42660  0.59520  Biso   1.000  C
  O87      1.0000 0.63150  0.11110  0.65260  Biso   1.000  O
  O88      1.0000 0.72780  0.22260  0.62280  Biso   1.000  O
  C16      1.0000 0.53680  0.47800  0.49690  Biso   1.000  C
  H8       1.0000 0.58060  0.52110  0.49970  Biso   1.000  H
  Fe1      1.0000 0.00000  0.04959  0.75000  Biso   1.000  Fe
  Fe2      1.0000 0.50000  0.54959  0.75000  Biso   1.000  Fe
  Fe3      1.0000 0.00000  0.95041  0.25000  Biso   1.000  Fe
  Fe4      1.0000 0.50000  0.45041  0.25000  Biso   1.000  Fe
