data_image0
_cell_length_a       15.498
_cell_length_b       16.4
_cell_length_c       12.66
_cell_angle_alpha    90
_cell_angle_beta     93.36
_cell_angle_gamma    90

_symmetry_space_group_name_H-M    "P 1"
_symmetry_int_tables_number       1

loop_
  _symmetry_equiv_pos_as_xyz
  'x, y, z'

loop_
  _atom_site_label
  _atom_site_occupancy
  _atom_site_fract_x
  _atom_site_fract_y
  _atom_site_fract_z
  _atom_site_thermal_displace_type
  _atom_site_B_iso_or_equiv
  _atom_site_type_symbol
  Sm1      1.0000 0.12257  0.19019  0.91378  Biso   1.000  Sm
  S1       1.0000 0.10822  0.21911  0.66777  Biso   1.000  S
  S2       1.0000 0.18208  0.35054  0.07458  Biso   1.000  S
  O1       1.0000 0.05380  0.06290  0.90150  Biso   1.000  O
  O2       1.0000 0.10350  0.14160  0.72940  Biso   1.000  O
  O3       1.0000 0.08610  0.14270  0.07900  Biso   1.000  O
  O4       1.0000 0.02520  0.23430  0.60970  Biso   1.000  O
  O5       1.0000 0.12460  0.32560  0.98600  Biso   1.000  O
  O6       1.0000 0.12360  0.28230  0.74990  Biso   1.000  O
  O7       1.0000 0.07510  0.04020  0.18600  Biso   1.000  O
  O8       1.0000 0.17740  0.21720  0.59810  Biso   1.000  O
  O9       1.0000 0.25340  0.40060  0.04290  Biso   1.000  O
  C1       1.0000 0.06360  0.07270  0.09690  Biso   1.000  C
  O10      1.0000 0.13130  0.38910  0.15280  Biso   1.000  O
  O11      1.0000 0.22510  0.27550  0.11790  Biso   1.000  O
  C2       1.0000 0.03680  0.02310  0.99600  Biso   1.000  C
  H1       1.0000 0.08130  0.98060  0.99850  Biso   1.000  H
  Sm2      1.0000 0.62257  0.69019  0.91378  Biso   1.000  Sm
  S3       1.0000 0.60822  0.71911  0.66777  Biso   1.000  S
  S4       1.0000 0.68208  0.85054  0.07458  Biso   1.000  S
  O12      1.0000 0.55380  0.56290  0.90150  Biso   1.000  O
  O13      1.0000 0.60350  0.64160  0.72940  Biso   1.000  O
  O14      1.0000 0.58610  0.64270  0.07900  Biso   1.000  O
  O15      1.0000 0.52520  0.73430  0.60970  Biso   1.000  O
  O16      1.0000 0.62460  0.82560  0.98600  Biso   1.000  O
  O17      1.0000 0.62360  0.78230  0.74990  Biso   1.000  O
  O18      1.0000 0.57510  0.54020  0.18600  Biso   1.000  O
  O19      1.0000 0.67740  0.71720  0.59810  Biso   1.000  O
  O20      1.0000 0.75340  0.90060  0.04290  Biso   1.000  O
  C3       1.0000 0.56360  0.57270  0.09690  Biso   1.000  C
  O21      1.0000 0.63130  0.88910  0.15280  Biso   1.000  O
  O22      1.0000 0.72510  0.77550  0.11790  Biso   1.000  O
  C4       1.0000 0.53680  0.52310  0.99600  Biso   1.000  C
  H2       1.0000 0.58130  0.48060  0.99850  Biso   1.000  H
  Sm3      1.0000 0.87743  0.19019  0.58622  Biso   1.000  Sm
  S5       1.0000 0.89178  0.21911  0.83223  Biso   1.000  S
  S6       1.0000 0.81792  0.35054  0.42542  Biso   1.000  S
  O23      1.0000 0.94620  0.06290  0.59850  Biso   1.000  O
  O24      1.0000 0.89650  0.14160  0.77060  Biso   1.000  O
  O25      1.0000 0.91390  0.14270  0.42100  Biso   1.000  O
  O26      1.0000 0.97480  0.23430  0.89030  Biso   1.000  O
  O27      1.0000 0.87540  0.32560  0.51400  Biso   1.000  O
  O28      1.0000 0.87640  0.28230  0.75010  Biso   1.000  O
  O29      1.0000 0.92490  0.04020  0.31400  Biso   1.000  O
  O30      1.0000 0.82260  0.21720  0.90190  Biso   1.000  O
  O31      1.0000 0.74660  0.40060  0.45710  Biso   1.000  O
  C5       1.0000 0.93640  0.07270  0.40310  Biso   1.000  C
  O32      1.0000 0.86870  0.38910  0.34720  Biso   1.000  O
  O33      1.0000 0.77490  0.27550  0.38210  Biso   1.000  O
  C6       1.0000 0.96320  0.02310  0.50400  Biso   1.000  C
  H3       1.0000 0.91870  0.98060  0.50150  Biso   1.000  H
  Sm4      1.0000 0.37743  0.69019  0.58622  Biso   1.000  Sm
  S7       1.0000 0.39178  0.71911  0.83223  Biso   1.000  S
  S8       1.0000 0.31792  0.85054  0.42542  Biso   1.000  S
  O34      1.0000 0.44620  0.56290  0.59850  Biso   1.000  O
  O35      1.0000 0.39650  0.64160  0.77060  Biso   1.000  O
  O36      1.0000 0.41390  0.64270  0.42100  Biso   1.000  O
  O37      1.0000 0.47480  0.73430  0.89030  Biso   1.000  O
  O38      1.0000 0.37540  0.82560  0.51400  Biso   1.000  O
  O39      1.0000 0.37640  0.78230  0.75010  Biso   1.000  O
  O40      1.0000 0.42490  0.54020  0.31400  Biso   1.000  O
  O41      1.0000 0.32260  0.71720  0.90190  Biso   1.000  O
  O42      1.0000 0.24660  0.90060  0.45710  Biso   1.000  O
  C7       1.0000 0.43640  0.57270  0.40310  Biso   1.000  C
  O43      1.0000 0.36870  0.88910  0.34720  Biso   1.000  O
  O44      1.0000 0.27490  0.77550  0.38210  Biso   1.000  O
  C8       1.0000 0.46320  0.52310  0.50400  Biso   1.000  C
  H4       1.0000 0.41870  0.48060  0.50150  Biso   1.000  H
  Sm5      1.0000 0.87743  0.80981  0.08622  Biso   1.000  Sm
  S9       1.0000 0.89178  0.78089  0.33223  Biso   1.000  S
  S10      1.0000 0.81792  0.64946  0.92542  Biso   1.000  S
  O45      1.0000 0.94620  0.93710  0.09850  Biso   1.000  O
  O46      1.0000 0.89650  0.85840  0.27060  Biso   1.000  O
  O47      1.0000 0.91390  0.85730  0.92100  Biso   1.000  O
  O48      1.0000 0.97480  0.76570  0.39030  Biso   1.000  O
  O49      1.0000 0.87540  0.67440  0.01400  Biso   1.000  O
  O50      1.0000 0.87640  0.71770  0.25010  Biso   1.000  O
  O51      1.0000 0.92490  0.95980  0.81400  Biso   1.000  O
  O52      1.0000 0.82260  0.78280  0.40190  Biso   1.000  O
  O53      1.0000 0.74660  0.59940  0.95710  Biso   1.000  O
  C9       1.0000 0.93640  0.92730  0.90310  Biso   1.000  C
  O54      1.0000 0.86870  0.61090  0.84720  Biso   1.000  O
  O55      1.0000 0.77490  0.72450  0.88210  Biso   1.000  O
  C10      1.0000 0.96320  0.97690  0.00400  Biso   1.000  C
  H5       1.0000 0.91870  0.01940  0.00150  Biso   1.000  H
  Sm6      1.0000 0.37743  0.30981  0.08622  Biso   1.000  Sm
  S11      1.0000 0.39178  0.28089  0.33223  Biso   1.000  S
  S12      1.0000 0.31792  0.14946  0.92542  Biso   1.000  S
  O56      1.0000 0.44620  0.43710  0.09850  Biso   1.000  O
  O57      1.0000 0.39650  0.35840  0.27060  Biso   1.000  O
  O58      1.0000 0.41390  0.35730  0.92100  Biso   1.000  O
  O59      1.0000 0.47480  0.26570  0.39030  Biso   1.000  O
  O60      1.0000 0.37540  0.17440  0.01400  Biso   1.000  O
  O61      1.0000 0.37640  0.21770  0.25010  Biso   1.000  O
  O62      1.0000 0.42490  0.45980  0.81400  Biso   1.000  O
  O63      1.0000 0.32260  0.28280  0.40190  Biso   1.000  O
  O64      1.0000 0.24660  0.09940  0.95710  Biso   1.000  O
  C11      1.0000 0.43640  0.42730  0.90310  Biso   1.000  C
  O65      1.0000 0.36870  0.11090  0.84720  Biso   1.000  O
  O66      1.0000 0.27490  0.22450  0.88210  Biso   1.000  O
  C12      1.0000 0.46320  0.47690  0.00400  Biso   1.000  C
  H6       1.0000 0.41870  0.51940  0.00150  Biso   1.000  H
  Sm7      1.0000 0.12257  0.80981  0.41378  Biso   1.000  Sm
  S13      1.0000 0.10822  0.78089  0.16777  Biso   1.000  S
  S14      1.0000 0.18208  0.64946  0.57458  Biso   1.000  S
  O67      1.0000 0.05380  0.93710  0.40150  Biso   1.000  O
  O68      1.0000 0.10350  0.85840  0.22940  Biso   1.000  O
  O69      1.0000 0.08610  0.85730  0.57900  Biso   1.000  O
  O70      1.0000 0.02520  0.76570  0.10970  Biso   1.000  O
  O71      1.0000 0.12460  0.67440  0.48600  Biso   1.000  O
  O72      1.0000 0.12360  0.71770  0.24990  Biso   1.000  O
  O73      1.0000 0.07510  0.95980  0.68600  Biso   1.000  O
  O74      1.0000 0.17740  0.78280  0.09810  Biso   1.000  O
  O75      1.0000 0.25340  0.59940  0.54290  Biso   1.000  O
  C13      1.0000 0.06360  0.92730  0.59690  Biso   1.000  C
  O76      1.0000 0.13130  0.61090  0.65280  Biso   1.000  O
  O77      1.0000 0.22510  0.72450  0.61790  Biso   1.000  O
  C14      1.0000 0.03680  0.97690  0.49600  Biso   1.000  C
  H7       1.0000 0.08130  0.01940  0.49850  Biso   1.000  H
  Sm8      1.0000 0.62257  0.30981  0.41378  Biso   1.000  Sm
  S15      1.0000 0.60822  0.28089  0.16777  Biso   1.000  S
  S16      1.0000 0.68208  0.14946  0.57458  Biso   1.000  S
  O78      1.0000 0.55380  0.43710  0.40150  Biso   1.000  O
  O79      1.0000 0.60350  0.35840  0.22940  Biso   1.000  O
  O80      1.0000 0.58610  0.35730  0.57900  Biso   1.000  O
  O81      1.0000 0.52520  0.26570  0.10970  Biso   1.000  O
  O82      1.0000 0.62460  0.17440  0.48600  Biso   1.000  O
  O83      1.0000 0.62360  0.21770  0.24990  Biso   1.000  O
  O84      1.0000 0.57510  0.45980  0.68600  Biso   1.000  O
  O85      1.0000 0.67740  0.28280  0.09810  Biso   1.000  O
  O86      1.0000 0.75340  0.09940  0.54290  Biso   1.000  O
  C15      1.0000 0.56360  0.42730  0.59690  Biso   1.000  C
  O87      1.0000 0.63130  0.11090  0.65280  Biso   1.000  O
  O88      1.0000 0.72510  0.22450  0.61790  Biso   1.000  O
  C16      1.0000 0.53680  0.47690  0.49600  Biso   1.000  C
  H8       1.0000 0.58130  0.51940  0.49850  Biso   1.000  H
  Fe1      1.0000 0.00000  0.05061  0.75000  Biso   1.000  Fe
  Fe2      1.0000 0.50000  0.55061  0.75000  Biso   1.000  Fe
  Fe3      1.0000 0.00000  0.94939  0.25000  Biso   1.000  Fe
  Fe4      1.0000 0.50000  0.44939  0.25000  Biso   1.000  Fe
