data_image0
_cell_length_a       15.4912
_cell_length_b       11.6687
_cell_length_c       23.7502
_cell_angle_alpha    90
_cell_angle_beta     90
_cell_angle_gamma    90

_symmetry_space_group_name_H-M    "P 1"
_symmetry_int_tables_number       1

loop_
  _symmetry_equiv_pos_as_xyz
  'x, y, z'

loop_
  _atom_site_label
  _atom_site_occupancy
  _atom_site_fract_x
  _atom_site_fract_y
  _atom_site_fract_z
  _atom_site_thermal_displace_type
  _atom_site_B_iso_or_equiv
  _atom_site_type_symbol
  Ni1      1.0000 0.04698  0.35733  0.12311  Biso   1.000  Ni
  O1       1.0000 0.15795  0.28741  0.08386  Biso   1.000  O
  O2       1.0000 0.09892  0.44945  0.05684  Biso   1.000  O
  O3       1.0000 0.44279  0.15831  0.00153  Biso   1.000  O
  O4       1.0000 0.46705  0.24271  0.91802  Biso   1.000  O
  O5       1.0000 0.86427  0.90019  0.30551  Biso   1.000  O
  O6       1.0000 0.95286  0.75446  0.30710  Biso   1.000  O
  O7       1.0000 0.92689  0.55096  0.06680  Biso   1.000  O
  O8       1.0000 0.96081  0.47185  0.15059  Biso   1.000  O
  C1       1.0000 0.23919  0.39990  0.01992  Biso   1.000  C
  C2       1.0000 0.30005  0.31420  0.01263  Biso   1.000  C
  H1       1.0000 0.29180  0.24350  0.02990  Biso   1.000  H
  C3       1.0000 0.37295  0.33200  0.98002  Biso   1.000  C
  C4       1.0000 0.38650  0.44140  0.95776  Biso   1.000  C
  H2       1.0000 0.43550  0.45580  0.93630  Biso   1.000  H
  C5       1.0000 0.32794  0.52810  0.96732  Biso   1.000  C
  H3       1.0000 0.33910  0.60130  0.95380  Biso   1.000  H
  C6       1.0000 0.25214  0.50690  0.99714  Biso   1.000  C
  H4       1.0000 0.21100  0.56420  0.00160  Biso   1.000  H
  C7       1.0000 0.16141  0.37620  0.05426  Biso   1.000  C
  C8       1.0000 0.43357  0.23510  0.96601  Biso   1.000  C
  C9       1.0000 0.86343  0.77270  0.22684  Biso   1.000  C
  C10      1.0000 0.90081  0.67680  0.20173  Biso   1.000  C
  H5       1.0000 0.94250  0.63540  0.22120  Biso   1.000  H
  C11      1.0000 0.87685  0.64230  0.14821  Biso   1.000  C
  C12      1.0000 0.81298  0.70180  0.12097  Biso   1.000  C
  H6       1.0000 0.79630  0.67900  0.08510  Biso   1.000  H
  C13      1.0000 0.77283  0.79510  0.14569  Biso   1.000  C
  H7       1.0000 0.72890  0.83350  0.12690  Biso   1.000  H
  C14      1.0000 0.79869  0.83060  0.19877  Biso   1.000  C
  H8       1.0000 0.77240  0.89360  0.21550  Biso   1.000  H
  C15      1.0000 0.89356  0.81210  0.28359  Biso   1.000  C
  C16      1.0000 0.92502  0.54630  0.11937  Biso   1.000  C
  Ni2      1.0000 0.45302  0.64267  0.62311  Biso   1.000  Ni
  O9       1.0000 0.34205  0.71259  0.58386  Biso   1.000  O
  O10      1.0000 0.40108  0.55055  0.55684  Biso   1.000  O
  O11      1.0000 0.05721  0.84169  0.50153  Biso   1.000  O
  O12      1.0000 0.03295  0.75729  0.41802  Biso   1.000  O
  O13      1.0000 0.63573  0.09981  0.80551  Biso   1.000  O
  O14      1.0000 0.54714  0.24554  0.80710  Biso   1.000  O
  O15      1.0000 0.57311  0.44904  0.56680  Biso   1.000  O
  O16      1.0000 0.53919  0.52815  0.65059  Biso   1.000  O
  C17      1.0000 0.26081  0.60010  0.51992  Biso   1.000  C
  C18      1.0000 0.19995  0.68580  0.51263  Biso   1.000  C
  H9       1.0000 0.20820  0.75650  0.52990  Biso   1.000  H
  C19      1.0000 0.12705  0.66800  0.48002  Biso   1.000  C
  C20      1.0000 0.11350  0.55860  0.45776  Biso   1.000  C
  H10      1.0000 0.06450  0.54420  0.43630  Biso   1.000  H
  C21      1.0000 0.17206  0.47190  0.46732  Biso   1.000  C
  H11      1.0000 0.16090  0.39870  0.45380  Biso   1.000  H
  C22      1.0000 0.24786  0.49310  0.49714  Biso   1.000  C
  H12      1.0000 0.28900  0.43580  0.50160  Biso   1.000  H
  C23      1.0000 0.33859  0.62380  0.55426  Biso   1.000  C
  C24      1.0000 0.06643  0.76490  0.46601  Biso   1.000  C
  C25      1.0000 0.63657  0.22730  0.72684  Biso   1.000  C
  C26      1.0000 0.59919  0.32320  0.70173  Biso   1.000  C
  H13      1.0000 0.55750  0.36460  0.72120  Biso   1.000  H
  C27      1.0000 0.62315  0.35770  0.64821  Biso   1.000  C
  C28      1.0000 0.68702  0.29820  0.62097  Biso   1.000  C
  H14      1.0000 0.70370  0.32100  0.58510  Biso   1.000  H
  C29      1.0000 0.72717  0.20490  0.64569  Biso   1.000  C
  H15      1.0000 0.77110  0.16650  0.62690  Biso   1.000  H
  C30      1.0000 0.70131  0.16940  0.69877  Biso   1.000  C
  H16      1.0000 0.72760  0.10640  0.71550  Biso   1.000  H
  C31      1.0000 0.60644  0.18790  0.78359  Biso   1.000  C
  C32      1.0000 0.57498  0.45370  0.61937  Biso   1.000  C
  Ni3      1.0000 0.95302  0.85733  0.37689  Biso   1.000  Ni
  O17      1.0000 0.84205  0.78741  0.41614  Biso   1.000  O
  O18      1.0000 0.90108  0.94945  0.44316  Biso   1.000  O
  O19      1.0000 0.55721  0.65831  0.49847  Biso   1.000  O
  O20      1.0000 0.53295  0.74271  0.58198  Biso   1.000  O
  O21      1.0000 0.13573  0.40019  0.19449  Biso   1.000  O
  O22      1.0000 0.04714  0.25446  0.19290  Biso   1.000  O
  O23      1.0000 0.07311  0.05096  0.43320  Biso   1.000  O
  O24      1.0000 0.03919  0.97185  0.34941  Biso   1.000  O
  C33      1.0000 0.76081  0.89990  0.48008  Biso   1.000  C
  C34      1.0000 0.69995  0.81420  0.48737  Biso   1.000  C
  H17      1.0000 0.70820  0.74350  0.47010  Biso   1.000  H
  C35      1.0000 0.62705  0.83200  0.51998  Biso   1.000  C
  C36      1.0000 0.61350  0.94140  0.54224  Biso   1.000  C
  H18      1.0000 0.56450  0.95580  0.56370  Biso   1.000  H
  C37      1.0000 0.67206  0.02810  0.53268  Biso   1.000  C
  H19      1.0000 0.66090  0.10130  0.54620  Biso   1.000  H
  C38      1.0000 0.74786  0.00690  0.50286  Biso   1.000  C
  H20      1.0000 0.78900  0.06420  0.49840  Biso   1.000  H
  C39      1.0000 0.83859  0.87620  0.44574  Biso   1.000  C
  C40      1.0000 0.56643  0.73510  0.53399  Biso   1.000  C
  C41      1.0000 0.13657  0.27270  0.27316  Biso   1.000  C
  C42      1.0000 0.09919  0.17680  0.29827  Biso   1.000  C
  H21      1.0000 0.05750  0.13540  0.27880  Biso   1.000  H
  C43      1.0000 0.12315  0.14230  0.35179  Biso   1.000  C
  C44      1.0000 0.18702  0.20180  0.37903  Biso   1.000  C
  H22      1.0000 0.20370  0.17900  0.41490  Biso   1.000  H
  C45      1.0000 0.22717  0.29510  0.35431  Biso   1.000  C
  H23      1.0000 0.27110  0.33350  0.37310  Biso   1.000  H
  C46      1.0000 0.20131  0.33060  0.30123  Biso   1.000  C
  H24      1.0000 0.22760  0.39360  0.28450  Biso   1.000  H
  C47      1.0000 0.10644  0.31210  0.21641  Biso   1.000  C
  C48      1.0000 0.07498  0.04630  0.38063  Biso   1.000  C
  Ni4      1.0000 0.54698  0.14267  0.87689  Biso   1.000  Ni
  O25      1.0000 0.65795  0.21259  0.91614  Biso   1.000  O
  O26      1.0000 0.59892  0.05055  0.94316  Biso   1.000  O
  O27      1.0000 0.94279  0.34169  0.99847  Biso   1.000  O
  O28      1.0000 0.96705  0.25729  0.08198  Biso   1.000  O
  O29      1.0000 0.36427  0.59981  0.69449  Biso   1.000  O
  O30      1.0000 0.45286  0.74554  0.69290  Biso   1.000  O
  O31      1.0000 0.42689  0.94904  0.93320  Biso   1.000  O
  O32      1.0000 0.46081  0.02815  0.84941  Biso   1.000  O
  C49      1.0000 0.73919  0.10010  0.98008  Biso   1.000  C
  C50      1.0000 0.80005  0.18580  0.98737  Biso   1.000  C
  H25      1.0000 0.79180  0.25650  0.97010  Biso   1.000  H
  C51      1.0000 0.87295  0.16800  0.01998  Biso   1.000  C
  C52      1.0000 0.88650  0.05860  0.04224  Biso   1.000  C
  H26      1.0000 0.93550  0.04420  0.06370  Biso   1.000  H
  C53      1.0000 0.82794  0.97190  0.03268  Biso   1.000  C
  H27      1.0000 0.83910  0.89870  0.04620  Biso   1.000  H
  C54      1.0000 0.75214  0.99310  0.00286  Biso   1.000  C
  H28      1.0000 0.71100  0.93580  0.99840  Biso   1.000  H
  C55      1.0000 0.66141  0.12380  0.94574  Biso   1.000  C
  C56      1.0000 0.93357  0.26490  0.03399  Biso   1.000  C
  C57      1.0000 0.36343  0.72730  0.77316  Biso   1.000  C
  C58      1.0000 0.40081  0.82320  0.79827  Biso   1.000  C
  H29      1.0000 0.44250  0.86460  0.77880  Biso   1.000  H
  C59      1.0000 0.37685  0.85770  0.85179  Biso   1.000  C
  C60      1.0000 0.31298  0.79820  0.87903  Biso   1.000  C
  H30      1.0000 0.29630  0.82100  0.91490  Biso   1.000  H
  C61      1.0000 0.27283  0.70490  0.85431  Biso   1.000  C
  H31      1.0000 0.22890  0.66650  0.87310  Biso   1.000  H
  C62      1.0000 0.29869  0.66940  0.80123  Biso   1.000  C
  H32      1.0000 0.27240  0.60640  0.78450  Biso   1.000  H
  C63      1.0000 0.39356  0.68790  0.71641  Biso   1.000  C
  C64      1.0000 0.42502  0.95370  0.88063  Biso   1.000  C
  Ni5      1.0000 0.95302  0.64267  0.87689  Biso   1.000  Ni
  O33      1.0000 0.84205  0.71259  0.91614  Biso   1.000  O
  O34      1.0000 0.90108  0.55055  0.94316  Biso   1.000  O
  O35      1.0000 0.55721  0.84169  0.99847  Biso   1.000  O
  O36      1.0000 0.53295  0.75729  0.08198  Biso   1.000  O
  O37      1.0000 0.13573  0.09981  0.69449  Biso   1.000  O
  O38      1.0000 0.04714  0.24554  0.69290  Biso   1.000  O
  O39      1.0000 0.07311  0.44904  0.93320  Biso   1.000  O
  O40      1.0000 0.03919  0.52815  0.84941  Biso   1.000  O
  C65      1.0000 0.76081  0.60010  0.98008  Biso   1.000  C
  C66      1.0000 0.69995  0.68580  0.98737  Biso   1.000  C
  H33      1.0000 0.70820  0.75650  0.97010  Biso   1.000  H
  C67      1.0000 0.62705  0.66800  0.01998  Biso   1.000  C
  C68      1.0000 0.61350  0.55860  0.04224  Biso   1.000  C
  H34      1.0000 0.56450  0.54420  0.06370  Biso   1.000  H
  C69      1.0000 0.67206  0.47190  0.03268  Biso   1.000  C
  H35      1.0000 0.66090  0.39870  0.04620  Biso   1.000  H
  C70      1.0000 0.74786  0.49310  0.00286  Biso   1.000  C
  H36      1.0000 0.78900  0.43580  0.99840  Biso   1.000  H
  C71      1.0000 0.83859  0.62380  0.94574  Biso   1.000  C
  C72      1.0000 0.56643  0.76490  0.03399  Biso   1.000  C
  C73      1.0000 0.13657  0.22730  0.77316  Biso   1.000  C
  C74      1.0000 0.09919  0.32320  0.79827  Biso   1.000  C
  H37      1.0000 0.05750  0.36460  0.77880  Biso   1.000  H
  C75      1.0000 0.12315  0.35770  0.85179  Biso   1.000  C
  C76      1.0000 0.18702  0.29820  0.87903  Biso   1.000  C
  H38      1.0000 0.20370  0.32100  0.91490  Biso   1.000  H
  C77      1.0000 0.22717  0.20490  0.85431  Biso   1.000  C
  H39      1.0000 0.27110  0.16650  0.87310  Biso   1.000  H
  C78      1.0000 0.20131  0.16940  0.80123  Biso   1.000  C
  H40      1.0000 0.22760  0.10640  0.78450  Biso   1.000  H
  C79      1.0000 0.10644  0.18790  0.71641  Biso   1.000  C
  C80      1.0000 0.07498  0.45370  0.88063  Biso   1.000  C
  Ni6      1.0000 0.54698  0.35733  0.37689  Biso   1.000  Ni
  O41      1.0000 0.65795  0.28741  0.41614  Biso   1.000  O
  O42      1.0000 0.59892  0.44945  0.44316  Biso   1.000  O
  O43      1.0000 0.94279  0.15831  0.49847  Biso   1.000  O
  O44      1.0000 0.96705  0.24271  0.58198  Biso   1.000  O
  O45      1.0000 0.36427  0.90019  0.19449  Biso   1.000  O
  O46      1.0000 0.45286  0.75446  0.19290  Biso   1.000  O
  O47      1.0000 0.42689  0.55096  0.43320  Biso   1.000  O
  O48      1.0000 0.46081  0.47185  0.34941  Biso   1.000  O
  C81      1.0000 0.73919  0.39990  0.48008  Biso   1.000  C
  C82      1.0000 0.80005  0.31420  0.48737  Biso   1.000  C
  H41      1.0000 0.79180  0.24350  0.47010  Biso   1.000  H
  C83      1.0000 0.87295  0.33200  0.51998  Biso   1.000  C
  C84      1.0000 0.88650  0.44140  0.54224  Biso   1.000  C
  H42      1.0000 0.93550  0.45580  0.56370  Biso   1.000  H
  C85      1.0000 0.82794  0.52810  0.53268  Biso   1.000  C
  H43      1.0000 0.83910  0.60130  0.54620  Biso   1.000  H
  C86      1.0000 0.75214  0.50690  0.50286  Biso   1.000  C
  H44      1.0000 0.71100  0.56420  0.49840  Biso   1.000  H
  C87      1.0000 0.66141  0.37620  0.44574  Biso   1.000  C
  C88      1.0000 0.93357  0.23510  0.53399  Biso   1.000  C
  C89      1.0000 0.36343  0.77270  0.27316  Biso   1.000  C
  C90      1.0000 0.40081  0.67680  0.29827  Biso   1.000  C
  H45      1.0000 0.44250  0.63540  0.27880  Biso   1.000  H
  C91      1.0000 0.37685  0.64230  0.35179  Biso   1.000  C
  C92      1.0000 0.31298  0.70180  0.37903  Biso   1.000  C
  H46      1.0000 0.29630  0.67900  0.41490  Biso   1.000  H
  C93      1.0000 0.27283  0.79510  0.35431  Biso   1.000  C
  H47      1.0000 0.22890  0.83350  0.37310  Biso   1.000  H
  C94      1.0000 0.29869  0.83060  0.30123  Biso   1.000  C
  H48      1.0000 0.27240  0.89360  0.28450  Biso   1.000  H
  C95      1.0000 0.39356  0.81210  0.21641  Biso   1.000  C
  C96      1.0000 0.42502  0.54630  0.38063  Biso   1.000  C
  Ni7      1.0000 0.04698  0.14267  0.62311  Biso   1.000  Ni
  O49      1.0000 0.15795  0.21259  0.58386  Biso   1.000  O
  O50      1.0000 0.09892  0.05055  0.55684  Biso   1.000  O
  O51      1.0000 0.44279  0.34169  0.50153  Biso   1.000  O
  O52      1.0000 0.46705  0.25729  0.41802  Biso   1.000  O
  O53      1.0000 0.86427  0.59981  0.80551  Biso   1.000  O
  O54      1.0000 0.95286  0.74554  0.80710  Biso   1.000  O
  O55      1.0000 0.92689  0.94904  0.56680  Biso   1.000  O
  O56      1.0000 0.96081  0.02815  0.65059  Biso   1.000  O
  C97      1.0000 0.23919  0.10010  0.51992  Biso   1.000  C
  C98      1.0000 0.30005  0.18580  0.51263  Biso   1.000  C
  H49      1.0000 0.29180  0.25650  0.52990  Biso   1.000  H
  C99      1.0000 0.37295  0.16800  0.48002  Biso   1.000  C
  C100     1.0000 0.38650  0.05860  0.45776  Biso   1.000  C
  H50      1.0000 0.43550  0.04420  0.43630  Biso   1.000  H
  C101     1.0000 0.32794  0.97190  0.46732  Biso   1.000  C
  H51      1.0000 0.33910  0.89870  0.45380  Biso   1.000  H
  C102     1.0000 0.25214  0.99310  0.49714  Biso   1.000  C
  H52      1.0000 0.21100  0.93580  0.50160  Biso   1.000  H
  C103     1.0000 0.16141  0.12380  0.55426  Biso   1.000  C
  C104     1.0000 0.43357  0.26490  0.46601  Biso   1.000  C
  C105     1.0000 0.86343  0.72730  0.72684  Biso   1.000  C
  C106     1.0000 0.90081  0.82320  0.70173  Biso   1.000  C
  H53      1.0000 0.94250  0.86460  0.72120  Biso   1.000  H
  C107     1.0000 0.87685  0.85770  0.64821  Biso   1.000  C
  C108     1.0000 0.81298  0.79820  0.62097  Biso   1.000  C
  H54      1.0000 0.79630  0.82100  0.58510  Biso   1.000  H
  C109     1.0000 0.77283  0.70490  0.64569  Biso   1.000  C
  H55      1.0000 0.72890  0.66650  0.62690  Biso   1.000  H
  C110     1.0000 0.79869  0.66940  0.69877  Biso   1.000  C
  H56      1.0000 0.77240  0.60640  0.71550  Biso   1.000  H
  C111     1.0000 0.89356  0.68790  0.78359  Biso   1.000  C
  C112     1.0000 0.92502  0.95370  0.61937  Biso   1.000  C
  Ni8      1.0000 0.45302  0.85733  0.12311  Biso   1.000  Ni
  O57      1.0000 0.34205  0.78741  0.08386  Biso   1.000  O
  O58      1.0000 0.40108  0.94945  0.05684  Biso   1.000  O
  O59      1.0000 0.05721  0.65831  0.00153  Biso   1.000  O
  O60      1.0000 0.03295  0.74271  0.91802  Biso   1.000  O
  O61      1.0000 0.63573  0.40019  0.30551  Biso   1.000  O
  O62      1.0000 0.54714  0.25446  0.30710  Biso   1.000  O
  O63      1.0000 0.57311  0.05096  0.06680  Biso   1.000  O
  O64      1.0000 0.53919  0.97185  0.15059  Biso   1.000  O
  C113     1.0000 0.26081  0.89990  0.01992  Biso   1.000  C
  C114     1.0000 0.19995  0.81420  0.01263  Biso   1.000  C
  H57      1.0000 0.20820  0.74350  0.02990  Biso   1.000  H
  C115     1.0000 0.12705  0.83200  0.98002  Biso   1.000  C
  C116     1.0000 0.11350  0.94140  0.95776  Biso   1.000  C
  H58      1.0000 0.06450  0.95580  0.93630  Biso   1.000  H
  C117     1.0000 0.17206  0.02810  0.96732  Biso   1.000  C
  H59      1.0000 0.16090  0.10130  0.95380  Biso   1.000  H
  C118     1.0000 0.24786  0.00690  0.99714  Biso   1.000  C
  H60      1.0000 0.28900  0.06420  0.00160  Biso   1.000  H
  C119     1.0000 0.33859  0.87620  0.05426  Biso   1.000  C
  C120     1.0000 0.06643  0.73510  0.96601  Biso   1.000  C
  C121     1.0000 0.63657  0.27270  0.22684  Biso   1.000  C
  C122     1.0000 0.59919  0.17680  0.20173  Biso   1.000  C
  H61      1.0000 0.55750  0.13540  0.22120  Biso   1.000  H
  C123     1.0000 0.62315  0.14230  0.14821  Biso   1.000  C
  C124     1.0000 0.68702  0.20180  0.12097  Biso   1.000  C
  H62      1.0000 0.70370  0.17900  0.08510  Biso   1.000  H
  C125     1.0000 0.72717  0.29510  0.14569  Biso   1.000  C
  H63      1.0000 0.77110  0.33350  0.12690  Biso   1.000  H
  C126     1.0000 0.70131  0.33060  0.19877  Biso   1.000  C
  H64      1.0000 0.72760  0.39360  0.21550  Biso   1.000  H
  C127     1.0000 0.60644  0.31210  0.28359  Biso   1.000  C
  C128     1.0000 0.57498  0.04630  0.11937  Biso   1.000  C
  Ni9      1.0000 0.00000  0.50000  0.00000  Biso   1.000  Ni
  Ni10     1.0000 0.50000  0.50000  0.50000  Biso   1.000  Ni
  Ni11     1.0000 0.00000  0.00000  0.50000  Biso   1.000  Ni
  Ni12     1.0000 0.50000  0.00000  0.00000  Biso   1.000  Ni
