data_image0
_cell_length_a       13.092
_cell_length_b       14.49
_cell_length_c       12.64
_cell_angle_alpha    90
_cell_angle_beta     116.85
_cell_angle_gamma    90

_symmetry_space_group_name_H-M    "P 1"
_symmetry_int_tables_number       1

loop_
  _symmetry_equiv_pos_as_xyz
  'x, y, z'

loop_
  _atom_site_label
  _atom_site_occupancy
  _atom_site_fract_x
  _atom_site_fract_y
  _atom_site_fract_z
  _atom_site_thermal_displace_type
  _atom_site_B_iso_or_equiv
  _atom_site_type_symbol
  Mn1      1.0000 0.27135  0.44289  0.24477  Biso   1.000  Mn
  O1       1.0000 0.97150  0.05690  0.32830  Biso   1.000  O
  O2       1.0000 0.81840  0.00100  0.17170  Biso   1.000  O
  O3       1.0000 0.19280  0.30470  0.25480  Biso   1.000  O
  O4       1.0000 0.11640  0.38170  0.08690  Biso   1.000  O
  O5       1.0000 0.14420  0.57350  0.00550  Biso   1.000  O
  O6       1.0000 0.30790  0.56090  0.17220  Biso   1.000  O
  O7       1.0000 0.58390  0.83510  0.25540  Biso   1.000  O
  O8       1.0000 0.57400  0.91090  0.09930  Biso   1.000  O
  C1       1.0000 0.93580  0.10590  0.13500  Biso   1.000  C
  C2       1.0000 0.01400  0.17760  0.17790  Biso   1.000  C
  H1       1.0000 0.05540  0.18650  0.25920  Biso   1.000  H
  C3       1.0000 0.03140  0.23670  0.09980  Biso   1.000  C
  C4       1.0000 0.97180  0.22300  0.97800  Biso   1.000  C
  H2       1.0000 0.98260  0.26240  0.92570  Biso   1.000  H
  C5       1.0000 0.89520  0.14860  0.93560  Biso   1.000  C
  H3       1.0000 0.85560  0.13760  0.85450  Biso   1.000  H
  C6       1.0000 0.87830  0.09170  0.01360  Biso   1.000  C
  H4       1.0000 0.82720  0.04260  0.98410  Biso   1.000  H
  C7       1.0000 0.90880  0.04900  0.21920  Biso   1.000  C
  C8       1.0000 0.11800  0.31260  0.15040  Biso   1.000  C
  C9       1.0000 0.29340  0.67470  0.03030  Biso   1.000  C
  C10      1.0000 0.39190  0.72290  0.10760  Biso   1.000  C
  H5       1.0000 0.42900  0.70700  0.18750  Biso   1.000  H
  C11      1.0000 0.43450  0.79450  0.06530  Biso   1.000  C
  C12      1.0000 0.37990  0.81610  0.94400  Biso   1.000  C
  H6       1.0000 0.40890  0.86290  0.91500  Biso   1.000  H
  C13      1.0000 0.28340  0.76820  0.86750  Biso   1.000  C
  H7       1.0000 0.24800  0.78210  0.78700  Biso   1.000  H
  C14      1.0000 0.23950  0.69890  0.91160  Biso   1.000  C
  H8       1.0000 0.17280  0.66850  0.86050  Biso   1.000  H
  C15      1.0000 0.24370  0.59770  0.07190  Biso   1.000  C
  C16      1.0000 0.53770  0.84910  0.14690  Biso   1.000  C
  Mn2      1.0000 0.72865  0.94289  0.25523  Biso   1.000  Mn
  O9       1.0000 0.02850  0.55690  0.17170  Biso   1.000  O
  O10      1.0000 0.18160  0.50100  0.32830  Biso   1.000  O
  O11      1.0000 0.80720  0.80470  0.24520  Biso   1.000  O
  O12      1.0000 0.88360  0.88170  0.41310  Biso   1.000  O
  O13      1.0000 0.85580  0.07350  0.49450  Biso   1.000  O
  O14      1.0000 0.69210  0.06090  0.32780  Biso   1.000  O
  O15      1.0000 0.41610  0.33510  0.24460  Biso   1.000  O
  O16      1.0000 0.42600  0.41090  0.40070  Biso   1.000  O
  C17      1.0000 0.06420  0.60590  0.36500  Biso   1.000  C
  C18      1.0000 0.98600  0.67760  0.32210  Biso   1.000  C
  H9       1.0000 0.94460  0.68650  0.24080  Biso   1.000  H
  C19      1.0000 0.96860  0.73670  0.40020  Biso   1.000  C
  C20      1.0000 0.02820  0.72300  0.52200  Biso   1.000  C
  H10      1.0000 0.01740  0.76240  0.57430  Biso   1.000  H
  C21      1.0000 0.10480  0.64860  0.56440  Biso   1.000  C
  H11      1.0000 0.14440  0.63760  0.64550  Biso   1.000  H
  C22      1.0000 0.12170  0.59170  0.48640  Biso   1.000  C
  H12      1.0000 0.17280  0.54260  0.51590  Biso   1.000  H
  C23      1.0000 0.09120  0.54900  0.28080  Biso   1.000  C
  C24      1.0000 0.88200  0.81260  0.34960  Biso   1.000  C
  C25      1.0000 0.70660  0.17470  0.46970  Biso   1.000  C
  C26      1.0000 0.60810  0.22290  0.39240  Biso   1.000  C
  H13      1.0000 0.57100  0.20700  0.31250  Biso   1.000  H
  C27      1.0000 0.56550  0.29450  0.43470  Biso   1.000  C
  C28      1.0000 0.62010  0.31610  0.55600  Biso   1.000  C
  H14      1.0000 0.59110  0.36290  0.58500  Biso   1.000  H
  C29      1.0000 0.71660  0.26820  0.63250  Biso   1.000  C
  H15      1.0000 0.75200  0.28210  0.71300  Biso   1.000  H
  C30      1.0000 0.76050  0.19890  0.58840  Biso   1.000  C
  H16      1.0000 0.82720  0.16850  0.63950  Biso   1.000  H
  C31      1.0000 0.75630  0.09770  0.42810  Biso   1.000  C
  C32      1.0000 0.46230  0.34910  0.35310  Biso   1.000  C
  Mn3      1.0000 0.72865  0.55711  0.75523  Biso   1.000  Mn
  O17      1.0000 0.02850  0.94310  0.67170  Biso   1.000  O
  O18      1.0000 0.18160  0.99900  0.82830  Biso   1.000  O
  O19      1.0000 0.80720  0.69530  0.74520  Biso   1.000  O
  O20      1.0000 0.88360  0.61830  0.91310  Biso   1.000  O
  O21      1.0000 0.85580  0.42650  0.99450  Biso   1.000  O
  O22      1.0000 0.69210  0.43910  0.82780  Biso   1.000  O
  O23      1.0000 0.41610  0.16490  0.74460  Biso   1.000  O
  O24      1.0000 0.42600  0.08910  0.90070  Biso   1.000  O
  C33      1.0000 0.06420  0.89410  0.86500  Biso   1.000  C
  C34      1.0000 0.98600  0.82240  0.82210  Biso   1.000  C
  H17      1.0000 0.94460  0.81350  0.74080  Biso   1.000  H
  C35      1.0000 0.96860  0.76330  0.90020  Biso   1.000  C
  C36      1.0000 0.02820  0.77700  0.02200  Biso   1.000  C
  H18      1.0000 0.01740  0.73760  0.07430  Biso   1.000  H
  C37      1.0000 0.10480  0.85140  0.06440  Biso   1.000  C
  H19      1.0000 0.14440  0.86240  0.14550  Biso   1.000  H
  C38      1.0000 0.12170  0.90830  0.98640  Biso   1.000  C
  H20      1.0000 0.17280  0.95740  0.01590  Biso   1.000  H
  C39      1.0000 0.09120  0.95100  0.78080  Biso   1.000  C
  C40      1.0000 0.88200  0.68740  0.84960  Biso   1.000  C
  C41      1.0000 0.70660  0.32530  0.96970  Biso   1.000  C
  C42      1.0000 0.60810  0.27710  0.89240  Biso   1.000  C
  H21      1.0000 0.57100  0.29300  0.81250  Biso   1.000  H
  C43      1.0000 0.56550  0.20550  0.93470  Biso   1.000  C
  C44      1.0000 0.62010  0.18390  0.05600  Biso   1.000  C
  H22      1.0000 0.59110  0.13710  0.08500  Biso   1.000  H
  C45      1.0000 0.71660  0.23180  0.13250  Biso   1.000  C
  H23      1.0000 0.75200  0.21790  0.21300  Biso   1.000  H
  C46      1.0000 0.76050  0.30110  0.08840  Biso   1.000  C
  H24      1.0000 0.82720  0.33150  0.13950  Biso   1.000  H
  C47      1.0000 0.75630  0.40230  0.92810  Biso   1.000  C
  C48      1.0000 0.46230  0.15090  0.85310  Biso   1.000  C
  Mn4      1.0000 0.27135  0.05711  0.74477  Biso   1.000  Mn
  O25      1.0000 0.97150  0.44310  0.82830  Biso   1.000  O
  O26      1.0000 0.81840  0.49900  0.67170  Biso   1.000  O
  O27      1.0000 0.19280  0.19530  0.75480  Biso   1.000  O
  O28      1.0000 0.11640  0.11830  0.58690  Biso   1.000  O
  O29      1.0000 0.14420  0.92650  0.50550  Biso   1.000  O
  O30      1.0000 0.30790  0.93910  0.67220  Biso   1.000  O
  O31      1.0000 0.58390  0.66490  0.75540  Biso   1.000  O
  O32      1.0000 0.57400  0.58910  0.59930  Biso   1.000  O
  C49      1.0000 0.93580  0.39410  0.63500  Biso   1.000  C
  C50      1.0000 0.01400  0.32240  0.67790  Biso   1.000  C
  H25      1.0000 0.05540  0.31350  0.75920  Biso   1.000  H
  C51      1.0000 0.03140  0.26330  0.59980  Biso   1.000  C
  C52      1.0000 0.97180  0.27700  0.47800  Biso   1.000  C
  H26      1.0000 0.98260  0.23760  0.42570  Biso   1.000  H
  C53      1.0000 0.89520  0.35140  0.43560  Biso   1.000  C
  H27      1.0000 0.85560  0.36240  0.35450  Biso   1.000  H
  C54      1.0000 0.87830  0.40830  0.51360  Biso   1.000  C
  H28      1.0000 0.82720  0.45740  0.48410  Biso   1.000  H
  C55      1.0000 0.90880  0.45100  0.71920  Biso   1.000  C
  C56      1.0000 0.11800  0.18740  0.65040  Biso   1.000  C
  C57      1.0000 0.29340  0.82530  0.53030  Biso   1.000  C
  C58      1.0000 0.39190  0.77710  0.60760  Biso   1.000  C
  H29      1.0000 0.42900  0.79300  0.68750  Biso   1.000  H
  C59      1.0000 0.43450  0.70550  0.56530  Biso   1.000  C
  C60      1.0000 0.37990  0.68390  0.44400  Biso   1.000  C
  H30      1.0000 0.40890  0.63710  0.41500  Biso   1.000  H
  C61      1.0000 0.28340  0.73180  0.36750  Biso   1.000  C
  H31      1.0000 0.24800  0.71790  0.28700  Biso   1.000  H
  C62      1.0000 0.23950  0.80110  0.41160  Biso   1.000  C
  H32      1.0000 0.17280  0.83150  0.36050  Biso   1.000  H
  C63      1.0000 0.24370  0.90230  0.57190  Biso   1.000  C
  C64      1.0000 0.53770  0.65090  0.64690  Biso   1.000  C
  Mn5      1.0000 0.00000  0.50000  0.00000  Biso   1.000  Mn
  Mn6      1.0000 0.00000  0.00000  0.50000  Biso   1.000  Mn
