data_image0
_cell_length_a       16.6165
_cell_length_b       16.6165
_cell_length_c       15.3366
_cell_angle_alpha    90
_cell_angle_beta     90
_cell_angle_gamma    120

_symmetry_space_group_name_H-M    "P 1"
_symmetry_int_tables_number       1

loop_
  _symmetry_equiv_pos_as_xyz
  'x, y, z'

loop_
  _atom_site_label
  _atom_site_occupancy
  _atom_site_fract_x
  _atom_site_fract_y
  _atom_site_fract_z
  _atom_site_thermal_displace_type
  _atom_site_B_iso_or_equiv
  _atom_site_type_symbol
  C1       1.0000 0.44550  0.03510  0.03150  Biso   1.000  C
  O1       1.0000 0.52000  0.17490  0.15646  Biso   1.000  O
  O2       1.0000 0.38570  0.06530  0.05410  Biso   1.000  O
  H1       1.0000 0.41020  0.10640  0.09090  Biso   1.000  H
  C2       1.0000 0.96490  0.41040  0.03150  Biso   1.000  C
  O3       1.0000 0.82510  0.34510  0.15646  Biso   1.000  O
  O4       1.0000 0.93470  0.32040  0.05410  Biso   1.000  O
  H2       1.0000 0.89360  0.30380  0.09090  Biso   1.000  H
  C3       1.0000 0.58960  0.55450  0.03150  Biso   1.000  C
  O5       1.0000 0.65490  0.48000  0.15646  Biso   1.000  O
  O6       1.0000 0.67960  0.61430  0.05410  Biso   1.000  O
  H3       1.0000 0.69620  0.58980  0.09090  Biso   1.000  H
  C4       1.0000 0.55450  0.96490  0.53150  Biso   1.000  C
  O7       1.0000 0.48000  0.82510  0.65646  Biso   1.000  O
  O8       1.0000 0.61430  0.93470  0.55410  Biso   1.000  O
  H4       1.0000 0.58980  0.89360  0.59090  Biso   1.000  H
  C5       1.0000 0.03510  0.58960  0.53150  Biso   1.000  C
  O9       1.0000 0.17490  0.65490  0.65646  Biso   1.000  O
  O10      1.0000 0.06530  0.67960  0.55410  Biso   1.000  O
  H5       1.0000 0.10640  0.69620  0.59090  Biso   1.000  H
  C6       1.0000 0.41040  0.44550  0.53150  Biso   1.000  C
  O11      1.0000 0.34510  0.52000  0.65646  Biso   1.000  O
  O12      1.0000 0.32040  0.38570  0.55410  Biso   1.000  O
  H6       1.0000 0.30380  0.41020  0.59090  Biso   1.000  H
  C7       1.0000 0.03510  0.44550  0.96850  Biso   1.000  C
  O13      1.0000 0.17490  0.52000  0.84354  Biso   1.000  O
  O14      1.0000 0.06530  0.38570  0.94590  Biso   1.000  O
  H7       1.0000 0.10640  0.41020  0.90910  Biso   1.000  H
  C8       1.0000 0.41040  0.96490  0.96850  Biso   1.000  C
  O15      1.0000 0.34510  0.82510  0.84354  Biso   1.000  O
  O16      1.0000 0.32040  0.93470  0.94590  Biso   1.000  O
  H8       1.0000 0.30380  0.89360  0.90910  Biso   1.000  H
  C9       1.0000 0.55450  0.58960  0.96850  Biso   1.000  C
  O17      1.0000 0.48000  0.65490  0.84354  Biso   1.000  O
  O18      1.0000 0.61430  0.67960  0.94590  Biso   1.000  O
  H9       1.0000 0.58980  0.69620  0.90910  Biso   1.000  H
  C10      1.0000 0.96490  0.55450  0.46850  Biso   1.000  C
  O19      1.0000 0.82510  0.48000  0.34354  Biso   1.000  O
  O20      1.0000 0.93470  0.61430  0.44590  Biso   1.000  O
  H10      1.0000 0.89360  0.58980  0.40910  Biso   1.000  H
  C11      1.0000 0.58960  0.03510  0.46850  Biso   1.000  C
  O21      1.0000 0.65490  0.17490  0.34354  Biso   1.000  O
  O22      1.0000 0.67960  0.06530  0.44590  Biso   1.000  O
  H11      1.0000 0.69620  0.10640  0.40910  Biso   1.000  H
  C12      1.0000 0.44550  0.41040  0.46850  Biso   1.000  C
  O23      1.0000 0.52000  0.34510  0.34354  Biso   1.000  O
  O24      1.0000 0.38570  0.32040  0.44590  Biso   1.000  O
  H12      1.0000 0.41020  0.30380  0.40910  Biso   1.000  H
  C13      1.0000 0.55450  0.96490  0.96850  Biso   1.000  C
  O25      1.0000 0.48000  0.82510  0.84354  Biso   1.000  O
  O26      1.0000 0.61430  0.93470  0.94590  Biso   1.000  O
  H13      1.0000 0.58980  0.89360  0.90910  Biso   1.000  H
  C14      1.0000 0.03510  0.58960  0.96850  Biso   1.000  C
  O27      1.0000 0.17490  0.65490  0.84354  Biso   1.000  O
  O28      1.0000 0.06530  0.67960  0.94590  Biso   1.000  O
  H14      1.0000 0.10640  0.69620  0.90910  Biso   1.000  H
  C15      1.0000 0.41040  0.44550  0.96850  Biso   1.000  C
  O29      1.0000 0.34510  0.52000  0.84354  Biso   1.000  O
  O30      1.0000 0.32040  0.38570  0.94590  Biso   1.000  O
  H15      1.0000 0.30380  0.41020  0.90910  Biso   1.000  H
  C16      1.0000 0.44550  0.03510  0.46850  Biso   1.000  C
  O31      1.0000 0.52000  0.17490  0.34354  Biso   1.000  O
  O32      1.0000 0.38570  0.06530  0.44590  Biso   1.000  O
  H16      1.0000 0.41020  0.10640  0.40910  Biso   1.000  H
  C17      1.0000 0.96490  0.41040  0.46850  Biso   1.000  C
  O33      1.0000 0.82510  0.34510  0.34354  Biso   1.000  O
  O34      1.0000 0.93470  0.32040  0.44590  Biso   1.000  O
  H17      1.0000 0.89360  0.30380  0.40910  Biso   1.000  H
  C18      1.0000 0.58960  0.55450  0.46850  Biso   1.000  C
  O35      1.0000 0.65490  0.48000  0.34354  Biso   1.000  O
  O36      1.0000 0.67960  0.61430  0.44590  Biso   1.000  O
  H18      1.0000 0.69620  0.58980  0.40910  Biso   1.000  H
  C19      1.0000 0.96490  0.55450  0.03150  Biso   1.000  C
  O37      1.0000 0.82510  0.48000  0.15646  Biso   1.000  O
  O38      1.0000 0.93470  0.61430  0.05410  Biso   1.000  O
  H19      1.0000 0.89360  0.58980  0.09090  Biso   1.000  H
  C20      1.0000 0.58960  0.03510  0.03150  Biso   1.000  C
  O39      1.0000 0.65490  0.17490  0.15646  Biso   1.000  O
  O40      1.0000 0.67960  0.06530  0.05410  Biso   1.000  O
  H20      1.0000 0.69620  0.10640  0.09090  Biso   1.000  H
  C21      1.0000 0.44550  0.41040  0.03150  Biso   1.000  C
  O41      1.0000 0.52000  0.34510  0.15646  Biso   1.000  O
  O42      1.0000 0.38570  0.32040  0.05410  Biso   1.000  O
  H21      1.0000 0.41020  0.30380  0.09090  Biso   1.000  H
  C22      1.0000 0.03510  0.44550  0.53150  Biso   1.000  C
  O43      1.0000 0.17490  0.52000  0.65646  Biso   1.000  O
  O44      1.0000 0.06530  0.38570  0.55410  Biso   1.000  O
  H22      1.0000 0.10640  0.41020  0.59090  Biso   1.000  H
  C23      1.0000 0.41040  0.96490  0.53150  Biso   1.000  C
  O45      1.0000 0.34510  0.82510  0.65646  Biso   1.000  O
  O46      1.0000 0.32040  0.93470  0.55410  Biso   1.000  O
  H23      1.0000 0.30380  0.89360  0.59090  Biso   1.000  H
  C24      1.0000 0.55450  0.58960  0.53150  Biso   1.000  C
  O47      1.0000 0.48000  0.65490  0.65646  Biso   1.000  O
  O48      1.0000 0.61430  0.67960  0.55410  Biso   1.000  O
  H24      1.0000 0.58980  0.69620  0.59090  Biso   1.000  H
  Mg1      1.0000 0.53007  0.26503  0.25000  Biso   1.000  Mg
  N1       1.0000 0.38130  0.19065  0.25000  Biso   1.000  N
  C25      1.0000 0.19910  0.09955  0.25000  Biso   1.000  C
  C26      1.0000 0.09380  0.04690  0.25000  Biso   1.000  C
  Mg2      1.0000 0.73497  0.26503  0.25000  Biso   1.000  Mg
  N2       1.0000 0.80935  0.19065  0.25000  Biso   1.000  N
  C27      1.0000 0.90045  0.09955  0.25000  Biso   1.000  C
  C28      1.0000 0.95310  0.04690  0.25000  Biso   1.000  C
  Mg3      1.0000 0.73497  0.46993  0.25000  Biso   1.000  Mg
  N3       1.0000 0.80935  0.61870  0.25000  Biso   1.000  N
  C29      1.0000 0.90045  0.80090  0.25000  Biso   1.000  C
  C30      1.0000 0.95310  0.90620  0.25000  Biso   1.000  C
  Mg4      1.0000 0.46993  0.73497  0.75000  Biso   1.000  Mg
  N4       1.0000 0.61870  0.80935  0.75000  Biso   1.000  N
  C31      1.0000 0.80090  0.90045  0.75000  Biso   1.000  C
  C32      1.0000 0.90620  0.95310  0.75000  Biso   1.000  C
  Mg5      1.0000 0.26503  0.73497  0.75000  Biso   1.000  Mg
  N5       1.0000 0.19065  0.80935  0.75000  Biso   1.000  N
  C33      1.0000 0.09955  0.90045  0.75000  Biso   1.000  C
  C34      1.0000 0.04690  0.95310  0.75000  Biso   1.000  C
  Mg6      1.0000 0.26503  0.53007  0.75000  Biso   1.000  Mg
  N6       1.0000 0.19065  0.38130  0.75000  Biso   1.000  N
  C35      1.0000 0.09955  0.19910  0.75000  Biso   1.000  C
  C36      1.0000 0.04690  0.09380  0.75000  Biso   1.000  C
  C37      1.0000 0.57260  0.14520  0.13080  Biso   1.000  C
  C38      1.0000 0.53505  0.07010  0.06270  Biso   1.000  C
  C39      1.0000 0.85480  0.42740  0.13080  Biso   1.000  C
  C40      1.0000 0.92990  0.46495  0.06270  Biso   1.000  C
  C41      1.0000 0.57260  0.42740  0.13080  Biso   1.000  C
  C42      1.0000 0.53505  0.46495  0.06270  Biso   1.000  C
  C43      1.0000 0.42740  0.85480  0.63080  Biso   1.000  C
  C44      1.0000 0.46495  0.92990  0.56270  Biso   1.000  C
  C45      1.0000 0.14520  0.57260  0.63080  Biso   1.000  C
  C46      1.0000 0.07010  0.53505  0.56270  Biso   1.000  C
  C47      1.0000 0.42740  0.57260  0.63080  Biso   1.000  C
  C48      1.0000 0.46495  0.53505  0.56270  Biso   1.000  C
  C49      1.0000 0.14520  0.57260  0.86920  Biso   1.000  C
  C50      1.0000 0.07010  0.53505  0.93730  Biso   1.000  C
  C51      1.0000 0.42740  0.85480  0.86920  Biso   1.000  C
  C52      1.0000 0.46495  0.92990  0.93730  Biso   1.000  C
  C53      1.0000 0.42740  0.57260  0.86920  Biso   1.000  C
  C54      1.0000 0.46495  0.53505  0.93730  Biso   1.000  C
  C55      1.0000 0.85480  0.42740  0.36920  Biso   1.000  C
  C56      1.0000 0.92990  0.46495  0.43730  Biso   1.000  C
  C57      1.0000 0.57260  0.14520  0.36920  Biso   1.000  C
  C58      1.0000 0.53505  0.07010  0.43730  Biso   1.000  C
  C59      1.0000 0.57260  0.42740  0.36920  Biso   1.000  C
  C60      1.0000 0.53505  0.46495  0.43730  Biso   1.000  C
  C61      1.0000 0.33720  0.23970  0.25000  Biso   1.000  C
  H25      1.0000 0.37060  0.30430  0.25000  Biso   1.000  H
  C62      1.0000 0.24270  0.19330  0.25000  Biso   1.000  C
  H26      1.0000 0.20960  0.22470  0.25000  Biso   1.000  H
  C63      1.0000 0.76030  0.09750  0.25000  Biso   1.000  C
  H27      1.0000 0.69570  0.06630  0.25000  Biso   1.000  H
  C64      1.0000 0.80670  0.04940  0.25000  Biso   1.000  C
  H28      1.0000 0.77530  0.98490  0.25000  Biso   1.000  H
  C65      1.0000 0.90250  0.66280  0.25000  Biso   1.000  C
  H29      1.0000 0.93370  0.62940  0.25000  Biso   1.000  H
  C66      1.0000 0.95060  0.75730  0.25000  Biso   1.000  C
  H30      1.0000 0.01510  0.79040  0.25000  Biso   1.000  H
  C67      1.0000 0.66280  0.76030  0.75000  Biso   1.000  C
  H31      1.0000 0.62940  0.69570  0.75000  Biso   1.000  H
  C68      1.0000 0.75730  0.80670  0.75000  Biso   1.000  C
  H32      1.0000 0.79040  0.77530  0.75000  Biso   1.000  H
  C69      1.0000 0.23970  0.90250  0.75000  Biso   1.000  C
  H33      1.0000 0.30430  0.93370  0.75000  Biso   1.000  H
  C70      1.0000 0.19330  0.95060  0.75000  Biso   1.000  C
  H34      1.0000 0.22470  0.01510  0.75000  Biso   1.000  H
  C71      1.0000 0.09750  0.33720  0.75000  Biso   1.000  C
  H35      1.0000 0.06630  0.37060  0.75000  Biso   1.000  H
  C72      1.0000 0.04940  0.24270  0.75000  Biso   1.000  C
  H36      1.0000 0.98490  0.20960  0.75000  Biso   1.000  H
  C73      1.0000 0.23970  0.33720  0.75000  Biso   1.000  C
  H37      1.0000 0.30430  0.37060  0.75000  Biso   1.000  H
  C74      1.0000 0.19330  0.24270  0.75000  Biso   1.000  C
  H38      1.0000 0.22470  0.20960  0.75000  Biso   1.000  H
  C75      1.0000 0.09750  0.76030  0.75000  Biso   1.000  C
  H39      1.0000 0.06630  0.69570  0.75000  Biso   1.000  H
  C76      1.0000 0.04940  0.80670  0.75000  Biso   1.000  C
  H40      1.0000 0.98490  0.77530  0.75000  Biso   1.000  H
  C77      1.0000 0.66280  0.90250  0.75000  Biso   1.000  C
  H41      1.0000 0.62940  0.93370  0.75000  Biso   1.000  H
  C78      1.0000 0.75730  0.95060  0.75000  Biso   1.000  C
  H42      1.0000 0.79040  0.01510  0.75000  Biso   1.000  H
  C79      1.0000 0.76030  0.66280  0.25000  Biso   1.000  C
  H43      1.0000 0.69570  0.62940  0.25000  Biso   1.000  H
  C80      1.0000 0.80670  0.75730  0.25000  Biso   1.000  C
  H44      1.0000 0.77530  0.79040  0.25000  Biso   1.000  H
  C81      1.0000 0.90250  0.23970  0.25000  Biso   1.000  C
  H45      1.0000 0.93370  0.30430  0.25000  Biso   1.000  H
  C82      1.0000 0.95060  0.19330  0.25000  Biso   1.000  C
  H46      1.0000 0.01510  0.22470  0.25000  Biso   1.000  H
  C83      1.0000 0.33720  0.09750  0.25000  Biso   1.000  C
  H47      1.0000 0.37060  0.06630  0.25000  Biso   1.000  H
  C84      1.0000 0.24270  0.04940  0.25000  Biso   1.000  C
  H48      1.0000 0.20960  0.98490  0.25000  Biso   1.000  H
  O49      1.0000 0.66667  0.33333  0.25000  Biso   1.000  O
  O50      1.0000 0.33333  0.66667  0.75000  Biso   1.000  O
  N7       1.0000 0.04720  0.09440  0.25000  Biso   1.000  N
  N8       1.0000 0.90560  0.95280  0.25000  Biso   1.000  N
  N9       1.0000 0.04720  0.95280  0.25000  Biso   1.000  N
  N10      1.0000 0.95280  0.90560  0.75000  Biso   1.000  N
  N11      1.0000 0.09440  0.04720  0.75000  Biso   1.000  N
  N12      1.0000 0.95280  0.04720  0.75000  Biso   1.000  N
