data_image0
_cell_length_a       16.2122
_cell_length_b       16.2122
_cell_length_c       16.0642
_cell_angle_alpha    90
_cell_angle_beta     90
_cell_angle_gamma    120

_symmetry_space_group_name_H-M    "P 1"
_symmetry_int_tables_number       1

loop_
  _symmetry_equiv_pos_as_xyz
  'x, y, z'

loop_
  _atom_site_label
  _atom_site_occupancy
  _atom_site_fract_x
  _atom_site_fract_y
  _atom_site_fract_z
  _atom_site_thermal_displace_type
  _atom_site_B_iso_or_equiv
  _atom_site_type_symbol
  C1       1.0000 0.03364  0.44307  0.03188  Biso   1.000  C
  O1       1.0000 0.16931  0.65341  0.15827  Biso   1.000  O
  O2       1.0000 0.06330  0.38340  0.05830  Biso   1.000  O
  H1       1.0000 0.10680  0.41310  0.09640  Biso   1.000  H
  C2       1.0000 0.55693  0.59057  0.03188  Biso   1.000  C
  O3       1.0000 0.34659  0.51590  0.15827  Biso   1.000  O
  O4       1.0000 0.61660  0.67990  0.05830  Biso   1.000  O
  H2       1.0000 0.58690  0.69370  0.09640  Biso   1.000  H
  C3       1.0000 0.40943  0.96636  0.03188  Biso   1.000  C
  O5       1.0000 0.48410  0.83069  0.15827  Biso   1.000  O
  O6       1.0000 0.32010  0.93670  0.05830  Biso   1.000  O
  H3       1.0000 0.30630  0.89320  0.09640  Biso   1.000  H
  C4       1.0000 0.96636  0.55693  0.53188  Biso   1.000  C
  O7       1.0000 0.83069  0.34659  0.65827  Biso   1.000  O
  O8       1.0000 0.93670  0.61660  0.55830  Biso   1.000  O
  H4       1.0000 0.89320  0.58690  0.59640  Biso   1.000  H
  C5       1.0000 0.44307  0.40943  0.53188  Biso   1.000  C
  O9       1.0000 0.65341  0.48410  0.65827  Biso   1.000  O
  O10      1.0000 0.38340  0.32010  0.55830  Biso   1.000  O
  H5       1.0000 0.41310  0.30630  0.59640  Biso   1.000  H
  C6       1.0000 0.59057  0.03364  0.53188  Biso   1.000  C
  O11      1.0000 0.51590  0.16931  0.65827  Biso   1.000  O
  O12      1.0000 0.67990  0.06330  0.55830  Biso   1.000  O
  H6       1.0000 0.69370  0.10680  0.59640  Biso   1.000  H
  C7       1.0000 0.44307  0.03364  0.96812  Biso   1.000  C
  O13      1.0000 0.65341  0.16931  0.84173  Biso   1.000  O
  O14      1.0000 0.38340  0.06330  0.94170  Biso   1.000  O
  H7       1.0000 0.41310  0.10680  0.90360  Biso   1.000  H
  C8       1.0000 0.59057  0.55693  0.96812  Biso   1.000  C
  O15      1.0000 0.51590  0.34659  0.84173  Biso   1.000  O
  O16      1.0000 0.67990  0.61660  0.94170  Biso   1.000  O
  H8       1.0000 0.69370  0.58690  0.90360  Biso   1.000  H
  C9       1.0000 0.96636  0.40943  0.96812  Biso   1.000  C
  O17      1.0000 0.83069  0.48410  0.84173  Biso   1.000  O
  O18      1.0000 0.93670  0.32010  0.94170  Biso   1.000  O
  H9       1.0000 0.89320  0.30630  0.90360  Biso   1.000  H
  C10      1.0000 0.55693  0.96636  0.46812  Biso   1.000  C
  O19      1.0000 0.34659  0.83069  0.34173  Biso   1.000  O
  O20      1.0000 0.61660  0.93670  0.44170  Biso   1.000  O
  H10      1.0000 0.58690  0.89320  0.40360  Biso   1.000  H
  C11      1.0000 0.40943  0.44307  0.46812  Biso   1.000  C
  O21      1.0000 0.48410  0.65341  0.34173  Biso   1.000  O
  O22      1.0000 0.32010  0.38340  0.44170  Biso   1.000  O
  H11      1.0000 0.30630  0.41310  0.40360  Biso   1.000  H
  C12      1.0000 0.03364  0.59057  0.46812  Biso   1.000  C
  O23      1.0000 0.16931  0.51590  0.34173  Biso   1.000  O
  O24      1.0000 0.06330  0.67990  0.44170  Biso   1.000  O
  H12      1.0000 0.10680  0.69370  0.40360  Biso   1.000  H
  C13      1.0000 0.96636  0.55693  0.96812  Biso   1.000  C
  O25      1.0000 0.83069  0.34659  0.84173  Biso   1.000  O
  O26      1.0000 0.93670  0.61660  0.94170  Biso   1.000  O
  H13      1.0000 0.89320  0.58690  0.90360  Biso   1.000  H
  C14      1.0000 0.44307  0.40943  0.96812  Biso   1.000  C
  O27      1.0000 0.65341  0.48410  0.84173  Biso   1.000  O
  O28      1.0000 0.38340  0.32010  0.94170  Biso   1.000  O
  H14      1.0000 0.41310  0.30630  0.90360  Biso   1.000  H
  C15      1.0000 0.59057  0.03364  0.96812  Biso   1.000  C
  O29      1.0000 0.51590  0.16931  0.84173  Biso   1.000  O
  O30      1.0000 0.67990  0.06330  0.94170  Biso   1.000  O
  H15      1.0000 0.69370  0.10680  0.90360  Biso   1.000  H
  C16      1.0000 0.03364  0.44307  0.46812  Biso   1.000  C
  O31      1.0000 0.16931  0.65341  0.34173  Biso   1.000  O
  O32      1.0000 0.06330  0.38340  0.44170  Biso   1.000  O
  H16      1.0000 0.10680  0.41310  0.40360  Biso   1.000  H
  C17      1.0000 0.55693  0.59057  0.46812  Biso   1.000  C
  O33      1.0000 0.34659  0.51590  0.34173  Biso   1.000  O
  O34      1.0000 0.61660  0.67990  0.44170  Biso   1.000  O
  H17      1.0000 0.58690  0.69370  0.40360  Biso   1.000  H
  C18      1.0000 0.40943  0.96636  0.46812  Biso   1.000  C
  O35      1.0000 0.48410  0.83069  0.34173  Biso   1.000  O
  O36      1.0000 0.32010  0.93670  0.44170  Biso   1.000  O
  H18      1.0000 0.30630  0.89320  0.40360  Biso   1.000  H
  C19      1.0000 0.55693  0.96636  0.03188  Biso   1.000  C
  O37      1.0000 0.34659  0.83069  0.15827  Biso   1.000  O
  O38      1.0000 0.61660  0.93670  0.05830  Biso   1.000  O
  H19      1.0000 0.58690  0.89320  0.09640  Biso   1.000  H
  C20      1.0000 0.40943  0.44307  0.03188  Biso   1.000  C
  O39      1.0000 0.48410  0.65341  0.15827  Biso   1.000  O
  O40      1.0000 0.32010  0.38340  0.05830  Biso   1.000  O
  H20      1.0000 0.30630  0.41310  0.09640  Biso   1.000  H
  C21      1.0000 0.03364  0.59057  0.03188  Biso   1.000  C
  O41      1.0000 0.16931  0.51590  0.15827  Biso   1.000  O
  O42      1.0000 0.06330  0.67990  0.05830  Biso   1.000  O
  H21      1.0000 0.10680  0.69370  0.09640  Biso   1.000  H
  C22      1.0000 0.44307  0.03364  0.53188  Biso   1.000  C
  O43      1.0000 0.65341  0.16931  0.65827  Biso   1.000  O
  O44      1.0000 0.38340  0.06330  0.55830  Biso   1.000  O
  H22      1.0000 0.41310  0.10680  0.59640  Biso   1.000  H
  C23      1.0000 0.59057  0.55693  0.53188  Biso   1.000  C
  O45      1.0000 0.51590  0.34659  0.65827  Biso   1.000  O
  O46      1.0000 0.67990  0.61660  0.55830  Biso   1.000  O
  H23      1.0000 0.69370  0.58690  0.59640  Biso   1.000  H
  C24      1.0000 0.96636  0.40943  0.53188  Biso   1.000  C
  O47      1.0000 0.83069  0.48410  0.65827  Biso   1.000  O
  O48      1.0000 0.93670  0.32010  0.55830  Biso   1.000  O
  H24      1.0000 0.89320  0.30630  0.59640  Biso   1.000  H
  Mg1      1.0000 0.26181  0.73819  0.25000  Biso   1.000  Mg
  Mg2      1.0000 0.26181  0.52362  0.25000  Biso   1.000  Mg
  Mg3      1.0000 0.47638  0.73819  0.25000  Biso   1.000  Mg
  Mg4      1.0000 0.73819  0.26181  0.75000  Biso   1.000  Mg
  Mg5      1.0000 0.73819  0.47638  0.75000  Biso   1.000  Mg
  Mg6      1.0000 0.52362  0.26181  0.75000  Biso   1.000  Mg
  C25      1.0000 0.06880  0.53440  0.06374  Biso   1.000  C
  C26      1.0000 0.14200  0.57100  0.13133  Biso   1.000  C
  C27      1.0000 0.46560  0.53440  0.06374  Biso   1.000  C
  C28      1.0000 0.42900  0.57100  0.13133  Biso   1.000  C
  C29      1.0000 0.46560  0.93120  0.06374  Biso   1.000  C
  C30      1.0000 0.42900  0.85800  0.13133  Biso   1.000  C
  C31      1.0000 0.93120  0.46560  0.56374  Biso   1.000  C
  C32      1.0000 0.85800  0.42900  0.63133  Biso   1.000  C
  C33      1.0000 0.53440  0.46560  0.56374  Biso   1.000  C
  C34      1.0000 0.57100  0.42900  0.63133  Biso   1.000  C
  C35      1.0000 0.53440  0.06880  0.56374  Biso   1.000  C
  C36      1.0000 0.57100  0.14200  0.63133  Biso   1.000  C
  C37      1.0000 0.53440  0.06880  0.93626  Biso   1.000  C
  C38      1.0000 0.57100  0.14200  0.86867  Biso   1.000  C
  C39      1.0000 0.53440  0.46560  0.93626  Biso   1.000  C
  C40      1.0000 0.57100  0.42900  0.86867  Biso   1.000  C
  C41      1.0000 0.93120  0.46560  0.93626  Biso   1.000  C
  C42      1.0000 0.85800  0.42900  0.86867  Biso   1.000  C
  C43      1.0000 0.46560  0.93120  0.43626  Biso   1.000  C
  C44      1.0000 0.42900  0.85800  0.36867  Biso   1.000  C
  C45      1.0000 0.46560  0.53440  0.43626  Biso   1.000  C
  C46      1.0000 0.42900  0.57100  0.36867  Biso   1.000  C
  C47      1.0000 0.06880  0.53440  0.43626  Biso   1.000  C
  C48      1.0000 0.14200  0.57100  0.36867  Biso   1.000  C
  O49      1.0000 0.33333  0.66667  0.25000  Biso   1.000  O
  O50      1.0000 0.66667  0.33333  0.75000  Biso   1.000  O
