data_image0
_cell_length_a       16.9065
_cell_length_b       16.9065
_cell_length_c       14.7154
_cell_angle_alpha    90
_cell_angle_beta     90
_cell_angle_gamma    120

_symmetry_space_group_name_H-M    "P 1"
_symmetry_int_tables_number       1

loop_
  _symmetry_equiv_pos_as_xyz
  'x, y, z'

loop_
  _atom_site_label
  _atom_site_occupancy
  _atom_site_fract_x
  _atom_site_fract_y
  _atom_site_fract_z
  _atom_site_thermal_displace_type
  _atom_site_B_iso_or_equiv
  _atom_site_type_symbol
  O1       1.0000 0.52359  0.17850  0.65400  Biso   1.000  O
  C1       1.0000 0.45240  0.03760  0.53000  Biso   1.000  C
  N1       1.0000 0.39090  0.07250  0.55670  Biso   1.000  N
  O2       1.0000 0.41400  0.13720  0.50470  Biso   1.000  O
  O3       1.0000 0.33300  0.04200  0.61570  Biso   1.000  O
  O4       1.0000 0.82150  0.34509  0.65400  Biso   1.000  O
  C2       1.0000 0.96240  0.41480  0.53000  Biso   1.000  C
  N2       1.0000 0.92750  0.31840  0.55670  Biso   1.000  N
  O5       1.0000 0.86280  0.27680  0.50470  Biso   1.000  O
  O6       1.0000 0.95800  0.29100  0.61570  Biso   1.000  O
  O7       1.0000 0.65491  0.47641  0.65400  Biso   1.000  O
  C3       1.0000 0.58520  0.54760  0.53000  Biso   1.000  C
  N3       1.0000 0.68160  0.60910  0.55670  Biso   1.000  N
  O8       1.0000 0.72320  0.58600  0.50470  Biso   1.000  O
  O9       1.0000 0.70900  0.66700  0.61570  Biso   1.000  O
  O10      1.0000 0.47641  0.82150  0.15400  Biso   1.000  O
  C4       1.0000 0.54760  0.96240  0.03000  Biso   1.000  C
  N4       1.0000 0.60910  0.92750  0.05670  Biso   1.000  N
  O11      1.0000 0.58600  0.86280  0.00470  Biso   1.000  O
  O12      1.0000 0.66700  0.95800  0.11570  Biso   1.000  O
  O13      1.0000 0.17850  0.65491  0.15400  Biso   1.000  O
  C5       1.0000 0.03760  0.58520  0.03000  Biso   1.000  C
  N5       1.0000 0.07250  0.68160  0.05670  Biso   1.000  N
  O14      1.0000 0.13720  0.72320  0.00470  Biso   1.000  O
  O15      1.0000 0.04200  0.70900  0.11570  Biso   1.000  O
  O16      1.0000 0.34509  0.52359  0.15400  Biso   1.000  O
  C6       1.0000 0.41480  0.45240  0.03000  Biso   1.000  C
  N6       1.0000 0.31840  0.39090  0.05670  Biso   1.000  N
  O17      1.0000 0.27680  0.41400  0.00470  Biso   1.000  O
  O18      1.0000 0.29100  0.33300  0.11570  Biso   1.000  O
  O19      1.0000 0.17850  0.52359  0.34600  Biso   1.000  O
  C7       1.0000 0.03760  0.45240  0.47000  Biso   1.000  C
  N7       1.0000 0.07250  0.39090  0.44330  Biso   1.000  N
  O20      1.0000 0.13720  0.41400  0.49530  Biso   1.000  O
  O21      1.0000 0.04200  0.33300  0.38430  Biso   1.000  O
  O22      1.0000 0.34509  0.82150  0.34600  Biso   1.000  O
  C8       1.0000 0.41480  0.96240  0.47000  Biso   1.000  C
  N8       1.0000 0.31840  0.92750  0.44330  Biso   1.000  N
  O23      1.0000 0.27680  0.86280  0.49530  Biso   1.000  O
  O24      1.0000 0.29100  0.95800  0.38430  Biso   1.000  O
  O25      1.0000 0.47641  0.65491  0.34600  Biso   1.000  O
  C9       1.0000 0.54760  0.58520  0.47000  Biso   1.000  C
  N9       1.0000 0.60910  0.68160  0.44330  Biso   1.000  N
  O26      1.0000 0.58600  0.72320  0.49530  Biso   1.000  O
  O27      1.0000 0.66700  0.70900  0.38430  Biso   1.000  O
  O28      1.0000 0.82150  0.47641  0.84600  Biso   1.000  O
  C10      1.0000 0.96240  0.54760  0.97000  Biso   1.000  C
  N10      1.0000 0.92750  0.60910  0.94330  Biso   1.000  N
  O29      1.0000 0.86280  0.58600  0.99530  Biso   1.000  O
  O30      1.0000 0.95800  0.66700  0.88430  Biso   1.000  O
  O31      1.0000 0.65491  0.17850  0.84600  Biso   1.000  O
  C11      1.0000 0.58520  0.03760  0.97000  Biso   1.000  C
  N11      1.0000 0.68160  0.07250  0.94330  Biso   1.000  N
  O32      1.0000 0.72320  0.13720  0.99530  Biso   1.000  O
  O33      1.0000 0.70900  0.04200  0.88430  Biso   1.000  O
  O34      1.0000 0.52359  0.34509  0.84600  Biso   1.000  O
  C12      1.0000 0.45240  0.41480  0.97000  Biso   1.000  C
  N12      1.0000 0.39090  0.31840  0.94330  Biso   1.000  N
  O35      1.0000 0.41400  0.27680  0.99530  Biso   1.000  O
  O36      1.0000 0.33300  0.29100  0.88430  Biso   1.000  O
  O37      1.0000 0.47641  0.82150  0.34600  Biso   1.000  O
  C13      1.0000 0.54760  0.96240  0.47000  Biso   1.000  C
  N13      1.0000 0.60910  0.92750  0.44330  Biso   1.000  N
  O38      1.0000 0.58600  0.86280  0.49530  Biso   1.000  O
  O39      1.0000 0.66700  0.95800  0.38430  Biso   1.000  O
  O40      1.0000 0.17850  0.65491  0.34600  Biso   1.000  O
  C14      1.0000 0.03760  0.58520  0.47000  Biso   1.000  C
  N14      1.0000 0.07250  0.68160  0.44330  Biso   1.000  N
  O41      1.0000 0.13720  0.72320  0.49530  Biso   1.000  O
  O42      1.0000 0.04200  0.70900  0.38430  Biso   1.000  O
  O43      1.0000 0.34509  0.52359  0.34600  Biso   1.000  O
  C15      1.0000 0.41480  0.45240  0.47000  Biso   1.000  C
  N15      1.0000 0.31840  0.39090  0.44330  Biso   1.000  N
  O44      1.0000 0.27680  0.41400  0.49530  Biso   1.000  O
  O45      1.0000 0.29100  0.33300  0.38430  Biso   1.000  O
  O46      1.0000 0.52359  0.17850  0.84600  Biso   1.000  O
  C16      1.0000 0.45240  0.03760  0.97000  Biso   1.000  C
  N16      1.0000 0.39090  0.07250  0.94330  Biso   1.000  N
  O47      1.0000 0.41400  0.13720  0.99530  Biso   1.000  O
  O48      1.0000 0.33300  0.04200  0.88430  Biso   1.000  O
  O49      1.0000 0.82150  0.34509  0.84600  Biso   1.000  O
  C17      1.0000 0.96240  0.41480  0.97000  Biso   1.000  C
  N17      1.0000 0.92750  0.31840  0.94330  Biso   1.000  N
  O50      1.0000 0.86280  0.27680  0.99530  Biso   1.000  O
  O51      1.0000 0.95800  0.29100  0.88430  Biso   1.000  O
  O52      1.0000 0.65491  0.47641  0.84600  Biso   1.000  O
  C18      1.0000 0.58520  0.54760  0.97000  Biso   1.000  C
  N18      1.0000 0.68160  0.60910  0.94330  Biso   1.000  N
  O53      1.0000 0.72320  0.58600  0.99530  Biso   1.000  O
  O54      1.0000 0.70900  0.66700  0.88430  Biso   1.000  O
  O55      1.0000 0.82150  0.47641  0.65400  Biso   1.000  O
  C19      1.0000 0.96240  0.54760  0.53000  Biso   1.000  C
  N19      1.0000 0.92750  0.60910  0.55670  Biso   1.000  N
  O56      1.0000 0.86280  0.58600  0.50470  Biso   1.000  O
  O57      1.0000 0.95800  0.66700  0.61570  Biso   1.000  O
  O58      1.0000 0.65491  0.17850  0.65400  Biso   1.000  O
  C20      1.0000 0.58520  0.03760  0.53000  Biso   1.000  C
  N20      1.0000 0.68160  0.07250  0.55670  Biso   1.000  N
  O59      1.0000 0.72320  0.13720  0.50470  Biso   1.000  O
  O60      1.0000 0.70900  0.04200  0.61570  Biso   1.000  O
  O61      1.0000 0.52359  0.34509  0.65400  Biso   1.000  O
  C21      1.0000 0.45240  0.41480  0.53000  Biso   1.000  C
  N21      1.0000 0.39090  0.31840  0.55670  Biso   1.000  N
  O62      1.0000 0.41400  0.27680  0.50470  Biso   1.000  O
  O63      1.0000 0.33300  0.29100  0.61570  Biso   1.000  O
  O64      1.0000 0.17850  0.52359  0.15400  Biso   1.000  O
  C22      1.0000 0.03760  0.45240  0.03000  Biso   1.000  C
  N22      1.0000 0.07250  0.39090  0.05670  Biso   1.000  N
  O65      1.0000 0.13720  0.41400  0.00470  Biso   1.000  O
  O66      1.0000 0.04200  0.33300  0.11570  Biso   1.000  O
  O67      1.0000 0.34509  0.82150  0.15400  Biso   1.000  O
  C23      1.0000 0.41480  0.96240  0.03000  Biso   1.000  C
  N23      1.0000 0.31840  0.92750  0.05670  Biso   1.000  N
  O68      1.0000 0.27680  0.86280  0.00470  Biso   1.000  O
  O69      1.0000 0.29100  0.95800  0.11570  Biso   1.000  O
  O70      1.0000 0.47641  0.65491  0.15400  Biso   1.000  O
  C24      1.0000 0.54760  0.58520  0.03000  Biso   1.000  C
  N24      1.0000 0.60910  0.68160  0.05670  Biso   1.000  N
  O71      1.0000 0.58600  0.72320  0.00470  Biso   1.000  O
  O72      1.0000 0.66700  0.70900  0.11570  Biso   1.000  O
  Mg1      1.0000 0.53289  0.26645  0.75000  Biso   1.000  Mg
  N25      1.0000 0.38000  0.19000  0.75000  Biso   1.000  N
  C25      1.0000 0.19080  0.09540  0.75000  Biso   1.000  C
  C26      1.0000 0.08860  0.04430  0.75000  Biso   1.000  C
  Mg2      1.0000 0.73355  0.26645  0.75000  Biso   1.000  Mg
  N26      1.0000 0.81000  0.19000  0.75000  Biso   1.000  N
  C27      1.0000 0.90460  0.09540  0.75000  Biso   1.000  C
  C28      1.0000 0.95570  0.04430  0.75000  Biso   1.000  C
  Mg3      1.0000 0.73356  0.46711  0.75000  Biso   1.000  Mg
  N27      1.0000 0.81000  0.62000  0.75000  Biso   1.000  N
  C29      1.0000 0.90460  0.80920  0.75000  Biso   1.000  C
  C30      1.0000 0.95570  0.91140  0.75000  Biso   1.000  C
  Mg4      1.0000 0.46711  0.73356  0.25000  Biso   1.000  Mg
  N28      1.0000 0.62000  0.81000  0.25000  Biso   1.000  N
  C31      1.0000 0.80920  0.90460  0.25000  Biso   1.000  C
  C32      1.0000 0.91140  0.95570  0.25000  Biso   1.000  C
  Mg5      1.0000 0.26645  0.73356  0.25000  Biso   1.000  Mg
  N29      1.0000 0.19000  0.81000  0.25000  Biso   1.000  N
  C33      1.0000 0.09540  0.90460  0.25000  Biso   1.000  C
  C34      1.0000 0.04430  0.95570  0.25000  Biso   1.000  C
  Mg6      1.0000 0.26644  0.53289  0.25000  Biso   1.000  Mg
  N30      1.0000 0.19000  0.38000  0.25000  Biso   1.000  N
  C35      1.0000 0.09540  0.19080  0.25000  Biso   1.000  C
  C36      1.0000 0.04430  0.08860  0.25000  Biso   1.000  C
  O73      1.0000 0.66667  0.33333  0.75000  Biso   1.000  O
  O74      1.0000 0.33333  0.66667  0.25000  Biso   1.000  O
  C37      1.0000 0.57515  0.15030  0.62850  Biso   1.000  C
  C38      1.0000 0.53705  0.07410  0.55970  Biso   1.000  C
  C39      1.0000 0.84970  0.42485  0.62850  Biso   1.000  C
  C40      1.0000 0.92590  0.46295  0.55970  Biso   1.000  C
  C41      1.0000 0.57515  0.42485  0.62850  Biso   1.000  C
  C42      1.0000 0.53705  0.46295  0.55970  Biso   1.000  C
  C43      1.0000 0.42485  0.84970  0.12850  Biso   1.000  C
  C44      1.0000 0.46295  0.92590  0.05970  Biso   1.000  C
  C45      1.0000 0.15030  0.57515  0.12850  Biso   1.000  C
  C46      1.0000 0.07410  0.53705  0.05970  Biso   1.000  C
  C47      1.0000 0.42485  0.57515  0.12850  Biso   1.000  C
  C48      1.0000 0.46295  0.53705  0.05970  Biso   1.000  C
  C49      1.0000 0.15030  0.57515  0.37150  Biso   1.000  C
  C50      1.0000 0.07410  0.53705  0.44030  Biso   1.000  C
  C51      1.0000 0.42485  0.84970  0.37150  Biso   1.000  C
  C52      1.0000 0.46295  0.92590  0.44030  Biso   1.000  C
  C53      1.0000 0.42485  0.57515  0.37150  Biso   1.000  C
  C54      1.0000 0.46295  0.53705  0.44030  Biso   1.000  C
  C55      1.0000 0.84970  0.42485  0.87150  Biso   1.000  C
  C56      1.0000 0.92590  0.46295  0.94030  Biso   1.000  C
  C57      1.0000 0.57515  0.15030  0.87150  Biso   1.000  C
  C58      1.0000 0.53705  0.07410  0.94030  Biso   1.000  C
  C59      1.0000 0.57515  0.42485  0.87150  Biso   1.000  C
  C60      1.0000 0.53705  0.46295  0.94030  Biso   1.000  C
  C61      1.0000 0.23800  0.18900  0.75000  Biso   1.000  C
  H1       1.0000 0.20730  0.22180  0.75000  Biso   1.000  H
  C62      1.0000 0.33360  0.23390  0.75000  Biso   1.000  C
  H2       1.0000 0.36590  0.29740  0.75000  Biso   1.000  H
  C63      1.0000 0.81100  0.04900  0.75000  Biso   1.000  C
  H3       1.0000 0.77820  0.98550  0.75000  Biso   1.000  H
  C64      1.0000 0.76610  0.09970  0.75000  Biso   1.000  C
  H4       1.0000 0.70260  0.06850  0.75000  Biso   1.000  H
  C65      1.0000 0.95100  0.76200  0.75000  Biso   1.000  C
  H5       1.0000 0.01450  0.79270  0.75000  Biso   1.000  H
  C66      1.0000 0.90030  0.66640  0.75000  Biso   1.000  C
  H6       1.0000 0.93150  0.63410  0.75000  Biso   1.000  H
  C67      1.0000 0.76200  0.81100  0.25000  Biso   1.000  C
  H7       1.0000 0.79270  0.77820  0.25000  Biso   1.000  H
  C68      1.0000 0.66640  0.76610  0.25000  Biso   1.000  C
  H8       1.0000 0.63410  0.70260  0.25000  Biso   1.000  H
  C69      1.0000 0.18900  0.95100  0.25000  Biso   1.000  C
  H9       1.0000 0.22180  0.01450  0.25000  Biso   1.000  H
  C70      1.0000 0.23390  0.90030  0.25000  Biso   1.000  C
  H10      1.0000 0.29740  0.93150  0.25000  Biso   1.000  H
  C71      1.0000 0.04900  0.23800  0.25000  Biso   1.000  C
  H11      1.0000 0.98550  0.20730  0.25000  Biso   1.000  H
  C72      1.0000 0.09970  0.33360  0.25000  Biso   1.000  C
  H12      1.0000 0.06850  0.36590  0.25000  Biso   1.000  H
  C73      1.0000 0.18900  0.23800  0.25000  Biso   1.000  C
  H13      1.0000 0.22180  0.20730  0.25000  Biso   1.000  H
  C74      1.0000 0.23390  0.33360  0.25000  Biso   1.000  C
  H14      1.0000 0.29740  0.36590  0.25000  Biso   1.000  H
  C75      1.0000 0.04900  0.81100  0.25000  Biso   1.000  C
  H15      1.0000 0.98550  0.77820  0.25000  Biso   1.000  H
  C76      1.0000 0.09970  0.76610  0.25000  Biso   1.000  C
  H16      1.0000 0.06850  0.70260  0.25000  Biso   1.000  H
  C77      1.0000 0.76200  0.95100  0.25000  Biso   1.000  C
  H17      1.0000 0.79270  0.01450  0.25000  Biso   1.000  H
  C78      1.0000 0.66640  0.90030  0.25000  Biso   1.000  C
  H18      1.0000 0.63410  0.93150  0.25000  Biso   1.000  H
  C79      1.0000 0.81100  0.76200  0.75000  Biso   1.000  C
  H19      1.0000 0.77820  0.79270  0.75000  Biso   1.000  H
  C80      1.0000 0.76610  0.66640  0.75000  Biso   1.000  C
  H20      1.0000 0.70260  0.63410  0.75000  Biso   1.000  H
  C81      1.0000 0.95100  0.18900  0.75000  Biso   1.000  C
  H21      1.0000 0.01450  0.22180  0.75000  Biso   1.000  H
  C82      1.0000 0.90030  0.23390  0.75000  Biso   1.000  C
  H22      1.0000 0.93150  0.29740  0.75000  Biso   1.000  H
  C83      1.0000 0.23800  0.04900  0.75000  Biso   1.000  C
  H23      1.0000 0.20730  0.98550  0.75000  Biso   1.000  H
  C84      1.0000 0.33360  0.09970  0.75000  Biso   1.000  C
  H24      1.0000 0.36590  0.06850  0.75000  Biso   1.000  H
  N31      1.0000 0.04700  0.95300  0.75000  Biso   1.000  N
  N32      1.0000 0.04700  0.09400  0.75000  Biso   1.000  N
  N33      1.0000 0.90600  0.95300  0.75000  Biso   1.000  N
  N34      1.0000 0.95300  0.04700  0.25000  Biso   1.000  N
  N35      1.0000 0.95300  0.90600  0.25000  Biso   1.000  N
  N36      1.0000 0.09400  0.04700  0.25000  Biso   1.000  N
