data_image0
_cell_length_a       15.9423
_cell_length_b       15.9423
_cell_length_c       16.0411
_cell_angle_alpha    90
_cell_angle_beta     90
_cell_angle_gamma    120

_symmetry_space_group_name_H-M    "P 1"
_symmetry_int_tables_number       1

loop_
  _symmetry_equiv_pos_as_xyz
  'x, y, z'

loop_
  _atom_site_label
  _atom_site_occupancy
  _atom_site_fract_x
  _atom_site_fract_y
  _atom_site_fract_z
  _atom_site_thermal_displace_type
  _atom_site_B_iso_or_equiv
  _atom_site_type_symbol
  O1       1.0000 0.16989  0.51547  0.34002  Biso   1.000  O
  O2       1.0000 0.05460  0.37560  0.43650  Biso   1.000  O
  H1       1.0000 0.09480  0.40070  0.39930  Biso   1.000  H
  C1       1.0000 0.03350  0.44130  0.46813  Biso   1.000  C
  O3       1.0000 0.48453  0.65442  0.34002  Biso   1.000  O
  O4       1.0000 0.62440  0.67900  0.43650  Biso   1.000  O
  H2       1.0000 0.59930  0.69410  0.39930  Biso   1.000  H
  C2       1.0000 0.55870  0.59220  0.46813  Biso   1.000  C
  O5       1.0000 0.34558  0.83011  0.34002  Biso   1.000  O
  O6       1.0000 0.32100  0.94540  0.43650  Biso   1.000  O
  H3       1.0000 0.30590  0.90520  0.39930  Biso   1.000  H
  C3       1.0000 0.40780  0.96650  0.46813  Biso   1.000  C
  O7       1.0000 0.83011  0.48453  0.84002  Biso   1.000  O
  O8       1.0000 0.94540  0.62440  0.93650  Biso   1.000  O
  H4       1.0000 0.90520  0.59930  0.89930  Biso   1.000  H
  C4       1.0000 0.96650  0.55870  0.96813  Biso   1.000  C
  O9       1.0000 0.51547  0.34558  0.84002  Biso   1.000  O
  O10      1.0000 0.37560  0.32100  0.93650  Biso   1.000  O
  H5       1.0000 0.40070  0.30590  0.89930  Biso   1.000  H
  C5       1.0000 0.44130  0.40780  0.96813  Biso   1.000  C
  O11      1.0000 0.65442  0.16989  0.84002  Biso   1.000  O
  O12      1.0000 0.67900  0.05460  0.93650  Biso   1.000  O
  H6       1.0000 0.69410  0.09480  0.89930  Biso   1.000  H
  C6       1.0000 0.59220  0.03350  0.96813  Biso   1.000  C
  O13      1.0000 0.51547  0.16989  0.65998  Biso   1.000  O
  O14      1.0000 0.37560  0.05460  0.56350  Biso   1.000  O
  H7       1.0000 0.40070  0.09480  0.60070  Biso   1.000  H
  C7       1.0000 0.44130  0.03350  0.53187  Biso   1.000  C
  O15      1.0000 0.65442  0.48453  0.65998  Biso   1.000  O
  O16      1.0000 0.67900  0.62440  0.56350  Biso   1.000  O
  H8       1.0000 0.69410  0.59930  0.60070  Biso   1.000  H
  C8       1.0000 0.59220  0.55870  0.53187  Biso   1.000  C
  O17      1.0000 0.83011  0.34558  0.65998  Biso   1.000  O
  O18      1.0000 0.94540  0.32100  0.56350  Biso   1.000  O
  H9       1.0000 0.90520  0.30590  0.60070  Biso   1.000  H
  C9       1.0000 0.96650  0.40780  0.53187  Biso   1.000  C
  O19      1.0000 0.48453  0.83011  0.15998  Biso   1.000  O
  O20      1.0000 0.62440  0.94540  0.06350  Biso   1.000  O
  H10      1.0000 0.59930  0.90520  0.10070  Biso   1.000  H
  C10      1.0000 0.55870  0.96650  0.03187  Biso   1.000  C
  O21      1.0000 0.34558  0.51547  0.15998  Biso   1.000  O
  O22      1.0000 0.32100  0.37560  0.06350  Biso   1.000  O
  H11      1.0000 0.30590  0.40070  0.10070  Biso   1.000  H
  C11      1.0000 0.40780  0.44130  0.03187  Biso   1.000  C
  O23      1.0000 0.16989  0.65442  0.15998  Biso   1.000  O
  O24      1.0000 0.05460  0.67900  0.06350  Biso   1.000  O
  H12      1.0000 0.09480  0.69410  0.10070  Biso   1.000  H
  C12      1.0000 0.03350  0.59220  0.03187  Biso   1.000  C
  O25      1.0000 0.83011  0.48453  0.65998  Biso   1.000  O
  O26      1.0000 0.94540  0.62440  0.56350  Biso   1.000  O
  H13      1.0000 0.90520  0.59930  0.60070  Biso   1.000  H
  C13      1.0000 0.96650  0.55870  0.53187  Biso   1.000  C
  O27      1.0000 0.51547  0.34558  0.65998  Biso   1.000  O
  O28      1.0000 0.37560  0.32100  0.56350  Biso   1.000  O
  H14      1.0000 0.40070  0.30590  0.60070  Biso   1.000  H
  C14      1.0000 0.44130  0.40780  0.53187  Biso   1.000  C
  O29      1.0000 0.65442  0.16989  0.65998  Biso   1.000  O
  O30      1.0000 0.67900  0.05460  0.56350  Biso   1.000  O
  H15      1.0000 0.69410  0.09480  0.60070  Biso   1.000  H
  C15      1.0000 0.59220  0.03350  0.53187  Biso   1.000  C
  O31      1.0000 0.16989  0.51547  0.15998  Biso   1.000  O
  O32      1.0000 0.05460  0.37560  0.06350  Biso   1.000  O
  H16      1.0000 0.09480  0.40070  0.10070  Biso   1.000  H
  C16      1.0000 0.03350  0.44130  0.03187  Biso   1.000  C
  O33      1.0000 0.48453  0.65442  0.15998  Biso   1.000  O
  O34      1.0000 0.62440  0.67900  0.06350  Biso   1.000  O
  H17      1.0000 0.59930  0.69410  0.10070  Biso   1.000  H
  C17      1.0000 0.55870  0.59220  0.03187  Biso   1.000  C
  O35      1.0000 0.34558  0.83011  0.15998  Biso   1.000  O
  O36      1.0000 0.32100  0.94540  0.06350  Biso   1.000  O
  H18      1.0000 0.30590  0.90520  0.10070  Biso   1.000  H
  C18      1.0000 0.40780  0.96650  0.03187  Biso   1.000  C
  O37      1.0000 0.48453  0.83011  0.34002  Biso   1.000  O
  O38      1.0000 0.62440  0.94540  0.43650  Biso   1.000  O
  H19      1.0000 0.59930  0.90520  0.39930  Biso   1.000  H
  C19      1.0000 0.55870  0.96650  0.46813  Biso   1.000  C
  O39      1.0000 0.34558  0.51547  0.34002  Biso   1.000  O
  O40      1.0000 0.32100  0.37560  0.43650  Biso   1.000  O
  H20      1.0000 0.30590  0.40070  0.39930  Biso   1.000  H
  C20      1.0000 0.40780  0.44130  0.46813  Biso   1.000  C
  O41      1.0000 0.16989  0.65442  0.34002  Biso   1.000  O
  O42      1.0000 0.05460  0.67900  0.43650  Biso   1.000  O
  H21      1.0000 0.09480  0.69410  0.39930  Biso   1.000  H
  C21      1.0000 0.03350  0.59220  0.46813  Biso   1.000  C
  O43      1.0000 0.51547  0.16989  0.84002  Biso   1.000  O
  O44      1.0000 0.37560  0.05460  0.93650  Biso   1.000  O
  H22      1.0000 0.40070  0.09480  0.89930  Biso   1.000  H
  C22      1.0000 0.44130  0.03350  0.96813  Biso   1.000  C
  O45      1.0000 0.65442  0.48453  0.84002  Biso   1.000  O
  O46      1.0000 0.67900  0.62440  0.93650  Biso   1.000  O
  H23      1.0000 0.69410  0.59930  0.89930  Biso   1.000  H
  C23      1.0000 0.59220  0.55870  0.96813  Biso   1.000  C
  O47      1.0000 0.83011  0.34558  0.84002  Biso   1.000  O
  O48      1.0000 0.94540  0.32100  0.93650  Biso   1.000  O
  H24      1.0000 0.90520  0.30590  0.89930  Biso   1.000  H
  C24      1.0000 0.96650  0.40780  0.96813  Biso   1.000  C
  Mg1      1.0000 0.26183  0.52365  0.25000  Biso   1.000  Mg
  Mg2      1.0000 0.47635  0.73818  0.25000  Biso   1.000  Mg
  Mg3      1.0000 0.26183  0.73818  0.25000  Biso   1.000  Mg
  Mg4      1.0000 0.73817  0.47635  0.75000  Biso   1.000  Mg
  Mg5      1.0000 0.52365  0.26183  0.75000  Biso   1.000  Mg
  Mg6      1.0000 0.73817  0.26183  0.75000  Biso   1.000  Mg
  O49      1.0000 0.33333  0.66667  0.25000  Biso   1.000  O
  O50      1.0000 0.66667  0.33333  0.75000  Biso   1.000  O
  C25      1.0000 0.06920  0.53460  0.43550  Biso   1.000  C
  C26      1.0000 0.14110  0.57055  0.36750  Biso   1.000  C
  C27      1.0000 0.46540  0.53460  0.43550  Biso   1.000  C
  C28      1.0000 0.42945  0.57055  0.36750  Biso   1.000  C
  C29      1.0000 0.46540  0.93080  0.43550  Biso   1.000  C
  C30      1.0000 0.42945  0.85890  0.36750  Biso   1.000  C
  C31      1.0000 0.93080  0.46540  0.93550  Biso   1.000  C
  C32      1.0000 0.85890  0.42945  0.86750  Biso   1.000  C
  C33      1.0000 0.53460  0.46540  0.93550  Biso   1.000  C
  C34      1.0000 0.57055  0.42945  0.86750  Biso   1.000  C
  C35      1.0000 0.53460  0.06920  0.93550  Biso   1.000  C
  C36      1.0000 0.57055  0.14110  0.86750  Biso   1.000  C
  C37      1.0000 0.53460  0.06920  0.56450  Biso   1.000  C
  C38      1.0000 0.57055  0.14110  0.63250  Biso   1.000  C
  C39      1.0000 0.53460  0.46540  0.56450  Biso   1.000  C
  C40      1.0000 0.57055  0.42945  0.63250  Biso   1.000  C
  C41      1.0000 0.93080  0.46540  0.56450  Biso   1.000  C
  C42      1.0000 0.85890  0.42945  0.63250  Biso   1.000  C
  C43      1.0000 0.46540  0.93080  0.06450  Biso   1.000  C
  C44      1.0000 0.42945  0.85890  0.13250  Biso   1.000  C
  C45      1.0000 0.46540  0.53460  0.06450  Biso   1.000  C
  C46      1.0000 0.42945  0.57055  0.13250  Biso   1.000  C
  C47      1.0000 0.06920  0.53460  0.06450  Biso   1.000  C
  C48      1.0000 0.14110  0.57055  0.13250  Biso   1.000  C
