data_image0
_cell_length_a       14.184
_cell_length_b       11.515
_cell_length_c       15.619
_cell_angle_alpha    90
_cell_angle_beta     106.633
_cell_angle_gamma    90

_symmetry_space_group_name_H-M    "P 1"
_symmetry_int_tables_number       1

loop_
  _symmetry_equiv_pos_as_xyz
  'x, y, z'

loop_
  _atom_site_label
  _atom_site_occupancy
  _atom_site_fract_x
  _atom_site_fract_y
  _atom_site_fract_z
  _atom_site_thermal_displace_type
  _atom_site_B_iso_or_equiv
  _atom_site_type_symbol
  Nd1      1.0000 0.32455  0.35717  0.33983  Biso   1.000  Nd
  O1       1.0000 0.19515  0.23982  0.23600  Biso   1.000  O
  O2       1.0000 0.14289  0.06677  0.17652  Biso   1.000  O
  O3       1.0000 0.32172  0.97795  0.24562  Biso   1.000  O
  O4       1.0000 0.37653  0.15073  0.30694  Biso   1.000  O
  O5       1.0000 0.35674  0.22068  0.46863  Biso   1.000  O
  O6       1.0000 0.30542  0.14609  0.58019  Biso   1.000  O
  O7       1.0000 0.50347  0.36481  0.36326  Biso   1.000  O
  O8       1.0000 0.62757  0.36599  0.30023  Biso   1.000  O
  C1       1.0000 0.20745  0.13440  0.22188  Biso   1.000  C
  C2       1.0000 0.31186  0.08370  0.26203  Biso   1.000  C
  C3       1.0000 0.29729  0.21120  0.51424  Biso   1.000  C
  C4       1.0000 0.53795  0.36480  0.29778  Biso   1.000  C
  Nd2      1.0000 0.82455  0.85717  0.33983  Biso   1.000  Nd
  O9       1.0000 0.69515  0.73982  0.23600  Biso   1.000  O
  O10      1.0000 0.64289  0.56677  0.17652  Biso   1.000  O
  O11      1.0000 0.82172  0.47795  0.24562  Biso   1.000  O
  O12      1.0000 0.87653  0.65073  0.30694  Biso   1.000  O
  O13      1.0000 0.85674  0.72068  0.46863  Biso   1.000  O
  O14      1.0000 0.80542  0.64609  0.58019  Biso   1.000  O
  O15      1.0000 0.00347  0.86481  0.36326  Biso   1.000  O
  O16      1.0000 0.12757  0.86599  0.30023  Biso   1.000  O
  C5       1.0000 0.70745  0.63440  0.22188  Biso   1.000  C
  C6       1.0000 0.81186  0.58370  0.26203  Biso   1.000  C
  C7       1.0000 0.79729  0.71120  0.51424  Biso   1.000  C
  C8       1.0000 0.03795  0.86480  0.29778  Biso   1.000  C
  Nd3      1.0000 0.67545  0.35717  0.16017  Biso   1.000  Nd
  O17      1.0000 0.80485  0.23982  0.26400  Biso   1.000  O
  O18      1.0000 0.85711  0.06677  0.32348  Biso   1.000  O
  O19      1.0000 0.67828  0.97795  0.25438  Biso   1.000  O
  O20      1.0000 0.62347  0.15073  0.19306  Biso   1.000  O
  O21      1.0000 0.64326  0.22068  0.03137  Biso   1.000  O
  O22      1.0000 0.69458  0.14609  0.91981  Biso   1.000  O
  O23      1.0000 0.49653  0.36481  0.13674  Biso   1.000  O
  O24      1.0000 0.37243  0.36599  0.19977  Biso   1.000  O
  C9       1.0000 0.79255  0.13440  0.27812  Biso   1.000  C
  C10      1.0000 0.68814  0.08370  0.23797  Biso   1.000  C
  C11      1.0000 0.70271  0.21120  0.98576  Biso   1.000  C
  C12      1.0000 0.46205  0.36480  0.20222  Biso   1.000  C
  Nd4      1.0000 0.17545  0.85717  0.16017  Biso   1.000  Nd
  O25      1.0000 0.30485  0.73982  0.26400  Biso   1.000  O
  O26      1.0000 0.35711  0.56677  0.32348  Biso   1.000  O
  O27      1.0000 0.17828  0.47795  0.25438  Biso   1.000  O
  O28      1.0000 0.12347  0.65073  0.19306  Biso   1.000  O
  O29      1.0000 0.14326  0.72068  0.03137  Biso   1.000  O
  O30      1.0000 0.19458  0.64609  0.91981  Biso   1.000  O
  O31      1.0000 0.99653  0.86481  0.13674  Biso   1.000  O
  O32      1.0000 0.87243  0.86599  0.19977  Biso   1.000  O
  C13      1.0000 0.29255  0.63440  0.27812  Biso   1.000  C
  C14      1.0000 0.18814  0.58370  0.23797  Biso   1.000  C
  C15      1.0000 0.20271  0.71120  0.98576  Biso   1.000  C
  C16      1.0000 0.96205  0.86480  0.20222  Biso   1.000  C
  Nd5      1.0000 0.67545  0.64283  0.66017  Biso   1.000  Nd
  O33      1.0000 0.80485  0.76018  0.76400  Biso   1.000  O
  O34      1.0000 0.85711  0.93323  0.82348  Biso   1.000  O
  O35      1.0000 0.67828  0.02205  0.75438  Biso   1.000  O
  O36      1.0000 0.62347  0.84927  0.69306  Biso   1.000  O
  O37      1.0000 0.64326  0.77932  0.53137  Biso   1.000  O
  O38      1.0000 0.69458  0.85391  0.41981  Biso   1.000  O
  O39      1.0000 0.49653  0.63519  0.63674  Biso   1.000  O
  O40      1.0000 0.37243  0.63401  0.69977  Biso   1.000  O
  C17      1.0000 0.79255  0.86560  0.77812  Biso   1.000  C
  C18      1.0000 0.68814  0.91630  0.73797  Biso   1.000  C
  C19      1.0000 0.70271  0.78880  0.48576  Biso   1.000  C
  C20      1.0000 0.46205  0.63520  0.70222  Biso   1.000  C
  Nd6      1.0000 0.17545  0.14283  0.66017  Biso   1.000  Nd
  O41      1.0000 0.30485  0.26018  0.76400  Biso   1.000  O
  O42      1.0000 0.35711  0.43323  0.82348  Biso   1.000  O
  O43      1.0000 0.17828  0.52205  0.75438  Biso   1.000  O
  O44      1.0000 0.12347  0.34927  0.69306  Biso   1.000  O
  O45      1.0000 0.14326  0.27932  0.53137  Biso   1.000  O
  O46      1.0000 0.19458  0.35391  0.41981  Biso   1.000  O
  O47      1.0000 0.99653  0.13519  0.63674  Biso   1.000  O
  O48      1.0000 0.87243  0.13401  0.69977  Biso   1.000  O
  C21      1.0000 0.29255  0.36560  0.77812  Biso   1.000  C
  C22      1.0000 0.18814  0.41630  0.73797  Biso   1.000  C
  C23      1.0000 0.20271  0.28880  0.48576  Biso   1.000  C
  C24      1.0000 0.96205  0.13520  0.70222  Biso   1.000  C
  Nd7      1.0000 0.32455  0.64283  0.83983  Biso   1.000  Nd
  O49      1.0000 0.19515  0.76018  0.73600  Biso   1.000  O
  O50      1.0000 0.14289  0.93323  0.67652  Biso   1.000  O
  O51      1.0000 0.32172  0.02205  0.74562  Biso   1.000  O
  O52      1.0000 0.37653  0.84927  0.80694  Biso   1.000  O
  O53      1.0000 0.35674  0.77932  0.96863  Biso   1.000  O
  O54      1.0000 0.30542  0.85391  0.08019  Biso   1.000  O
  O55      1.0000 0.50347  0.63519  0.86326  Biso   1.000  O
  O56      1.0000 0.62757  0.63401  0.80023  Biso   1.000  O
  C25      1.0000 0.20745  0.86560  0.72188  Biso   1.000  C
  C26      1.0000 0.31186  0.91630  0.76203  Biso   1.000  C
  C27      1.0000 0.29729  0.78880  0.01424  Biso   1.000  C
  C28      1.0000 0.53795  0.63520  0.79778  Biso   1.000  C
  Nd8      1.0000 0.82455  0.14283  0.83983  Biso   1.000  Nd
  O57      1.0000 0.69515  0.26018  0.73600  Biso   1.000  O
  O58      1.0000 0.64289  0.43323  0.67652  Biso   1.000  O
  O59      1.0000 0.82172  0.52205  0.74562  Biso   1.000  O
  O60      1.0000 0.87653  0.34927  0.80694  Biso   1.000  O
  O61      1.0000 0.85674  0.27932  0.96863  Biso   1.000  O
  O62      1.0000 0.80542  0.35391  0.08019  Biso   1.000  O
  O63      1.0000 0.00347  0.13519  0.86326  Biso   1.000  O
  O64      1.0000 0.12757  0.13401  0.80023  Biso   1.000  O
  C29      1.0000 0.70745  0.36560  0.72188  Biso   1.000  C
  C30      1.0000 0.81186  0.41630  0.76203  Biso   1.000  C
  C31      1.0000 0.79729  0.28880  0.01424  Biso   1.000  C
  C32      1.0000 0.03795  0.13520  0.79778  Biso   1.000  C
