data_image0
_cell_length_a       8.441
_cell_length_b       8.441
_cell_length_c       17.5
_cell_angle_alpha    90
_cell_angle_beta     90
_cell_angle_gamma    90

_symmetry_space_group_name_H-M    "P 1"
_symmetry_int_tables_number       1

loop_
  _symmetry_equiv_pos_as_xyz
  'x, y, z'

loop_
  _atom_site_label
  _atom_site_occupancy
  _atom_site_fract_x
  _atom_site_fract_y
  _atom_site_fract_z
  _atom_site_thermal_displace_type
  _atom_site_B_iso_or_equiv
  _atom_site_type_symbol
  O1       1.0000 0.13860  0.14790  0.01736  Biso   1.000  O
  O2       1.0000 0.12650  0.97030  0.92263  Biso   1.000  O
  C1       1.0000 0.07720  0.03410  0.98288  Biso   1.000  C
  O3       1.0000 0.63860  0.64790  0.51736  Biso   1.000  O
  O4       1.0000 0.62650  0.47030  0.42263  Biso   1.000  O
  C2       1.0000 0.57720  0.53410  0.48288  Biso   1.000  C
  O5       1.0000 0.36140  0.85210  0.51736  Biso   1.000  O
  O6       1.0000 0.37350  0.02970  0.42263  Biso   1.000  O
  C3       1.0000 0.42280  0.96590  0.48288  Biso   1.000  C
  O7       1.0000 0.86140  0.35210  0.01736  Biso   1.000  O
  O8       1.0000 0.87350  0.52970  0.92263  Biso   1.000  O
  C4       1.0000 0.92280  0.46590  0.98288  Biso   1.000  C
  O9       1.0000 0.60210  0.38860  0.26736  Biso   1.000  O
  O10      1.0000 0.77970  0.37650  0.17263  Biso   1.000  O
  C5       1.0000 0.71590  0.32720  0.23288  Biso   1.000  C
  O11      1.0000 0.10210  0.88860  0.76736  Biso   1.000  O
  O12      1.0000 0.27970  0.87650  0.67263  Biso   1.000  O
  C6       1.0000 0.21590  0.82720  0.73288  Biso   1.000  C
  O13      1.0000 0.89790  0.61140  0.76736  Biso   1.000  O
  O14      1.0000 0.72030  0.62350  0.67263  Biso   1.000  O
  C7       1.0000 0.78410  0.67280  0.73288  Biso   1.000  C
  O15      1.0000 0.39790  0.11140  0.26736  Biso   1.000  O
  O16      1.0000 0.22030  0.12350  0.17263  Biso   1.000  O
  C8       1.0000 0.28410  0.17280  0.23288  Biso   1.000  C
  O17      1.0000 0.86140  0.85210  0.98264  Biso   1.000  O
  O18      1.0000 0.87350  0.02970  0.07737  Biso   1.000  O
  C9       1.0000 0.92280  0.96590  0.01712  Biso   1.000  C
  O19      1.0000 0.36140  0.35210  0.48264  Biso   1.000  O
  O20      1.0000 0.37350  0.52970  0.57737  Biso   1.000  O
  C10      1.0000 0.42280  0.46590  0.51712  Biso   1.000  C
  O21      1.0000 0.63860  0.14790  0.48264  Biso   1.000  O
  O22      1.0000 0.62650  0.97030  0.57737  Biso   1.000  O
  C11      1.0000 0.57720  0.03410  0.51712  Biso   1.000  C
  O23      1.0000 0.13860  0.64790  0.98264  Biso   1.000  O
  O24      1.0000 0.12650  0.47030  0.07737  Biso   1.000  O
  C12      1.0000 0.07720  0.53410  0.01712  Biso   1.000  C
  O25      1.0000 0.39790  0.61140  0.73264  Biso   1.000  O
  O26      1.0000 0.22030  0.62350  0.82737  Biso   1.000  O
  C13      1.0000 0.28410  0.67280  0.76712  Biso   1.000  C
  O27      1.0000 0.89790  0.11140  0.23264  Biso   1.000  O
  O28      1.0000 0.72030  0.12350  0.32737  Biso   1.000  O
  C14      1.0000 0.78410  0.17280  0.26712  Biso   1.000  C
  O29      1.0000 0.10210  0.38860  0.23264  Biso   1.000  O
  O30      1.0000 0.27970  0.37650  0.32737  Biso   1.000  O
  C15      1.0000 0.21590  0.32720  0.26712  Biso   1.000  C
  O31      1.0000 0.60210  0.88860  0.73264  Biso   1.000  O
  O32      1.0000 0.77970  0.87650  0.82737  Biso   1.000  O
  C16      1.0000 0.71590  0.82720  0.76712  Biso   1.000  C
  Yb1      1.0000 0.00000  0.25000  0.12500  Biso   1.000  Yb
  Yb2      1.0000 0.50000  0.75000  0.62500  Biso   1.000  Yb
  Yb3      1.0000 0.50000  0.25000  0.37500  Biso   1.000  Yb
  Yb4      1.0000 0.00000  0.75000  0.87500  Biso   1.000  Yb
