data_image0
_cell_length_a       18.326
_cell_length_b       19.033
_cell_length_c       12.529
_cell_angle_alpha    90
_cell_angle_beta     90
_cell_angle_gamma    90

_symmetry_space_group_name_H-M    "P 1"
_symmetry_int_tables_number       1

loop_
  _symmetry_equiv_pos_as_xyz
  'x, y, z'

loop_
  _atom_site_label
  _atom_site_occupancy
  _atom_site_fract_x
  _atom_site_fract_y
  _atom_site_fract_z
  _atom_site_thermal_displace_type
  _atom_site_B_iso_or_equiv
  _atom_site_type_symbol
  Cd1      1.0000 0.72880  0.74842  0.38038  Biso   1.000  Cd
  Cd2      1.0000 0.82596  0.66327  0.55800  Biso   1.000  Cd
  O1       1.0000 0.72610  0.63732  0.33030  Biso   1.000  O
  O2       1.0000 0.79157  0.57585  0.44950  Biso   1.000  O
  O3       1.0000 0.62750  0.73900  0.47860  Biso   1.000  O
  O4       1.0000 0.70040  0.67360  0.58050  Biso   1.000  O
  O5       1.0000 0.66600  0.26909  0.37090  Biso   1.000  O
  O6       1.0000 0.73350  0.32543  0.49520  Biso   1.000  O
  O7       1.0000 0.37390  0.78400  0.59310  Biso   1.000  O
  O8       1.0000 0.32490  0.71620  0.71610  Biso   1.000  O
  O9       1.0000 0.58440  0.45370  0.12490  Biso   1.000  O
  O10      1.0000 0.54040  0.58000  0.86600  Biso   1.000  O
  C1       1.0000 0.63960  0.70190  0.55960  Biso   1.000  C
  C2       1.0000 0.57770  0.68780  0.63370  Biso   1.000  C
  C3       1.0000 0.58590  0.64200  0.71930  Biso   1.000  C
  H1       1.0000 0.63190  0.62060  0.73200  Biso   1.000  H
  C4       1.0000 0.52860  0.62740  0.78540  Biso   1.000  C
  C5       1.0000 0.46120  0.66120  0.77110  Biso   1.000  C
  H2       1.0000 0.42210  0.65290  0.81910  Biso   1.000  H
  C6       1.0000 0.45240  0.70760  0.68470  Biso   1.000  C
  C7       1.0000 0.51090  0.72040  0.61580  Biso   1.000  C
  H3       1.0000 0.50500  0.75140  0.55700  Biso   1.000  H
  C8       1.0000 0.48050  0.56350  0.93300  Biso   1.000  C
  H4       1.0000 0.43850  0.55320  0.89000  Biso   1.000  H
  H5       1.0000 0.46900  0.60270  0.97820  Biso   1.000  H
  C9       1.0000 0.37850  0.73910  0.66360  Biso   1.000  C
  C10      1.0000 0.74640  0.58110  0.37410  Biso   1.000  C
  C11      1.0000 0.71150  0.51470  0.33390  Biso   1.000  C
  C12      1.0000 0.72220  0.45170  0.38680  Biso   1.000  C
  H6       1.0000 0.75330  0.44990  0.44740  Biso   1.000  H
  C13      1.0000 0.68760  0.39110  0.35090  Biso   1.000  C
  C14      1.0000 0.64330  0.39380  0.26160  Biso   1.000  C
  H7       1.0000 0.61990  0.35250  0.23640  Biso   1.000  H
  C15      1.0000 0.63330  0.45700  0.20960  Biso   1.000  C
  C16      1.0000 0.66590  0.51840  0.24410  Biso   1.000  C
  H8       1.0000 0.65780  0.56170  0.20820  Biso   1.000  H
  C17      1.0000 0.69660  0.32270  0.41220  Biso   1.000  C
  C18      1.0000 0.56640  0.51800  0.07120  Biso   1.000  C
  H9       1.0000 0.60760  0.53410  0.02620  Biso   1.000  H
  H10      1.0000 0.55440  0.55540  0.12330  Biso   1.000  H
  Cd3      1.0000 0.27120  0.25158  0.38038  Biso   1.000  Cd
  Cd4      1.0000 0.17404  0.33673  0.55800  Biso   1.000  Cd
  O11      1.0000 0.27390  0.36268  0.33030  Biso   1.000  O
  O12      1.0000 0.20843  0.42415  0.44950  Biso   1.000  O
  O13      1.0000 0.37250  0.26100  0.47860  Biso   1.000  O
  O14      1.0000 0.29960  0.32640  0.58050  Biso   1.000  O
  O15      1.0000 0.33400  0.73091  0.37090  Biso   1.000  O
  O16      1.0000 0.26650  0.67457  0.49520  Biso   1.000  O
  O17      1.0000 0.62610  0.21600  0.59310  Biso   1.000  O
  O18      1.0000 0.67510  0.28380  0.71610  Biso   1.000  O
  O19      1.0000 0.41560  0.54630  0.12490  Biso   1.000  O
  O20      1.0000 0.45960  0.42000  0.86600  Biso   1.000  O
  C19      1.0000 0.36040  0.29810  0.55960  Biso   1.000  C
  C20      1.0000 0.42230  0.31220  0.63370  Biso   1.000  C
  C21      1.0000 0.41410  0.35800  0.71930  Biso   1.000  C
  H11      1.0000 0.36810  0.37940  0.73200  Biso   1.000  H
  C22      1.0000 0.47140  0.37260  0.78540  Biso   1.000  C
  C23      1.0000 0.53880  0.33880  0.77110  Biso   1.000  C
  H12      1.0000 0.57790  0.34710  0.81910  Biso   1.000  H
  C24      1.0000 0.54760  0.29240  0.68470  Biso   1.000  C
  C25      1.0000 0.48910  0.27960  0.61580  Biso   1.000  C
  H13      1.0000 0.49500  0.24860  0.55700  Biso   1.000  H
  C26      1.0000 0.51950  0.43650  0.93300  Biso   1.000  C
  H14      1.0000 0.56150  0.44680  0.89000  Biso   1.000  H
  H15      1.0000 0.53100  0.39730  0.97820  Biso   1.000  H
  C27      1.0000 0.62150  0.26090  0.66360  Biso   1.000  C
  C28      1.0000 0.25360  0.41890  0.37410  Biso   1.000  C
  C29      1.0000 0.28850  0.48530  0.33390  Biso   1.000  C
  C30      1.0000 0.27780  0.54830  0.38680  Biso   1.000  C
  H16      1.0000 0.24670  0.55010  0.44740  Biso   1.000  H
  C31      1.0000 0.31240  0.60890  0.35090  Biso   1.000  C
  C32      1.0000 0.35670  0.60620  0.26160  Biso   1.000  C
  H17      1.0000 0.38010  0.64750  0.23640  Biso   1.000  H
  C33      1.0000 0.36670  0.54300  0.20960  Biso   1.000  C
  C34      1.0000 0.33410  0.48160  0.24410  Biso   1.000  C
  H18      1.0000 0.34220  0.43830  0.20820  Biso   1.000  H
  C35      1.0000 0.30340  0.67730  0.41220  Biso   1.000  C
  C36      1.0000 0.43360  0.48200  0.07120  Biso   1.000  C
  H19      1.0000 0.39240  0.46590  0.02620  Biso   1.000  H
  H20      1.0000 0.44560  0.44460  0.12330  Biso   1.000  H
  Cd5      1.0000 0.77120  0.24842  0.61962  Biso   1.000  Cd
  Cd6      1.0000 0.67404  0.16327  0.44200  Biso   1.000  Cd
  O21      1.0000 0.77390  0.13732  0.66970  Biso   1.000  O
  O22      1.0000 0.70843  0.07585  0.55050  Biso   1.000  O
  O23      1.0000 0.87250  0.23900  0.52140  Biso   1.000  O
  O24      1.0000 0.79960  0.17360  0.41950  Biso   1.000  O
  O25      1.0000 0.83400  0.76909  0.62910  Biso   1.000  O
  O26      1.0000 0.76650  0.82543  0.50480  Biso   1.000  O
  O27      1.0000 0.12610  0.28400  0.40690  Biso   1.000  O
  O28      1.0000 0.17510  0.21620  0.28390  Biso   1.000  O
  O29      1.0000 0.91560  0.95370  0.87510  Biso   1.000  O
  O30      1.0000 0.95960  0.08000  0.13400  Biso   1.000  O
  C37      1.0000 0.86040  0.20190  0.44040  Biso   1.000  C
  C38      1.0000 0.92230  0.18780  0.36630  Biso   1.000  C
  C39      1.0000 0.91410  0.14200  0.28070  Biso   1.000  C
  H21      1.0000 0.86810  0.12060  0.26800  Biso   1.000  H
  C40      1.0000 0.97140  0.12740  0.21460  Biso   1.000  C
  C41      1.0000 0.03880  0.16120  0.22890  Biso   1.000  C
  H22      1.0000 0.07790  0.15290  0.18090  Biso   1.000  H
  C42      1.0000 0.04760  0.20760  0.31530  Biso   1.000  C
  C43      1.0000 0.98910  0.22040  0.38420  Biso   1.000  C
  H23      1.0000 0.99500  0.25140  0.44300  Biso   1.000  H
  C44      1.0000 0.01950  0.06350  0.06700  Biso   1.000  C
  H24      1.0000 0.06150  0.05320  0.11000  Biso   1.000  H
  H25      1.0000 0.03100  0.10270  0.02180  Biso   1.000  H
  C45      1.0000 0.12150  0.23910  0.33640  Biso   1.000  C
  C46      1.0000 0.75360  0.08110  0.62590  Biso   1.000  C
  C47      1.0000 0.78850  0.01470  0.66610  Biso   1.000  C
  C48      1.0000 0.77780  0.95170  0.61320  Biso   1.000  C
  H26      1.0000 0.74670  0.94990  0.55260  Biso   1.000  H
  C49      1.0000 0.81240  0.89110  0.64910  Biso   1.000  C
  C50      1.0000 0.85670  0.89380  0.73840  Biso   1.000  C
  H27      1.0000 0.88010  0.85250  0.76360  Biso   1.000  H
  C51      1.0000 0.86670  0.95700  0.79040  Biso   1.000  C
  C52      1.0000 0.83410  0.01840  0.75590  Biso   1.000  C
  H28      1.0000 0.84220  0.06170  0.79180  Biso   1.000  H
  C53      1.0000 0.80340  0.82270  0.58780  Biso   1.000  C
  C54      1.0000 0.93360  0.01800  0.92880  Biso   1.000  C
  H29      1.0000 0.89240  0.03410  0.97380  Biso   1.000  H
  H30      1.0000 0.94560  0.05540  0.87670  Biso   1.000  H
  Cd7      1.0000 0.22880  0.75158  0.61962  Biso   1.000  Cd
  Cd8      1.0000 0.32596  0.83673  0.44200  Biso   1.000  Cd
  O31      1.0000 0.22610  0.86268  0.66970  Biso   1.000  O
  O32      1.0000 0.29157  0.92415  0.55050  Biso   1.000  O
  O33      1.0000 0.12750  0.76100  0.52140  Biso   1.000  O
  O34      1.0000 0.20040  0.82640  0.41950  Biso   1.000  O
  O35      1.0000 0.16600  0.23091  0.62910  Biso   1.000  O
  O36      1.0000 0.23350  0.17457  0.50480  Biso   1.000  O
  O37      1.0000 0.87390  0.71600  0.40690  Biso   1.000  O
  O38      1.0000 0.82490  0.78380  0.28390  Biso   1.000  O
  O39      1.0000 0.08440  0.04630  0.87510  Biso   1.000  O
  O40      1.0000 0.04040  0.92000  0.13400  Biso   1.000  O
  C55      1.0000 0.13960  0.79810  0.44040  Biso   1.000  C
  C56      1.0000 0.07770  0.81220  0.36630  Biso   1.000  C
  C57      1.0000 0.08590  0.85800  0.28070  Biso   1.000  C
  H31      1.0000 0.13190  0.87940  0.26800  Biso   1.000  H
  C58      1.0000 0.02860  0.87260  0.21460  Biso   1.000  C
  C59      1.0000 0.96120  0.83880  0.22890  Biso   1.000  C
  H32      1.0000 0.92210  0.84710  0.18090  Biso   1.000  H
  C60      1.0000 0.95240  0.79240  0.31530  Biso   1.000  C
  C61      1.0000 0.01090  0.77960  0.38420  Biso   1.000  C
  H33      1.0000 0.00500  0.74860  0.44300  Biso   1.000  H
  C62      1.0000 0.98050  0.93650  0.06700  Biso   1.000  C
  H34      1.0000 0.93850  0.94680  0.11000  Biso   1.000  H
  H35      1.0000 0.96900  0.89730  0.02180  Biso   1.000  H
  C63      1.0000 0.87850  0.76090  0.33640  Biso   1.000  C
  C64      1.0000 0.24640  0.91890  0.62590  Biso   1.000  C
  C65      1.0000 0.21150  0.98530  0.66610  Biso   1.000  C
  C66      1.0000 0.22220  0.04830  0.61320  Biso   1.000  C
  H36      1.0000 0.25330  0.05010  0.55260  Biso   1.000  H
  C67      1.0000 0.18760  0.10890  0.64910  Biso   1.000  C
  C68      1.0000 0.14330  0.10620  0.73840  Biso   1.000  C
  H37      1.0000 0.11990  0.14750  0.76360  Biso   1.000  H
  C69      1.0000 0.13330  0.04300  0.79040  Biso   1.000  C
  C70      1.0000 0.16590  0.98160  0.75590  Biso   1.000  C
  H38      1.0000 0.15780  0.93830  0.79180  Biso   1.000  H
  C71      1.0000 0.19660  0.17730  0.58780  Biso   1.000  C
  C72      1.0000 0.06640  0.98200  0.92880  Biso   1.000  C
  H39      1.0000 0.10760  0.96590  0.97380  Biso   1.000  H
  H40      1.0000 0.05440  0.94460  0.87670  Biso   1.000  H
  C73      1.0000 0.50000  0.50000  0.00250  Biso   1.000  C
  C74      1.0000 0.00000  0.00000  0.99750  Biso   1.000  C
