data_image0
_cell_length_a       7.2562
_cell_length_b       19.3586
_cell_length_c       25.9395
_cell_angle_alpha    90
_cell_angle_beta     90
_cell_angle_gamma    90

_symmetry_space_group_name_H-M    "P 1"
_symmetry_int_tables_number       1

loop_
  _symmetry_equiv_pos_as_xyz
  'x, y, z'

loop_
  _atom_site_label
  _atom_site_occupancy
  _atom_site_fract_x
  _atom_site_fract_y
  _atom_site_fract_z
  _atom_site_thermal_displace_type
  _atom_site_B_iso_or_equiv
  _atom_site_type_symbol
  Tb1      1.0000 0.62977  0.69257  0.73851  Biso   1.000  Tb
  O1       1.0000 0.21950  0.18350  0.28160  Biso   1.000  O
  O2       1.0000 0.49600  0.17210  0.24460  Biso   1.000  O
  O3       1.0000 0.83160  0.76680  0.66670  Biso   1.000  O
  O4       1.0000 0.95310  0.87080  0.65380  Biso   1.000  O
  O5       1.0000 0.41890  0.45020  0.24980  Biso   1.000  O
  O6       1.0000 0.57160  0.49860  0.18540  Biso   1.000  O
  C1       1.0000 0.36280  0.14960  0.27200  Biso   1.000  C
  C2       1.0000 0.37870  0.07730  0.29040  Biso   1.000  C
  C3       1.0000 0.47650  0.02890  0.26300  Biso   1.000  C
  H1       1.0000 0.52780  0.04120  0.23060  Biso   1.000  H
  C4       1.0000 0.50210  0.96210  0.28170  Biso   1.000  C
  H2       1.0000 0.56190  0.92820  0.26110  Biso   1.000  H
  C5       1.0000 0.44000  0.94570  0.33030  Biso   1.000  C
  C6       1.0000 0.33800  0.99400  0.35820  Biso   1.000  C
  H3       1.0000 0.29250  0.98240  0.39150  Biso   1.000  H
  C7       1.0000 0.30240  0.05910  0.33780  Biso   1.000  C
  H4       1.0000 0.22670  0.09080  0.35600  Biso   1.000  H
  C8       1.0000 0.48710  0.87680  0.35360  Biso   1.000  C
  C9       1.0000 0.49150  0.81710  0.32390  Biso   1.000  C
  C10      1.0000 0.85780  0.81890  0.63940  Biso   1.000  C
  C11      1.0000 0.78810  0.81780  0.58510  Biso   1.000  C
  C12      1.0000 0.82000  0.87470  0.55120  Biso   1.000  C
  H5       1.0000 0.88490  0.91420  0.56310  Biso   1.000  H
  C13      1.0000 0.75730  0.87220  0.50180  Biso   1.000  C
  H6       1.0000 0.77550  0.91090  0.48000  Biso   1.000  H
  C14      1.0000 0.66550  0.81320  0.48220  Biso   1.000  C
  C15      1.0000 0.64290  0.75730  0.51560  Biso   1.000  C
  H7       1.0000 0.58410  0.71660  0.50330  Biso   1.000  H
  C16      1.0000 0.70310  0.75920  0.56580  Biso   1.000  C
  H8       1.0000 0.68640  0.72010  0.58740  Biso   1.000  H
  C17      1.0000 0.59670  0.81240  0.42860  Biso   1.000  C
  C18      1.0000 0.53800  0.87540  0.40620  Biso   1.000  C
  C19      1.0000 0.59510  0.75300  0.39890  Biso   1.000  C
  C20      1.0000 0.54160  0.75430  0.34680  Biso   1.000  C
  C21      1.0000 0.52790  0.68980  0.31630  Biso   1.000  C
  C22      1.0000 0.57270  0.68820  0.26420  Biso   1.000  C
  H9       1.0000 0.61060  0.72970  0.24780  Biso   1.000  H
  C23      1.0000 0.56380  0.62740  0.23530  Biso   1.000  C
  H10      1.0000 0.59550  0.62730  0.19970  Biso   1.000  H
  C24      1.0000 0.50740  0.56690  0.25970  Biso   1.000  C
  C25      1.0000 0.45450  0.56830  0.31140  Biso   1.000  C
  H11      1.0000 0.40820  0.52770  0.32730  Biso   1.000  H
  C26      1.0000 0.46940  0.62870  0.33940  Biso   1.000  C
  H12      1.0000 0.43930  0.62850  0.37500  Biso   1.000  H
  C27      1.0000 0.49500  0.50000  0.23210  Biso   1.000  C
  Tb2      1.0000 0.37023  0.30743  0.23851  Biso   1.000  Tb
  O7       1.0000 0.78050  0.81650  0.78160  Biso   1.000  O
  O8       1.0000 0.50400  0.82790  0.74460  Biso   1.000  O
  O9       1.0000 0.16840  0.23320  0.16670  Biso   1.000  O
  O10      1.0000 0.04690  0.12920  0.15380  Biso   1.000  O
  O11      1.0000 0.58110  0.54980  0.74980  Biso   1.000  O
  O12      1.0000 0.42840  0.50140  0.68540  Biso   1.000  O
  C28      1.0000 0.63720  0.85040  0.77200  Biso   1.000  C
  C29      1.0000 0.62130  0.92270  0.79040  Biso   1.000  C
  C30      1.0000 0.52350  0.97110  0.76300  Biso   1.000  C
  H13      1.0000 0.47220  0.95880  0.73060  Biso   1.000  H
  C31      1.0000 0.49790  0.03790  0.78170  Biso   1.000  C
  H14      1.0000 0.43810  0.07180  0.76110  Biso   1.000  H
  C32      1.0000 0.56000  0.05430  0.83030  Biso   1.000  C
  C33      1.0000 0.66200  0.00600  0.85820  Biso   1.000  C
  H15      1.0000 0.70750  0.01760  0.89150  Biso   1.000  H
  C34      1.0000 0.69760  0.94090  0.83780  Biso   1.000  C
  H16      1.0000 0.77330  0.90920  0.85600  Biso   1.000  H
  C35      1.0000 0.51290  0.12320  0.85360  Biso   1.000  C
  C36      1.0000 0.50850  0.18290  0.82390  Biso   1.000  C
  C37      1.0000 0.14220  0.18110  0.13940  Biso   1.000  C
  C38      1.0000 0.21190  0.18220  0.08510  Biso   1.000  C
  C39      1.0000 0.18000  0.12530  0.05120  Biso   1.000  C
  H17      1.0000 0.11510  0.08580  0.06310  Biso   1.000  H
  C40      1.0000 0.24270  0.12780  0.00180  Biso   1.000  C
  H18      1.0000 0.22450  0.08910  0.98000  Biso   1.000  H
  C41      1.0000 0.33450  0.18680  0.98220  Biso   1.000  C
  C42      1.0000 0.35710  0.24270  0.01560  Biso   1.000  C
  H19      1.0000 0.41590  0.28340  0.00330  Biso   1.000  H
  C43      1.0000 0.29690  0.24080  0.06580  Biso   1.000  C
  H20      1.0000 0.31360  0.27990  0.08740  Biso   1.000  H
  C44      1.0000 0.40330  0.18760  0.92860  Biso   1.000  C
  C45      1.0000 0.46200  0.12460  0.90620  Biso   1.000  C
  C46      1.0000 0.40490  0.24700  0.89890  Biso   1.000  C
  C47      1.0000 0.45840  0.24570  0.84680  Biso   1.000  C
  C48      1.0000 0.47210  0.31020  0.81630  Biso   1.000  C
  C49      1.0000 0.42730  0.31180  0.76420  Biso   1.000  C
  H21      1.0000 0.38940  0.27030  0.74780  Biso   1.000  H
  C50      1.0000 0.43620  0.37260  0.73530  Biso   1.000  C
  H22      1.0000 0.40450  0.37270  0.69970  Biso   1.000  H
  C51      1.0000 0.49260  0.43310  0.75970  Biso   1.000  C
  C52      1.0000 0.54550  0.43170  0.81140  Biso   1.000  C
  H23      1.0000 0.59180  0.47230  0.82730  Biso   1.000  H
  C53      1.0000 0.53060  0.37130  0.83940  Biso   1.000  C
  H24      1.0000 0.56070  0.37150  0.87500  Biso   1.000  H
  C54      1.0000 0.50500  0.50000  0.73210  Biso   1.000  C
  Tb3      1.0000 0.12977  0.80743  0.73851  Biso   1.000  Tb
  O13      1.0000 0.71950  0.31650  0.28160  Biso   1.000  O
  O14      1.0000 0.99600  0.32790  0.24460  Biso   1.000  O
  O15      1.0000 0.33160  0.73320  0.66670  Biso   1.000  O
  O16      1.0000 0.45310  0.62920  0.65380  Biso   1.000  O
  O17      1.0000 0.91890  0.04980  0.24980  Biso   1.000  O
  O18      1.0000 0.07160  0.00140  0.18540  Biso   1.000  O
  C55      1.0000 0.86280  0.35040  0.27200  Biso   1.000  C
  C56      1.0000 0.87870  0.42270  0.29040  Biso   1.000  C
  C57      1.0000 0.97650  0.47110  0.26300  Biso   1.000  C
  H25      1.0000 0.02780  0.45880  0.23060  Biso   1.000  H
  C58      1.0000 0.00210  0.53790  0.28170  Biso   1.000  C
  H26      1.0000 0.06190  0.57180  0.26110  Biso   1.000  H
  C59      1.0000 0.94000  0.55430  0.33030  Biso   1.000  C
  C60      1.0000 0.83800  0.50600  0.35820  Biso   1.000  C
  H27      1.0000 0.79250  0.51760  0.39150  Biso   1.000  H
  C61      1.0000 0.80240  0.44090  0.33780  Biso   1.000  C
  H28      1.0000 0.72670  0.40920  0.35600  Biso   1.000  H
  C62      1.0000 0.98710  0.62320  0.35360  Biso   1.000  C
  C63      1.0000 0.99150  0.68290  0.32390  Biso   1.000  C
  C64      1.0000 0.35780  0.68110  0.63940  Biso   1.000  C
  C65      1.0000 0.28810  0.68220  0.58510  Biso   1.000  C
  C66      1.0000 0.32000  0.62530  0.55120  Biso   1.000  C
  H29      1.0000 0.38490  0.58580  0.56310  Biso   1.000  H
  C67      1.0000 0.25730  0.62780  0.50180  Biso   1.000  C
  H30      1.0000 0.27550  0.58910  0.48000  Biso   1.000  H
  C68      1.0000 0.16550  0.68680  0.48220  Biso   1.000  C
  C69      1.0000 0.14290  0.74270  0.51560  Biso   1.000  C
  H31      1.0000 0.08410  0.78340  0.50330  Biso   1.000  H
  C70      1.0000 0.20310  0.74080  0.56580  Biso   1.000  C
  H32      1.0000 0.18640  0.77990  0.58740  Biso   1.000  H
  C71      1.0000 0.09670  0.68760  0.42860  Biso   1.000  C
  C72      1.0000 0.03800  0.62460  0.40620  Biso   1.000  C
  C73      1.0000 0.09510  0.74700  0.39890  Biso   1.000  C
  C74      1.0000 0.04160  0.74570  0.34680  Biso   1.000  C
  C75      1.0000 0.02790  0.81020  0.31630  Biso   1.000  C
  C76      1.0000 0.07270  0.81180  0.26420  Biso   1.000  C
  H33      1.0000 0.11060  0.77030  0.24780  Biso   1.000  H
  C77      1.0000 0.06380  0.87260  0.23530  Biso   1.000  C
  H34      1.0000 0.09550  0.87270  0.19970  Biso   1.000  H
  C78      1.0000 0.00740  0.93310  0.25970  Biso   1.000  C
  C79      1.0000 0.95450  0.93170  0.31140  Biso   1.000  C
  H35      1.0000 0.90820  0.97230  0.32730  Biso   1.000  H
  C80      1.0000 0.96940  0.87130  0.33940  Biso   1.000  C
  H36      1.0000 0.93930  0.87150  0.37500  Biso   1.000  H
  C81      1.0000 0.99500  0.00000  0.23210  Biso   1.000  C
  Tb4      1.0000 0.87023  0.19257  0.23851  Biso   1.000  Tb
  O19      1.0000 0.28050  0.68350  0.78160  Biso   1.000  O
  O20      1.0000 0.00400  0.67210  0.74460  Biso   1.000  O
  O21      1.0000 0.66840  0.26680  0.16670  Biso   1.000  O
  O22      1.0000 0.54690  0.37080  0.15380  Biso   1.000  O
  O23      1.0000 0.08110  0.95020  0.74980  Biso   1.000  O
  O24      1.0000 0.92840  0.99860  0.68540  Biso   1.000  O
  C82      1.0000 0.13720  0.64960  0.77200  Biso   1.000  C
  C83      1.0000 0.12130  0.57730  0.79040  Biso   1.000  C
  C84      1.0000 0.02350  0.52890  0.76300  Biso   1.000  C
  H37      1.0000 0.97220  0.54120  0.73060  Biso   1.000  H
  C85      1.0000 0.99790  0.46210  0.78170  Biso   1.000  C
  H38      1.0000 0.93810  0.42820  0.76110  Biso   1.000  H
  C86      1.0000 0.06000  0.44570  0.83030  Biso   1.000  C
  C87      1.0000 0.16200  0.49400  0.85820  Biso   1.000  C
  H39      1.0000 0.20750  0.48240  0.89150  Biso   1.000  H
  C88      1.0000 0.19760  0.55910  0.83780  Biso   1.000  C
  H40      1.0000 0.27330  0.59080  0.85600  Biso   1.000  H
  C89      1.0000 0.01290  0.37680  0.85360  Biso   1.000  C
  C90      1.0000 0.00850  0.31710  0.82390  Biso   1.000  C
  C91      1.0000 0.64220  0.31890  0.13940  Biso   1.000  C
  C92      1.0000 0.71190  0.31780  0.08510  Biso   1.000  C
  C93      1.0000 0.68000  0.37470  0.05120  Biso   1.000  C
  H41      1.0000 0.61510  0.41420  0.06310  Biso   1.000  H
  C94      1.0000 0.74270  0.37220  0.00180  Biso   1.000  C
  H42      1.0000 0.72450  0.41090  0.98000  Biso   1.000  H
  C95      1.0000 0.83450  0.31320  0.98220  Biso   1.000  C
  C96      1.0000 0.85710  0.25730  0.01560  Biso   1.000  C
  H43      1.0000 0.91590  0.21660  0.00330  Biso   1.000  H
  C97      1.0000 0.79690  0.25920  0.06580  Biso   1.000  C
  H44      1.0000 0.81360  0.22010  0.08740  Biso   1.000  H
  C98      1.0000 0.90330  0.31240  0.92860  Biso   1.000  C
  C99      1.0000 0.96200  0.37540  0.90620  Biso   1.000  C
  C100     1.0000 0.90490  0.25300  0.89890  Biso   1.000  C
  C101     1.0000 0.95840  0.25430  0.84680  Biso   1.000  C
  C102     1.0000 0.97210  0.18980  0.81630  Biso   1.000  C
  C103     1.0000 0.92730  0.18820  0.76420  Biso   1.000  C
  H45      1.0000 0.88940  0.22970  0.74780  Biso   1.000  H
  C104     1.0000 0.93620  0.12740  0.73530  Biso   1.000  C
  H46      1.0000 0.90450  0.12730  0.69970  Biso   1.000  H
  C105     1.0000 0.99260  0.06690  0.75970  Biso   1.000  C
  C106     1.0000 0.04550  0.06830  0.81140  Biso   1.000  C
  H47      1.0000 0.09180  0.02770  0.82730  Biso   1.000  H
  C107     1.0000 0.03060  0.12870  0.83940  Biso   1.000  C
  H48      1.0000 0.06070  0.12850  0.87500  Biso   1.000  H
  C108     1.0000 0.00500  0.00000  0.73210  Biso   1.000  C
