data_image0
_cell_length_a       12.7243
_cell_length_b       13.294
_cell_length_c       28.598
_cell_angle_alpha    90
_cell_angle_beta     90
_cell_angle_gamma    90

_symmetry_space_group_name_H-M    "P 1"
_symmetry_int_tables_number       1

loop_
  _symmetry_equiv_pos_as_xyz
  'x, y, z'

loop_
  _atom_site_label
  _atom_site_occupancy
  _atom_site_fract_x
  _atom_site_fract_y
  _atom_site_fract_z
  _atom_site_thermal_displace_type
  _atom_site_B_iso_or_equiv
  _atom_site_type_symbol
  Dy1      1.0000 0.08939  0.54299  0.92996  Biso   1.000  Dy
  O1       1.0000 0.09240  0.43890  0.86610  Biso   1.000  O
  O2       1.0000 0.16520  0.29020  0.88070  Biso   1.000  O
  O3       1.0000 0.04000  0.14680  0.82830  Biso   1.000  O
  O4       1.0000 0.18680  0.08660  0.80760  Biso   1.000  O
  O5       1.0000 0.44770  0.10340  0.61900  Biso   1.000  O
  O6       1.0000 0.45220  0.16140  0.54700  Biso   1.000  O
  O7       1.0000 0.16560  0.38900  0.49500  Biso   1.000  O
  O8       1.0000 0.05120  0.44780  0.54550  Biso   1.000  O
  N1       1.0000 0.12370  0.15340  0.80880  Biso   1.000  N
  C1       1.0000 0.12980  0.35630  0.85410  Biso   1.000  C
  C2       1.0000 0.13410  0.33810  0.80260  Biso   1.000  C
  C3       1.0000 0.14350  0.24550  0.78130  Biso   1.000  C
  C4       1.0000 0.16590  0.23130  0.73460  Biso   1.000  C
  H1       1.0000 0.17350  0.16660  0.72280  Biso   1.000  H
  C5       1.0000 0.17710  0.31350  0.70530  Biso   1.000  C
  C6       1.0000 0.16220  0.40920  0.72520  Biso   1.000  C
  H2       1.0000 0.16490  0.46590  0.70630  Biso   1.000  H
  C7       1.0000 0.14370  0.42020  0.77250  Biso   1.000  C
  H3       1.0000 0.13750  0.48480  0.78470  Biso   1.000  H
  C8       1.0000 0.20570  0.29990  0.65570  Biso   1.000  C
  C9       1.0000 0.28670  0.23450  0.64450  Biso   1.000  C
  H4       1.0000 0.31980  0.19750  0.66780  Biso   1.000  H
  C10      1.0000 0.31850  0.22440  0.59790  Biso   1.000  C
  C11      1.0000 0.26820  0.27890  0.56320  Biso   1.000  C
  H5       1.0000 0.28950  0.27250  0.53220  Biso   1.000  H
  C12      1.0000 0.18640  0.34280  0.57460  Biso   1.000  C
  C13      1.0000 0.15600  0.35450  0.62100  Biso   1.000  C
  H6       1.0000 0.10220  0.39890  0.62870  Biso   1.000  H
  C14      1.0000 0.41040  0.15970  0.58710  Biso   1.000  C
  C15      1.0000 0.13090  0.39700  0.53560  Biso   1.000  C
  Dy2      1.0000 0.41061  0.95701  0.42996  Biso   1.000  Dy
  O9       1.0000 0.40760  0.06110  0.36610  Biso   1.000  O
  O10      1.0000 0.33480  0.20980  0.38070  Biso   1.000  O
  O11      1.0000 0.46000  0.35320  0.32830  Biso   1.000  O
  O12      1.0000 0.31320  0.41340  0.30760  Biso   1.000  O
  O13      1.0000 0.05230  0.39660  0.11900  Biso   1.000  O
  O14      1.0000 0.04780  0.33860  0.04700  Biso   1.000  O
  O15      1.0000 0.33440  0.11100  0.99500  Biso   1.000  O
  O16      1.0000 0.44880  0.05220  0.04550  Biso   1.000  O
  N2       1.0000 0.37630  0.34660  0.30880  Biso   1.000  N
  C16      1.0000 0.37020  0.14370  0.35410  Biso   1.000  C
  C17      1.0000 0.36590  0.16190  0.30260  Biso   1.000  C
  C18      1.0000 0.35650  0.25450  0.28130  Biso   1.000  C
  C19      1.0000 0.33410  0.26870  0.23460  Biso   1.000  C
  H7       1.0000 0.32650  0.33340  0.22280  Biso   1.000  H
  C20      1.0000 0.32290  0.18650  0.20530  Biso   1.000  C
  C21      1.0000 0.33780  0.09080  0.22520  Biso   1.000  C
  H8       1.0000 0.33510  0.03410  0.20630  Biso   1.000  H
  C22      1.0000 0.35630  0.07980  0.27250  Biso   1.000  C
  H9       1.0000 0.36250  0.01520  0.28470  Biso   1.000  H
  C23      1.0000 0.29430  0.20010  0.15570  Biso   1.000  C
  C24      1.0000 0.21330  0.26550  0.14450  Biso   1.000  C
  H10      1.0000 0.18020  0.30250  0.16780  Biso   1.000  H
  C25      1.0000 0.18150  0.27560  0.09790  Biso   1.000  C
  C26      1.0000 0.23180  0.22110  0.06320  Biso   1.000  C
  H11      1.0000 0.21050  0.22750  0.03220  Biso   1.000  H
  C27      1.0000 0.31360  0.15720  0.07460  Biso   1.000  C
  C28      1.0000 0.34400  0.14550  0.12100  Biso   1.000  C
  H12      1.0000 0.39780  0.10110  0.12870  Biso   1.000  H
  C29      1.0000 0.08960  0.34030  0.08710  Biso   1.000  C
  C30      1.0000 0.36910  0.10300  0.03560  Biso   1.000  C
  Dy3      1.0000 0.91061  0.54299  0.57004  Biso   1.000  Dy
  O17      1.0000 0.90760  0.43890  0.63390  Biso   1.000  O
  O18      1.0000 0.83480  0.29020  0.61930  Biso   1.000  O
  O19      1.0000 0.96000  0.14680  0.67170  Biso   1.000  O
  O20      1.0000 0.81320  0.08660  0.69240  Biso   1.000  O
  O21      1.0000 0.55230  0.10340  0.88100  Biso   1.000  O
  O22      1.0000 0.54780  0.16140  0.95300  Biso   1.000  O
  O23      1.0000 0.83440  0.38900  0.00500  Biso   1.000  O
  O24      1.0000 0.94880  0.44780  0.95450  Biso   1.000  O
  N3       1.0000 0.87630  0.15340  0.69120  Biso   1.000  N
  C31      1.0000 0.87020  0.35630  0.64590  Biso   1.000  C
  C32      1.0000 0.86590  0.33810  0.69740  Biso   1.000  C
  C33      1.0000 0.85650  0.24550  0.71870  Biso   1.000  C
  C34      1.0000 0.83410  0.23130  0.76540  Biso   1.000  C
  H13      1.0000 0.82650  0.16660  0.77720  Biso   1.000  H
  C35      1.0000 0.82290  0.31350  0.79470  Biso   1.000  C
  C36      1.0000 0.83780  0.40920  0.77480  Biso   1.000  C
  H14      1.0000 0.83510  0.46590  0.79370  Biso   1.000  H
  C37      1.0000 0.85630  0.42020  0.72750  Biso   1.000  C
  H15      1.0000 0.86250  0.48480  0.71530  Biso   1.000  H
  C38      1.0000 0.79430  0.29990  0.84430  Biso   1.000  C
  C39      1.0000 0.71330  0.23450  0.85550  Biso   1.000  C
  H16      1.0000 0.68020  0.19750  0.83220  Biso   1.000  H
  C40      1.0000 0.68150  0.22440  0.90210  Biso   1.000  C
  C41      1.0000 0.73180  0.27890  0.93680  Biso   1.000  C
  H17      1.0000 0.71050  0.27250  0.96780  Biso   1.000  H
  C42      1.0000 0.81360  0.34280  0.92540  Biso   1.000  C
  C43      1.0000 0.84400  0.35450  0.87900  Biso   1.000  C
  H18      1.0000 0.89780  0.39890  0.87130  Biso   1.000  H
  C44      1.0000 0.58960  0.15970  0.91290  Biso   1.000  C
  C45      1.0000 0.86910  0.39700  0.96440  Biso   1.000  C
  Dy4      1.0000 0.58939  0.95701  0.07004  Biso   1.000  Dy
  O25      1.0000 0.59240  0.06110  0.13390  Biso   1.000  O
  O26      1.0000 0.66520  0.20980  0.11930  Biso   1.000  O
  O27      1.0000 0.54000  0.35320  0.17170  Biso   1.000  O
  O28      1.0000 0.68680  0.41340  0.19240  Biso   1.000  O
  O29      1.0000 0.94770  0.39660  0.38100  Biso   1.000  O
  O30      1.0000 0.95220  0.33860  0.45300  Biso   1.000  O
  O31      1.0000 0.66560  0.11100  0.50500  Biso   1.000  O
  O32      1.0000 0.55120  0.05220  0.45450  Biso   1.000  O
  N4       1.0000 0.62370  0.34660  0.19120  Biso   1.000  N
  C46      1.0000 0.62980  0.14370  0.14590  Biso   1.000  C
  C47      1.0000 0.63410  0.16190  0.19740  Biso   1.000  C
  C48      1.0000 0.64350  0.25450  0.21870  Biso   1.000  C
  C49      1.0000 0.66590  0.26870  0.26540  Biso   1.000  C
  H19      1.0000 0.67350  0.33340  0.27720  Biso   1.000  H
  C50      1.0000 0.67710  0.18650  0.29470  Biso   1.000  C
  C51      1.0000 0.66220  0.09080  0.27480  Biso   1.000  C
  H20      1.0000 0.66490  0.03410  0.29370  Biso   1.000  H
  C52      1.0000 0.64370  0.07980  0.22750  Biso   1.000  C
  H21      1.0000 0.63750  0.01520  0.21530  Biso   1.000  H
  C53      1.0000 0.70570  0.20010  0.34430  Biso   1.000  C
  C54      1.0000 0.78670  0.26550  0.35550  Biso   1.000  C
  H22      1.0000 0.81980  0.30250  0.33220  Biso   1.000  H
  C55      1.0000 0.81850  0.27560  0.40210  Biso   1.000  C
  C56      1.0000 0.76820  0.22110  0.43680  Biso   1.000  C
  H23      1.0000 0.78950  0.22750  0.46780  Biso   1.000  H
  C57      1.0000 0.68640  0.15720  0.42540  Biso   1.000  C
  C58      1.0000 0.65600  0.14550  0.37900  Biso   1.000  C
  H24      1.0000 0.60220  0.10110  0.37130  Biso   1.000  H
  C59      1.0000 0.91040  0.34030  0.41290  Biso   1.000  C
  C60      1.0000 0.63090  0.10300  0.46440  Biso   1.000  C
  Dy5      1.0000 0.91061  0.45701  0.07004  Biso   1.000  Dy
  O33      1.0000 0.90760  0.56110  0.13390  Biso   1.000  O
  O34      1.0000 0.83480  0.70980  0.11930  Biso   1.000  O
  O35      1.0000 0.96000  0.85320  0.17170  Biso   1.000  O
  O36      1.0000 0.81320  0.91340  0.19240  Biso   1.000  O
  O37      1.0000 0.55230  0.89660  0.38100  Biso   1.000  O
  O38      1.0000 0.54780  0.83860  0.45300  Biso   1.000  O
  O39      1.0000 0.83440  0.61100  0.50500  Biso   1.000  O
  O40      1.0000 0.94880  0.55220  0.45450  Biso   1.000  O
  N5       1.0000 0.87630  0.84660  0.19120  Biso   1.000  N
  C61      1.0000 0.87020  0.64370  0.14590  Biso   1.000  C
  C62      1.0000 0.86590  0.66190  0.19740  Biso   1.000  C
  C63      1.0000 0.85650  0.75450  0.21870  Biso   1.000  C
  C64      1.0000 0.83410  0.76870  0.26540  Biso   1.000  C
  H25      1.0000 0.82650  0.83340  0.27720  Biso   1.000  H
  C65      1.0000 0.82290  0.68650  0.29470  Biso   1.000  C
  C66      1.0000 0.83780  0.59080  0.27480  Biso   1.000  C
  H26      1.0000 0.83510  0.53410  0.29370  Biso   1.000  H
  C67      1.0000 0.85630  0.57980  0.22750  Biso   1.000  C
  H27      1.0000 0.86250  0.51520  0.21530  Biso   1.000  H
  C68      1.0000 0.79430  0.70010  0.34430  Biso   1.000  C
  C69      1.0000 0.71330  0.76550  0.35550  Biso   1.000  C
  H28      1.0000 0.68020  0.80250  0.33220  Biso   1.000  H
  C70      1.0000 0.68150  0.77560  0.40210  Biso   1.000  C
  C71      1.0000 0.73180  0.72110  0.43680  Biso   1.000  C
  H29      1.0000 0.71050  0.72750  0.46780  Biso   1.000  H
  C72      1.0000 0.81360  0.65720  0.42540  Biso   1.000  C
  C73      1.0000 0.84400  0.64550  0.37900  Biso   1.000  C
  H30      1.0000 0.89780  0.60110  0.37130  Biso   1.000  H
  C74      1.0000 0.58960  0.84030  0.41290  Biso   1.000  C
  C75      1.0000 0.86910  0.60300  0.46440  Biso   1.000  C
  Dy6      1.0000 0.58939  0.04299  0.57004  Biso   1.000  Dy
  O41      1.0000 0.59240  0.93890  0.63390  Biso   1.000  O
  O42      1.0000 0.66520  0.79020  0.61930  Biso   1.000  O
  O43      1.0000 0.54000  0.64680  0.67170  Biso   1.000  O
  O44      1.0000 0.68680  0.58660  0.69240  Biso   1.000  O
  O45      1.0000 0.94770  0.60340  0.88100  Biso   1.000  O
  O46      1.0000 0.95220  0.66140  0.95300  Biso   1.000  O
  O47      1.0000 0.66560  0.88900  0.00500  Biso   1.000  O
  O48      1.0000 0.55120  0.94780  0.95450  Biso   1.000  O
  N6       1.0000 0.62370  0.65340  0.69120  Biso   1.000  N
  C76      1.0000 0.62980  0.85630  0.64590  Biso   1.000  C
  C77      1.0000 0.63410  0.83810  0.69740  Biso   1.000  C
  C78      1.0000 0.64350  0.74550  0.71870  Biso   1.000  C
  C79      1.0000 0.66590  0.73130  0.76540  Biso   1.000  C
  H31      1.0000 0.67350  0.66660  0.77720  Biso   1.000  H
  C80      1.0000 0.67710  0.81350  0.79470  Biso   1.000  C
  C81      1.0000 0.66220  0.90920  0.77480  Biso   1.000  C
  H32      1.0000 0.66490  0.96590  0.79370  Biso   1.000  H
  C82      1.0000 0.64370  0.92020  0.72750  Biso   1.000  C
  H33      1.0000 0.63750  0.98480  0.71530  Biso   1.000  H
  C83      1.0000 0.70570  0.79990  0.84430  Biso   1.000  C
  C84      1.0000 0.78670  0.73450  0.85550  Biso   1.000  C
  H34      1.0000 0.81980  0.69750  0.83220  Biso   1.000  H
  C85      1.0000 0.81850  0.72440  0.90210  Biso   1.000  C
  C86      1.0000 0.76820  0.77890  0.93680  Biso   1.000  C
  H35      1.0000 0.78950  0.77250  0.96780  Biso   1.000  H
  C87      1.0000 0.68640  0.84280  0.92540  Biso   1.000  C
  C88      1.0000 0.65600  0.85450  0.87900  Biso   1.000  C
  H36      1.0000 0.60220  0.89890  0.87130  Biso   1.000  H
  C89      1.0000 0.91040  0.65970  0.91290  Biso   1.000  C
  C90      1.0000 0.63090  0.89700  0.96440  Biso   1.000  C
  Dy7      1.0000 0.08939  0.45701  0.42996  Biso   1.000  Dy
  O49      1.0000 0.09240  0.56110  0.36610  Biso   1.000  O
  O50      1.0000 0.16520  0.70980  0.38070  Biso   1.000  O
  O51      1.0000 0.04000  0.85320  0.32830  Biso   1.000  O
  O52      1.0000 0.18680  0.91340  0.30760  Biso   1.000  O
  O53      1.0000 0.44770  0.89660  0.11900  Biso   1.000  O
  O54      1.0000 0.45220  0.83860  0.04700  Biso   1.000  O
  O55      1.0000 0.16560  0.61100  0.99500  Biso   1.000  O
  O56      1.0000 0.05120  0.55220  0.04550  Biso   1.000  O
  N7       1.0000 0.12370  0.84660  0.30880  Biso   1.000  N
  C91      1.0000 0.12980  0.64370  0.35410  Biso   1.000  C
  C92      1.0000 0.13410  0.66190  0.30260  Biso   1.000  C
  C93      1.0000 0.14350  0.75450  0.28130  Biso   1.000  C
  C94      1.0000 0.16590  0.76870  0.23460  Biso   1.000  C
  H37      1.0000 0.17350  0.83340  0.22280  Biso   1.000  H
  C95      1.0000 0.17710  0.68650  0.20530  Biso   1.000  C
  C96      1.0000 0.16220  0.59080  0.22520  Biso   1.000  C
  H38      1.0000 0.16490  0.53410  0.20630  Biso   1.000  H
  C97      1.0000 0.14370  0.57980  0.27250  Biso   1.000  C
  H39      1.0000 0.13750  0.51520  0.28470  Biso   1.000  H
  C98      1.0000 0.20570  0.70010  0.15570  Biso   1.000  C
  C99      1.0000 0.28670  0.76550  0.14450  Biso   1.000  C
  H40      1.0000 0.31980  0.80250  0.16780  Biso   1.000  H
  C100     1.0000 0.31850  0.77560  0.09790  Biso   1.000  C
  C101     1.0000 0.26820  0.72110  0.06320  Biso   1.000  C
  H41      1.0000 0.28950  0.72750  0.03220  Biso   1.000  H
  C102     1.0000 0.18640  0.65720  0.07460  Biso   1.000  C
  C103     1.0000 0.15600  0.64550  0.12100  Biso   1.000  C
  H42      1.0000 0.10220  0.60110  0.12870  Biso   1.000  H
  C104     1.0000 0.41040  0.84030  0.08710  Biso   1.000  C
  C105     1.0000 0.13090  0.60300  0.03560  Biso   1.000  C
  Dy8      1.0000 0.41061  0.04299  0.92996  Biso   1.000  Dy
  O57      1.0000 0.40760  0.93890  0.86610  Biso   1.000  O
  O58      1.0000 0.33480  0.79020  0.88070  Biso   1.000  O
  O59      1.0000 0.46000  0.64680  0.82830  Biso   1.000  O
  O60      1.0000 0.31320  0.58660  0.80760  Biso   1.000  O
  O61      1.0000 0.05230  0.60340  0.61900  Biso   1.000  O
  O62      1.0000 0.04780  0.66140  0.54700  Biso   1.000  O
  O63      1.0000 0.33440  0.88900  0.49500  Biso   1.000  O
  O64      1.0000 0.44880  0.94780  0.54550  Biso   1.000  O
  N8       1.0000 0.37630  0.65340  0.80880  Biso   1.000  N
  C106     1.0000 0.37020  0.85630  0.85410  Biso   1.000  C
  C107     1.0000 0.36590  0.83810  0.80260  Biso   1.000  C
  C108     1.0000 0.35650  0.74550  0.78130  Biso   1.000  C
  C109     1.0000 0.33410  0.73130  0.73460  Biso   1.000  C
  H43      1.0000 0.32650  0.66660  0.72280  Biso   1.000  H
  C110     1.0000 0.32290  0.81350  0.70530  Biso   1.000  C
  C111     1.0000 0.33780  0.90920  0.72520  Biso   1.000  C
  H44      1.0000 0.33510  0.96590  0.70630  Biso   1.000  H
  C112     1.0000 0.35630  0.92020  0.77250  Biso   1.000  C
  H45      1.0000 0.36250  0.98480  0.78470  Biso   1.000  H
  C113     1.0000 0.29430  0.79990  0.65570  Biso   1.000  C
  C114     1.0000 0.21330  0.73450  0.64450  Biso   1.000  C
  H46      1.0000 0.18020  0.69750  0.66780  Biso   1.000  H
  C115     1.0000 0.18150  0.72440  0.59790  Biso   1.000  C
  C116     1.0000 0.23180  0.77890  0.56320  Biso   1.000  C
  H47      1.0000 0.21050  0.77250  0.53220  Biso   1.000  H
  C117     1.0000 0.31360  0.84280  0.57460  Biso   1.000  C
  C118     1.0000 0.34400  0.85450  0.62100  Biso   1.000  C
  H48      1.0000 0.39780  0.89890  0.62870  Biso   1.000  H
  C119     1.0000 0.08960  0.65970  0.58710  Biso   1.000  C
  C120     1.0000 0.36910  0.89700  0.53560  Biso   1.000  C
