data_image0
_cell_length_a       8.945
_cell_length_b       14.936
_cell_length_c       12.408
_cell_angle_alpha    90
_cell_angle_beta     108.531
_cell_angle_gamma    90

_symmetry_space_group_name_H-M    "P 1"
_symmetry_int_tables_number       1

loop_
  _symmetry_equiv_pos_as_xyz
  'x, y, z'

loop_
  _atom_site_label
  _atom_site_occupancy
  _atom_site_fract_x
  _atom_site_fract_y
  _atom_site_fract_z
  _atom_site_thermal_displace_type
  _atom_site_B_iso_or_equiv
  _atom_site_type_symbol
  Fe1      1.0000 0.12132  0.04953  0.67924  Biso   1.000  Fe
  Fe2      1.0000 0.23500  0.20554  0.90427  Biso   1.000  Fe
  Cl1      1.0000 0.08520  0.94945  0.80424  Biso   1.000  Cl
  Cl2      1.0000 0.08090  0.31250  0.79043  Biso   1.000  Cl
  O1       1.0000 0.24820  0.28490  0.04870  Biso   1.000  O
  O2       1.0000 0.25880  0.13390  0.78110  Biso   1.000  O
  O3       1.0000 0.30560  0.99230  0.64150  Biso   1.000  O
  O4       1.0000 0.61390  0.36090  0.04520  Biso   1.000  O
  O5       1.0000 0.35790  0.88970  0.52490  Biso   1.000  O
  O6       1.0000 0.05150  0.85820  0.43250  Biso   1.000  O
  O7       1.0000 0.99690  0.96420  0.54330  Biso   1.000  O
  O8       1.0000 0.45070  0.26260  0.93070  Biso   1.000  O
  O9       1.0000 0.40910  0.38820  0.15770  Biso   1.000  O
  C1       1.0000 0.48900  0.31710  0.01290  Biso   1.000  C
  C2       1.0000 0.26630  0.93480  0.56240  Biso   1.000  C
  C3       1.0000 0.08760  0.91860  0.50790  Biso   1.000  C
  C4       1.0000 0.37020  0.33030  0.07850  Biso   1.000  C
  H1       1.0000 0.31430  0.16370  0.74940  Biso   1.000  H
  Fe3      1.0000 0.62132  0.54953  0.67924  Biso   1.000  Fe
  Fe4      1.0000 0.73500  0.70554  0.90427  Biso   1.000  Fe
  Cl3      1.0000 0.58520  0.44945  0.80424  Biso   1.000  Cl
  Cl4      1.0000 0.58090  0.81250  0.79043  Biso   1.000  Cl
  O10      1.0000 0.74820  0.78490  0.04870  Biso   1.000  O
  O11      1.0000 0.75880  0.63390  0.78110  Biso   1.000  O
  O12      1.0000 0.80560  0.49230  0.64150  Biso   1.000  O
  O13      1.0000 0.11390  0.86090  0.04520  Biso   1.000  O
  O14      1.0000 0.85790  0.38970  0.52490  Biso   1.000  O
  O15      1.0000 0.55150  0.35820  0.43250  Biso   1.000  O
  O16      1.0000 0.49690  0.46420  0.54330  Biso   1.000  O
  O17      1.0000 0.95070  0.76260  0.93070  Biso   1.000  O
  O18      1.0000 0.90910  0.88820  0.15770  Biso   1.000  O
  C5       1.0000 0.98900  0.81710  0.01290  Biso   1.000  C
  C6       1.0000 0.76630  0.43480  0.56240  Biso   1.000  C
  C7       1.0000 0.58760  0.41860  0.50790  Biso   1.000  C
  C8       1.0000 0.87020  0.83030  0.07850  Biso   1.000  C
  H2       1.0000 0.81430  0.66370  0.74940  Biso   1.000  H
  Fe5      1.0000 0.12132  0.95047  0.17924  Biso   1.000  Fe
  Fe6      1.0000 0.23500  0.79446  0.40427  Biso   1.000  Fe
  Cl5      1.0000 0.08520  0.05055  0.30424  Biso   1.000  Cl
  Cl6      1.0000 0.08090  0.68750  0.29043  Biso   1.000  Cl
  O19      1.0000 0.24820  0.71510  0.54870  Biso   1.000  O
  O20      1.0000 0.25880  0.86610  0.28110  Biso   1.000  O
  O21      1.0000 0.30560  0.00770  0.14150  Biso   1.000  O
  O22      1.0000 0.61390  0.63910  0.54520  Biso   1.000  O
  O23      1.0000 0.35790  0.11030  0.02490  Biso   1.000  O
  O24      1.0000 0.05150  0.14180  0.93250  Biso   1.000  O
  O25      1.0000 0.99690  0.03580  0.04330  Biso   1.000  O
  O26      1.0000 0.45070  0.73740  0.43070  Biso   1.000  O
  O27      1.0000 0.40910  0.61180  0.65770  Biso   1.000  O
  C9       1.0000 0.48900  0.68290  0.51290  Biso   1.000  C
  C10      1.0000 0.26630  0.06520  0.06240  Biso   1.000  C
  C11      1.0000 0.08760  0.08140  0.00790  Biso   1.000  C
  C12      1.0000 0.37020  0.66970  0.57850  Biso   1.000  C
  H3       1.0000 0.31430  0.83630  0.24940  Biso   1.000  H
  Fe7      1.0000 0.62132  0.45047  0.17924  Biso   1.000  Fe
  Fe8      1.0000 0.73500  0.29446  0.40427  Biso   1.000  Fe
  Cl7      1.0000 0.58520  0.55055  0.30424  Biso   1.000  Cl
  Cl8      1.0000 0.58090  0.18750  0.29043  Biso   1.000  Cl
  O28      1.0000 0.74820  0.21510  0.54870  Biso   1.000  O
  O29      1.0000 0.75880  0.36610  0.28110  Biso   1.000  O
  O30      1.0000 0.80560  0.50770  0.14150  Biso   1.000  O
  O31      1.0000 0.11390  0.13910  0.54520  Biso   1.000  O
  O32      1.0000 0.85790  0.61030  0.02490  Biso   1.000  O
  O33      1.0000 0.55150  0.64180  0.93250  Biso   1.000  O
  O34      1.0000 0.49690  0.53580  0.04330  Biso   1.000  O
  O35      1.0000 0.95070  0.23740  0.43070  Biso   1.000  O
  O36      1.0000 0.90910  0.11180  0.65770  Biso   1.000  O
  C13      1.0000 0.98900  0.18290  0.51290  Biso   1.000  C
  C14      1.0000 0.76630  0.56520  0.06240  Biso   1.000  C
  C15      1.0000 0.58760  0.58140  0.00790  Biso   1.000  C
  C16      1.0000 0.87020  0.16970  0.57850  Biso   1.000  C
  H4       1.0000 0.81430  0.33630  0.24940  Biso   1.000  H
