data_image0
_cell_length_a       30.6196
_cell_length_b       16.0904
_cell_length_c       25.8822
_cell_angle_alpha    90
_cell_angle_beta     90.008
_cell_angle_gamma    90

_symmetry_space_group_name_H-M    "P 1"
_symmetry_int_tables_number       1

loop_
  _symmetry_equiv_pos_as_xyz
  'x, y, z'

loop_
  _atom_site_label
  _atom_site_occupancy
  _atom_site_fract_x
  _atom_site_fract_y
  _atom_site_fract_z
  _atom_site_thermal_displace_type
  _atom_site_B_iso_or_equiv
  _atom_site_type_symbol
  Er1      1.0000 0.49945  0.58923  0.06281  Biso   1.000  Er
  Er2      1.0000 0.49910  0.71497  0.25029  Biso   1.000  Er
  Er3      1.0000 0.49900  0.57758  0.43718  Biso   1.000  Er
  O1       1.0000 0.44890  0.70320  0.19670  Biso   1.000  O
  O2       1.0000 0.45640  0.65120  0.11850  Biso   1.000  O
  C1       1.0000 0.43460  0.68340  0.15360  Biso   1.000  C
  C2       1.0000 0.38670  0.69880  0.14090  Biso   1.000  C
  C3       1.0000 0.35910  0.73440  0.17650  Biso   1.000  C
  H1       1.0000 0.36960  0.74970  0.20880  Biso   1.000  H
  C4       1.0000 0.31440  0.74790  0.16370  Biso   1.000  C
  H2       1.0000 0.29590  0.77180  0.18800  Biso   1.000  H
  C5       1.0000 0.29830  0.72660  0.11660  Biso   1.000  C
  C6       1.0000 0.32610  0.69160  0.08190  Biso   1.000  C
  H3       1.0000 0.31530  0.67670  0.04960  Biso   1.000  H
  C7       1.0000 0.37100  0.67670  0.09300  Biso   1.000  C
  H4       1.0000 0.38930  0.65270  0.06840  Biso   1.000  H
  C8       1.0000 0.25160  0.74200  0.10450  Biso   1.000  C
  H5       1.0000 0.23760  0.70030  0.08590  Biso   1.000  H
  O3       1.0000 0.54760  0.71250  0.18440  Biso   1.000  O
  O4       1.0000 0.55450  0.61420  0.12350  Biso   1.000  O
  C9       1.0000 0.56750  0.67190  0.15120  Biso   1.000  C
  C10      1.0000 0.61500  0.69730  0.14410  Biso   1.000  C
  C11      1.0000 0.63090  0.76140  0.17400  Biso   1.000  C
  H6       1.0000 0.61280  0.78770  0.19770  Biso   1.000  H
  C12      1.0000 0.67520  0.78720  0.16860  Biso   1.000  C
  H7       1.0000 0.68670  0.83000  0.18850  Biso   1.000  H
  C13      1.0000 0.70010  0.74660  0.13310  Biso   1.000  C
  C14      1.0000 0.68480  0.68360  0.10320  Biso   1.000  C
  H8       1.0000 0.70310  0.65800  0.07930  Biso   1.000  H
  C15      1.0000 0.64060  0.65700  0.10840  Biso   1.000  C
  H9       1.0000 0.62950  0.61390  0.08830  Biso   1.000  H
  C16      1.0000 0.74560  0.77810  0.13040  Biso   1.000  C
  H10      1.0000 0.74770  0.82290  0.15300  Biso   1.000  H
  O5       1.0000 0.04430  0.98100  0.07400  Biso   1.000  O
  O6       1.0000 0.04280  0.88770  0.00980  Biso   1.000  O
  C17      1.0000 0.05900  0.92290  0.04780  Biso   1.000  C
  C18      1.0000 0.10330  0.88800  0.06340  Biso   1.000  C
  C19      1.0000 0.12470  0.92220  0.10500  Biso   1.000  C
  H11      1.0000 0.11170  0.96590  0.12280  Biso   1.000  H
  C20      1.0000 0.16630  0.89250  0.12150  Biso   1.000  C
  H12      1.0000 0.18010  0.91640  0.14980  Biso   1.000  H
  C21      1.0000 0.18560  0.82890  0.09560  Biso   1.000  C
  C22      1.0000 0.16440  0.79530  0.05450  Biso   1.000  C
  H13      1.0000 0.17770  0.75170  0.03680  Biso   1.000  H
  C23      1.0000 0.12280  0.82370  0.03710  Biso   1.000  C
  H14      1.0000 0.10920  0.79930  0.00880  Biso   1.000  H
  C24      1.0000 0.22890  0.80200  0.11560  Biso   1.000  C
  H15      1.0000 0.24070  0.83710  0.14070  Biso   1.000  H
  O7       1.0000 0.54660  0.59330  0.99480  Biso   1.000  O
  O8       1.0000 0.55170  0.52170  0.91920  Biso   1.000  O
  C25      1.0000 0.56310  0.57150  0.95320  Biso   1.000  C
  C26      1.0000 0.60600  0.61500  0.94110  Biso   1.000  C
  C27      1.0000 0.62210  0.67200  0.97580  Biso   1.000  C
  H16      1.0000 0.60680  0.68370  0.00600  Biso   1.000  H
  C28      1.0000 0.66240  0.71300  0.96510  Biso   1.000  C
  H17      1.0000 0.67320  0.75140  0.98870  Biso   1.000  H
  C29      1.0000 0.68540  0.69720  0.92120  Biso   1.000  C
  C30      1.0000 0.66940  0.64090  0.88700  Biso   1.000  C
  H18      1.0000 0.68500  0.62960  0.85690  Biso   1.000  H
  C31      1.0000 0.62910  0.59890  0.89650  Biso   1.000  C
  H19      1.0000 0.61850  0.56070  0.87270  Biso   1.000  H
  C32      1.0000 0.72690  0.74370  0.91430  Biso   1.000  C
  H20      1.0000 0.73040  0.79430  0.93110  Biso   1.000  H
  O9       1.0000 0.55290  0.67550  0.30540  Biso   1.000  O
  O10      1.0000 0.55420  0.59920  0.37510  Biso   1.000  O
  C33      1.0000 0.57110  0.64920  0.34480  Biso   1.000  C
  C34      1.0000 0.61680  0.68210  0.35510  Biso   1.000  C
  C35      1.0000 0.63870  0.73770  0.32410  Biso   1.000  C
  H21      1.0000 0.62510  0.75780  0.29450  Biso   1.000  H
  C36      1.0000 0.68170  0.76540  0.33640  Biso   1.000  C
  H22      1.0000 0.69610  0.80300  0.31510  Biso   1.000  H
  C37      1.0000 0.70120  0.73580  0.37980  Biso   1.000  C
  C38      1.0000 0.67980  0.68090  0.41060  Biso   1.000  C
  H23      1.0000 0.69360  0.66140  0.44030  Biso   1.000  H
  C39      1.0000 0.63680  0.65240  0.39890  Biso   1.000  C
  H24      1.0000 0.62270  0.61470  0.42040  Biso   1.000  H
  C40      1.0000 0.74580  0.76160  0.39560  Biso   1.000  C
  H25      1.0000 0.75040  0.75930  0.43110  Biso   1.000  H
  O11      1.0000 0.94640  0.80860  0.80550  Biso   1.000  O
  O12      1.0000 0.95330  0.86990  0.88210  Biso   1.000  O
  C41      1.0000 0.93340  0.82990  0.84870  Biso   1.000  C
  C42      1.0000 0.88700  0.80230  0.86100  Biso   1.000  C
  C43      1.0000 0.86490  0.75760  0.82400  Biso   1.000  C
  H26      1.0000 0.87860  0.74540  0.79290  Biso   1.000  H
  C44      1.0000 0.82130  0.72950  0.83250  Biso   1.000  C
  H27      1.0000 0.80670  0.69950  0.80720  Biso   1.000  H
  C45      1.0000 0.80140  0.74710  0.87810  Biso   1.000  C
  C46      1.0000 0.82340  0.79120  0.91460  Biso   1.000  C
  H28      1.0000 0.80950  0.80280  0.94580  Biso   1.000  H
  C47      1.0000 0.86700  0.82030  0.90730  Biso   1.000  C
  H29      1.0000 0.88130  0.85030  0.93280  Biso   1.000  H
  C48      1.0000 0.75610  0.71790  0.88750  Biso   1.000  C
  H30      1.0000 0.74880  0.67030  0.86910  Biso   1.000  H
  O13      1.0000 0.95820  0.95680  0.43230  Biso   1.000  O
  O14      1.0000 0.95250  0.87180  0.49900  Biso   1.000  O
  C49      1.0000 0.93960  0.90220  0.45780  Biso   1.000  C
  C50      1.0000 0.89680  0.87060  0.43540  Biso   1.000  C
  C51      1.0000 0.88270  0.90460  0.38950  Biso   1.000  C
  H31      1.0000 0.89870  0.94560  0.37270  Biso   1.000  H
  C52      1.0000 0.84250  0.87450  0.36890  Biso   1.000  C
  H32      1.0000 0.83180  0.89610  0.33810  Biso   1.000  H
  C53      1.0000 0.81980  0.81450  0.39430  Biso   1.000  C
  C54      1.0000 0.83430  0.78140  0.43940  Biso   1.000  C
  H33      1.0000 0.81810  0.74040  0.45590  Biso   1.000  H
  C55      1.0000 0.87440  0.80970  0.46140  Biso   1.000  C
  H34      1.0000 0.88480  0.78770  0.49230  Biso   1.000  H
  C56      1.0000 0.77820  0.78570  0.37100  Biso   1.000  C
  H35      1.0000 0.77620  0.78570  0.33510  Biso   1.000  H
  O15      1.0000 0.95400  0.90230  0.00250  Biso   1.000  O
  O16      1.0000 0.95260  0.98650  0.07230  Biso   1.000  O
  C57      1.0000 0.93930  0.93040  0.04360  Biso   1.000  C
  C58      1.0000 0.89740  0.88860  0.06200  Biso   1.000  C
  C59      1.0000 0.87980  0.82540  0.03300  Biso   1.000  C
  H36      1.0000 0.89290  0.80760  0.00250  Biso   1.000  H
  C60      1.0000 0.84060  0.78810  0.05160  Biso   1.000  C
  H37      1.0000 0.82800  0.74520  0.03260  Biso   1.000  H
  C61      1.0000 0.82080  0.81310  0.09590  Biso   1.000  C
  C62      1.0000 0.83870  0.87560  0.12410  Biso   1.000  C
  H38      1.0000 0.82540  0.89310  0.15450  Biso   1.000  H
  C63      1.0000 0.87800  0.91470  0.10710  Biso   1.000  C
  H39      1.0000 0.89040  0.95740  0.12630  Biso   1.000  H
  C64      1.0000 0.78010  0.76940  0.11120  Biso   1.000  C
  H40      1.0000 0.78310  0.71370  0.10220  Biso   1.000  H
  Er4      1.0000 0.99945  0.08923  0.06281  Biso   1.000  Er
  Er5      1.0000 0.99910  0.21497  0.25029  Biso   1.000  Er
  Er6      1.0000 0.99900  0.07758  0.43718  Biso   1.000  Er
  O17      1.0000 0.94890  0.20320  0.19670  Biso   1.000  O
  O18      1.0000 0.95640  0.15120  0.11850  Biso   1.000  O
  C65      1.0000 0.93460  0.18340  0.15360  Biso   1.000  C
  C66      1.0000 0.88670  0.19880  0.14090  Biso   1.000  C
  C67      1.0000 0.85910  0.23440  0.17650  Biso   1.000  C
  H41      1.0000 0.86960  0.24970  0.20880  Biso   1.000  H
  C68      1.0000 0.81440  0.24790  0.16370  Biso   1.000  C
  H42      1.0000 0.79590  0.27180  0.18800  Biso   1.000  H
  C69      1.0000 0.79830  0.22660  0.11660  Biso   1.000  C
  C70      1.0000 0.82610  0.19160  0.08190  Biso   1.000  C
  H43      1.0000 0.81530  0.17670  0.04960  Biso   1.000  H
  C71      1.0000 0.87100  0.17670  0.09300  Biso   1.000  C
  H44      1.0000 0.88930  0.15270  0.06840  Biso   1.000  H
  C72      1.0000 0.75160  0.24200  0.10450  Biso   1.000  C
  H45      1.0000 0.73760  0.20030  0.08590  Biso   1.000  H
  O19      1.0000 0.04760  0.21250  0.18440  Biso   1.000  O
  O20      1.0000 0.05450  0.11420  0.12350  Biso   1.000  O
  C73      1.0000 0.06750  0.17190  0.15120  Biso   1.000  C
  C74      1.0000 0.11500  0.19730  0.14410  Biso   1.000  C
  C75      1.0000 0.13090  0.26140  0.17400  Biso   1.000  C
  H46      1.0000 0.11280  0.28770  0.19770  Biso   1.000  H
  C76      1.0000 0.17520  0.28720  0.16860  Biso   1.000  C
  H47      1.0000 0.18670  0.33000  0.18850  Biso   1.000  H
  C77      1.0000 0.20010  0.24660  0.13310  Biso   1.000  C
  C78      1.0000 0.18480  0.18360  0.10320  Biso   1.000  C
  H48      1.0000 0.20310  0.15800  0.07930  Biso   1.000  H
  C79      1.0000 0.14060  0.15700  0.10840  Biso   1.000  C
  H49      1.0000 0.12950  0.11390  0.08830  Biso   1.000  H
  C80      1.0000 0.24560  0.27810  0.13040  Biso   1.000  C
  H50      1.0000 0.24770  0.32290  0.15300  Biso   1.000  H
  O21      1.0000 0.54430  0.48100  0.07400  Biso   1.000  O
  O22      1.0000 0.54280  0.38770  0.00980  Biso   1.000  O
  C81      1.0000 0.55900  0.42290  0.04780  Biso   1.000  C
  C82      1.0000 0.60330  0.38800  0.06340  Biso   1.000  C
  C83      1.0000 0.62470  0.42220  0.10500  Biso   1.000  C
  H51      1.0000 0.61170  0.46590  0.12280  Biso   1.000  H
  C84      1.0000 0.66630  0.39250  0.12150  Biso   1.000  C
  H52      1.0000 0.68010  0.41640  0.14980  Biso   1.000  H
  C85      1.0000 0.68560  0.32890  0.09560  Biso   1.000  C
  C86      1.0000 0.66440  0.29530  0.05450  Biso   1.000  C
  H53      1.0000 0.67770  0.25170  0.03680  Biso   1.000  H
  C87      1.0000 0.62280  0.32370  0.03710  Biso   1.000  C
  H54      1.0000 0.60920  0.29930  0.00880  Biso   1.000  H
  C88      1.0000 0.72890  0.30200  0.11560  Biso   1.000  C
  H55      1.0000 0.74070  0.33710  0.14070  Biso   1.000  H
  O23      1.0000 0.04660  0.09330  0.99480  Biso   1.000  O
  O24      1.0000 0.05170  0.02170  0.91920  Biso   1.000  O
  C89      1.0000 0.06310  0.07150  0.95320  Biso   1.000  C
  C90      1.0000 0.10600  0.11500  0.94110  Biso   1.000  C
  C91      1.0000 0.12210  0.17200  0.97580  Biso   1.000  C
  H56      1.0000 0.10680  0.18370  0.00600  Biso   1.000  H
  C92      1.0000 0.16240  0.21300  0.96510  Biso   1.000  C
  H57      1.0000 0.17320  0.25140  0.98870  Biso   1.000  H
  C93      1.0000 0.18540  0.19720  0.92120  Biso   1.000  C
  C94      1.0000 0.16940  0.14090  0.88700  Biso   1.000  C
  H58      1.0000 0.18500  0.12960  0.85690  Biso   1.000  H
  C95      1.0000 0.12910  0.09890  0.89650  Biso   1.000  C
  H59      1.0000 0.11850  0.06070  0.87270  Biso   1.000  H
  C96      1.0000 0.22690  0.24370  0.91430  Biso   1.000  C
  H60      1.0000 0.23040  0.29430  0.93110  Biso   1.000  H
  O25      1.0000 0.05290  0.17550  0.30540  Biso   1.000  O
  O26      1.0000 0.05420  0.09920  0.37510  Biso   1.000  O
  C97      1.0000 0.07110  0.14920  0.34480  Biso   1.000  C
  C98      1.0000 0.11680  0.18210  0.35510  Biso   1.000  C
  C99      1.0000 0.13870  0.23770  0.32410  Biso   1.000  C
  H61      1.0000 0.12510  0.25780  0.29450  Biso   1.000  H
  C100     1.0000 0.18170  0.26540  0.33640  Biso   1.000  C
  H62      1.0000 0.19610  0.30300  0.31510  Biso   1.000  H
  C101     1.0000 0.20120  0.23580  0.37980  Biso   1.000  C
  C102     1.0000 0.17980  0.18090  0.41060  Biso   1.000  C
  H63      1.0000 0.19360  0.16140  0.44030  Biso   1.000  H
  C103     1.0000 0.13680  0.15240  0.39890  Biso   1.000  C
  H64      1.0000 0.12270  0.11470  0.42040  Biso   1.000  H
  C104     1.0000 0.24580  0.26160  0.39560  Biso   1.000  C
  H65      1.0000 0.25040  0.25930  0.43110  Biso   1.000  H
  O27      1.0000 0.44640  0.30860  0.80550  Biso   1.000  O
  O28      1.0000 0.45330  0.36990  0.88210  Biso   1.000  O
  C105     1.0000 0.43340  0.32990  0.84870  Biso   1.000  C
  C106     1.0000 0.38700  0.30230  0.86100  Biso   1.000  C
  C107     1.0000 0.36490  0.25760  0.82400  Biso   1.000  C
  H66      1.0000 0.37860  0.24540  0.79290  Biso   1.000  H
  C108     1.0000 0.32130  0.22950  0.83250  Biso   1.000  C
  H67      1.0000 0.30670  0.19950  0.80720  Biso   1.000  H
  C109     1.0000 0.30140  0.24710  0.87810  Biso   1.000  C
  C110     1.0000 0.32340  0.29120  0.91460  Biso   1.000  C
  H68      1.0000 0.30950  0.30280  0.94580  Biso   1.000  H
  C111     1.0000 0.36700  0.32030  0.90730  Biso   1.000  C
  H69      1.0000 0.38130  0.35030  0.93280  Biso   1.000  H
  C112     1.0000 0.25610  0.21790  0.88750  Biso   1.000  C
  H70      1.0000 0.24880  0.17030  0.86910  Biso   1.000  H
  O29      1.0000 0.45820  0.45680  0.43230  Biso   1.000  O
  O30      1.0000 0.45250  0.37180  0.49900  Biso   1.000  O
  C113     1.0000 0.43960  0.40220  0.45780  Biso   1.000  C
  C114     1.0000 0.39680  0.37060  0.43540  Biso   1.000  C
  C115     1.0000 0.38270  0.40460  0.38950  Biso   1.000  C
  H71      1.0000 0.39870  0.44560  0.37270  Biso   1.000  H
  C116     1.0000 0.34250  0.37450  0.36890  Biso   1.000  C
  H72      1.0000 0.33180  0.39610  0.33810  Biso   1.000  H
  C117     1.0000 0.31980  0.31450  0.39430  Biso   1.000  C
  C118     1.0000 0.33430  0.28140  0.43940  Biso   1.000  C
  H73      1.0000 0.31810  0.24040  0.45590  Biso   1.000  H
  C119     1.0000 0.37440  0.30970  0.46140  Biso   1.000  C
  H74      1.0000 0.38480  0.28770  0.49230  Biso   1.000  H
  C120     1.0000 0.27820  0.28570  0.37100  Biso   1.000  C
  H75      1.0000 0.27620  0.28570  0.33510  Biso   1.000  H
  O31      1.0000 0.45400  0.40230  0.00250  Biso   1.000  O
  O32      1.0000 0.45260  0.48650  0.07230  Biso   1.000  O
  C121     1.0000 0.43930  0.43040  0.04360  Biso   1.000  C
  C122     1.0000 0.39740  0.38860  0.06200  Biso   1.000  C
  C123     1.0000 0.37980  0.32540  0.03300  Biso   1.000  C
  H76      1.0000 0.39290  0.30760  0.00250  Biso   1.000  H
  C124     1.0000 0.34060  0.28810  0.05160  Biso   1.000  C
  H77      1.0000 0.32800  0.24520  0.03260  Biso   1.000  H
  C125     1.0000 0.32080  0.31310  0.09590  Biso   1.000  C
  C126     1.0000 0.33870  0.37560  0.12410  Biso   1.000  C
  H78      1.0000 0.32540  0.39310  0.15450  Biso   1.000  H
  C127     1.0000 0.37800  0.41470  0.10710  Biso   1.000  C
  H79      1.0000 0.39040  0.45740  0.12630  Biso   1.000  H
  C128     1.0000 0.28010  0.26940  0.11120  Biso   1.000  C
  H80      1.0000 0.28310  0.21370  0.10220  Biso   1.000  H
  Er7      1.0000 0.49945  0.41077  0.56281  Biso   1.000  Er
  Er8      1.0000 0.49910  0.28503  0.75029  Biso   1.000  Er
  Er9      1.0000 0.49900  0.42242  0.93718  Biso   1.000  Er
  O33      1.0000 0.44890  0.29680  0.69670  Biso   1.000  O
  O34      1.0000 0.45640  0.34880  0.61850  Biso   1.000  O
  C129     1.0000 0.43460  0.31660  0.65360  Biso   1.000  C
  C130     1.0000 0.38670  0.30120  0.64090  Biso   1.000  C
  C131     1.0000 0.35910  0.26560  0.67650  Biso   1.000  C
  H81      1.0000 0.36960  0.25030  0.70880  Biso   1.000  H
  C132     1.0000 0.31440  0.25210  0.66370  Biso   1.000  C
  H82      1.0000 0.29590  0.22820  0.68800  Biso   1.000  H
  C133     1.0000 0.29830  0.27340  0.61660  Biso   1.000  C
  C134     1.0000 0.32610  0.30840  0.58190  Biso   1.000  C
  H83      1.0000 0.31530  0.32330  0.54960  Biso   1.000  H
  C135     1.0000 0.37100  0.32330  0.59300  Biso   1.000  C
  H84      1.0000 0.38930  0.34730  0.56840  Biso   1.000  H
  C136     1.0000 0.25160  0.25800  0.60450  Biso   1.000  C
  H85      1.0000 0.23760  0.29970  0.58590  Biso   1.000  H
  O35      1.0000 0.54760  0.28750  0.68440  Biso   1.000  O
  O36      1.0000 0.55450  0.38580  0.62350  Biso   1.000  O
  C137     1.0000 0.56750  0.32810  0.65120  Biso   1.000  C
  C138     1.0000 0.61500  0.30270  0.64410  Biso   1.000  C
  C139     1.0000 0.63090  0.23860  0.67400  Biso   1.000  C
  H86      1.0000 0.61280  0.21230  0.69770  Biso   1.000  H
  C140     1.0000 0.67520  0.21280  0.66860  Biso   1.000  C
  H87      1.0000 0.68670  0.17000  0.68850  Biso   1.000  H
  C141     1.0000 0.70010  0.25340  0.63310  Biso   1.000  C
  C142     1.0000 0.68480  0.31640  0.60320  Biso   1.000  C
  H88      1.0000 0.70310  0.34200  0.57930  Biso   1.000  H
  C143     1.0000 0.64060  0.34300  0.60840  Biso   1.000  C
  H89      1.0000 0.62950  0.38610  0.58830  Biso   1.000  H
  C144     1.0000 0.74560  0.22190  0.63040  Biso   1.000  C
  H90      1.0000 0.74770  0.17710  0.65300  Biso   1.000  H
  O37      1.0000 0.04430  0.01900  0.57400  Biso   1.000  O
  O38      1.0000 0.04280  0.11230  0.50980  Biso   1.000  O
  C145     1.0000 0.05900  0.07710  0.54780  Biso   1.000  C
  C146     1.0000 0.10330  0.11200  0.56340  Biso   1.000  C
  C147     1.0000 0.12470  0.07780  0.60500  Biso   1.000  C
  H91      1.0000 0.11170  0.03410  0.62280  Biso   1.000  H
  C148     1.0000 0.16630  0.10750  0.62150  Biso   1.000  C
  H92      1.0000 0.18010  0.08360  0.64980  Biso   1.000  H
  C149     1.0000 0.18560  0.17110  0.59560  Biso   1.000  C
  C150     1.0000 0.16440  0.20470  0.55450  Biso   1.000  C
  H93      1.0000 0.17770  0.24830  0.53680  Biso   1.000  H
  C151     1.0000 0.12280  0.17630  0.53710  Biso   1.000  C
  H94      1.0000 0.10920  0.20070  0.50880  Biso   1.000  H
  C152     1.0000 0.22890  0.19800  0.61560  Biso   1.000  C
  H95      1.0000 0.24070  0.16290  0.64070  Biso   1.000  H
  O39      1.0000 0.54660  0.40670  0.49480  Biso   1.000  O
  O40      1.0000 0.55170  0.47830  0.41920  Biso   1.000  O
  C153     1.0000 0.56310  0.42850  0.45320  Biso   1.000  C
  C154     1.0000 0.60600  0.38500  0.44110  Biso   1.000  C
  C155     1.0000 0.62210  0.32800  0.47580  Biso   1.000  C
  H96      1.0000 0.60680  0.31630  0.50600  Biso   1.000  H
  C156     1.0000 0.66240  0.28700  0.46510  Biso   1.000  C
  H97      1.0000 0.67320  0.24860  0.48870  Biso   1.000  H
  C157     1.0000 0.68540  0.30280  0.42120  Biso   1.000  C
  C158     1.0000 0.66940  0.35910  0.38700  Biso   1.000  C
  H98      1.0000 0.68500  0.37040  0.35690  Biso   1.000  H
  C159     1.0000 0.62910  0.40110  0.39650  Biso   1.000  C
  H99      1.0000 0.61850  0.43930  0.37270  Biso   1.000  H
  C160     1.0000 0.72690  0.25630  0.41430  Biso   1.000  C
  H100     1.0000 0.73040  0.20570  0.43110  Biso   1.000  H
  O41      1.0000 0.55290  0.32450  0.80540  Biso   1.000  O
  O42      1.0000 0.55420  0.40080  0.87510  Biso   1.000  O
  C161     1.0000 0.57110  0.35080  0.84480  Biso   1.000  C
  C162     1.0000 0.61680  0.31790  0.85510  Biso   1.000  C
  C163     1.0000 0.63870  0.26230  0.82410  Biso   1.000  C
  H101     1.0000 0.62510  0.24220  0.79450  Biso   1.000  H
  C164     1.0000 0.68170  0.23460  0.83640  Biso   1.000  C
  H102     1.0000 0.69610  0.19700  0.81510  Biso   1.000  H
  C165     1.0000 0.70120  0.26420  0.87980  Biso   1.000  C
  C166     1.0000 0.67980  0.31910  0.91060  Biso   1.000  C
  H103     1.0000 0.69360  0.33860  0.94030  Biso   1.000  H
  C167     1.0000 0.63680  0.34760  0.89890  Biso   1.000  C
  H104     1.0000 0.62270  0.38530  0.92040  Biso   1.000  H
  C168     1.0000 0.74580  0.23840  0.89560  Biso   1.000  C
  H105     1.0000 0.75040  0.24070  0.93110  Biso   1.000  H
  O43      1.0000 0.94640  0.19140  0.30550  Biso   1.000  O
  O44      1.0000 0.95330  0.13010  0.38210  Biso   1.000  O
  C169     1.0000 0.93340  0.17010  0.34870  Biso   1.000  C
  C170     1.0000 0.88700  0.19770  0.36100  Biso   1.000  C
  C171     1.0000 0.86490  0.24240  0.32400  Biso   1.000  C
  H106     1.0000 0.87860  0.25460  0.29290  Biso   1.000  H
  C172     1.0000 0.82130  0.27050  0.33250  Biso   1.000  C
  H107     1.0000 0.80670  0.30050  0.30720  Biso   1.000  H
  C173     1.0000 0.80140  0.25290  0.37810  Biso   1.000  C
  C174     1.0000 0.82340  0.20880  0.41460  Biso   1.000  C
  H108     1.0000 0.80950  0.19720  0.44580  Biso   1.000  H
  C175     1.0000 0.86700  0.17970  0.40730  Biso   1.000  C
  H109     1.0000 0.88130  0.14970  0.43280  Biso   1.000  H
  C176     1.0000 0.75610  0.28210  0.38750  Biso   1.000  C
  H110     1.0000 0.74880  0.32970  0.36910  Biso   1.000  H
  O45      1.0000 0.95820  0.04320  0.93230  Biso   1.000  O
  O46      1.0000 0.95250  0.12820  0.99900  Biso   1.000  O
  C177     1.0000 0.93960  0.09780  0.95780  Biso   1.000  C
  C178     1.0000 0.89680  0.12940  0.93540  Biso   1.000  C
  C179     1.0000 0.88270  0.09540  0.88950  Biso   1.000  C
  H111     1.0000 0.89870  0.05440  0.87270  Biso   1.000  H
  C180     1.0000 0.84250  0.12550  0.86890  Biso   1.000  C
  H112     1.0000 0.83180  0.10390  0.83810  Biso   1.000  H
  C181     1.0000 0.81980  0.18550  0.89430  Biso   1.000  C
  C182     1.0000 0.83430  0.21860  0.93940  Biso   1.000  C
  H113     1.0000 0.81810  0.25960  0.95590  Biso   1.000  H
  C183     1.0000 0.87440  0.19030  0.96140  Biso   1.000  C
  H114     1.0000 0.88480  0.21230  0.99230  Biso   1.000  H
  C184     1.0000 0.77820  0.21430  0.87100  Biso   1.000  C
  H115     1.0000 0.77620  0.21430  0.83510  Biso   1.000  H
  O47      1.0000 0.95400  0.09770  0.50250  Biso   1.000  O
  O48      1.0000 0.95260  0.01350  0.57230  Biso   1.000  O
  C185     1.0000 0.93930  0.06960  0.54360  Biso   1.000  C
  C186     1.0000 0.89740  0.11140  0.56200  Biso   1.000  C
  C187     1.0000 0.87980  0.17460  0.53300  Biso   1.000  C
  H116     1.0000 0.89290  0.19240  0.50250  Biso   1.000  H
  C188     1.0000 0.84060  0.21190  0.55160  Biso   1.000  C
  H117     1.0000 0.82800  0.25480  0.53260  Biso   1.000  H
  C189     1.0000 0.82080  0.18690  0.59590  Biso   1.000  C
  C190     1.0000 0.83870  0.12440  0.62410  Biso   1.000  C
  H118     1.0000 0.82540  0.10690  0.65450  Biso   1.000  H
  C191     1.0000 0.87800  0.08530  0.60710  Biso   1.000  C
  H119     1.0000 0.89040  0.04260  0.62630  Biso   1.000  H
  C192     1.0000 0.78010  0.23060  0.61120  Biso   1.000  C
  H120     1.0000 0.78310  0.28630  0.60220  Biso   1.000  H
  Er10     1.0000 0.99945  0.91077  0.56281  Biso   1.000  Er
  Er11     1.0000 0.99910  0.78503  0.75029  Biso   1.000  Er
  Er12     1.0000 0.99900  0.92242  0.93718  Biso   1.000  Er
  O49      1.0000 0.94890  0.79680  0.69670  Biso   1.000  O
  O50      1.0000 0.95640  0.84880  0.61850  Biso   1.000  O
  C193     1.0000 0.93460  0.81660  0.65360  Biso   1.000  C
  C194     1.0000 0.88670  0.80120  0.64090  Biso   1.000  C
  C195     1.0000 0.85910  0.76560  0.67650  Biso   1.000  C
  H121     1.0000 0.86960  0.75030  0.70880  Biso   1.000  H
  C196     1.0000 0.81440  0.75210  0.66370  Biso   1.000  C
  H122     1.0000 0.79590  0.72820  0.68800  Biso   1.000  H
  C197     1.0000 0.79830  0.77340  0.61660  Biso   1.000  C
  C198     1.0000 0.82610  0.80840  0.58190  Biso   1.000  C
  H123     1.0000 0.81530  0.82330  0.54960  Biso   1.000  H
  C199     1.0000 0.87100  0.82330  0.59300  Biso   1.000  C
  H124     1.0000 0.88930  0.84730  0.56840  Biso   1.000  H
  C200     1.0000 0.75160  0.75800  0.60450  Biso   1.000  C
  H125     1.0000 0.73760  0.79970  0.58590  Biso   1.000  H
  O51      1.0000 0.04760  0.78750  0.68440  Biso   1.000  O
  O52      1.0000 0.05450  0.88580  0.62350  Biso   1.000  O
  C201     1.0000 0.06750  0.82810  0.65120  Biso   1.000  C
  C202     1.0000 0.11500  0.80270  0.64410  Biso   1.000  C
  C203     1.0000 0.13090  0.73860  0.67400  Biso   1.000  C
  H126     1.0000 0.11280  0.71230  0.69770  Biso   1.000  H
  C204     1.0000 0.17520  0.71280  0.66860  Biso   1.000  C
  H127     1.0000 0.18670  0.67000  0.68850  Biso   1.000  H
  C205     1.0000 0.20010  0.75340  0.63310  Biso   1.000  C
  C206     1.0000 0.18480  0.81640  0.60320  Biso   1.000  C
  H128     1.0000 0.20310  0.84200  0.57930  Biso   1.000  H
  C207     1.0000 0.14060  0.84300  0.60840  Biso   1.000  C
  H129     1.0000 0.12950  0.88610  0.58830  Biso   1.000  H
  C208     1.0000 0.24560  0.72190  0.63040  Biso   1.000  C
  H130     1.0000 0.24770  0.67710  0.65300  Biso   1.000  H
  O53      1.0000 0.54430  0.51900  0.57400  Biso   1.000  O
  O54      1.0000 0.54280  0.61230  0.50980  Biso   1.000  O
  C209     1.0000 0.55900  0.57710  0.54780  Biso   1.000  C
  C210     1.0000 0.60330  0.61200  0.56340  Biso   1.000  C
  C211     1.0000 0.62470  0.57780  0.60500  Biso   1.000  C
  H131     1.0000 0.61170  0.53410  0.62280  Biso   1.000  H
  C212     1.0000 0.66630  0.60750  0.62150  Biso   1.000  C
  H132     1.0000 0.68010  0.58360  0.64980  Biso   1.000  H
  C213     1.0000 0.68560  0.67110  0.59560  Biso   1.000  C
  C214     1.0000 0.66440  0.70470  0.55450  Biso   1.000  C
  H133     1.0000 0.67770  0.74830  0.53680  Biso   1.000  H
  C215     1.0000 0.62280  0.67630  0.53710  Biso   1.000  C
  H134     1.0000 0.60920  0.70070  0.50880  Biso   1.000  H
  C216     1.0000 0.72890  0.69800  0.61560  Biso   1.000  C
  H135     1.0000 0.74070  0.66290  0.64070  Biso   1.000  H
  O55      1.0000 0.04660  0.90670  0.49480  Biso   1.000  O
  O56      1.0000 0.05170  0.97830  0.41920  Biso   1.000  O
  C217     1.0000 0.06310  0.92850  0.45320  Biso   1.000  C
  C218     1.0000 0.10600  0.88500  0.44110  Biso   1.000  C
  C219     1.0000 0.12210  0.82800  0.47580  Biso   1.000  C
  H136     1.0000 0.10680  0.81630  0.50600  Biso   1.000  H
  C220     1.0000 0.16240  0.78700  0.46510  Biso   1.000  C
  H137     1.0000 0.17320  0.74860  0.48870  Biso   1.000  H
  C221     1.0000 0.18540  0.80280  0.42120  Biso   1.000  C
  C222     1.0000 0.16940  0.85910  0.38700  Biso   1.000  C
  H138     1.0000 0.18500  0.87040  0.35690  Biso   1.000  H
  C223     1.0000 0.12910  0.90110  0.39650  Biso   1.000  C
  H139     1.0000 0.11850  0.93930  0.37270  Biso   1.000  H
  C224     1.0000 0.22690  0.75630  0.41430  Biso   1.000  C
  H140     1.0000 0.23040  0.70570  0.43110  Biso   1.000  H
  O57      1.0000 0.05290  0.82450  0.80540  Biso   1.000  O
  O58      1.0000 0.05420  0.90080  0.87510  Biso   1.000  O
  C225     1.0000 0.07110  0.85080  0.84480  Biso   1.000  C
  C226     1.0000 0.11680  0.81790  0.85510  Biso   1.000  C
  C227     1.0000 0.13870  0.76230  0.82410  Biso   1.000  C
  H141     1.0000 0.12510  0.74220  0.79450  Biso   1.000  H
  C228     1.0000 0.18170  0.73460  0.83640  Biso   1.000  C
  H142     1.0000 0.19610  0.69700  0.81510  Biso   1.000  H
  C229     1.0000 0.20120  0.76420  0.87980  Biso   1.000  C
  C230     1.0000 0.17980  0.81910  0.91060  Biso   1.000  C
  H143     1.0000 0.19360  0.83860  0.94030  Biso   1.000  H
  C231     1.0000 0.13680  0.84760  0.89890  Biso   1.000  C
  H144     1.0000 0.12270  0.88530  0.92040  Biso   1.000  H
  C232     1.0000 0.24580  0.73840  0.89560  Biso   1.000  C
  H145     1.0000 0.25040  0.74070  0.93110  Biso   1.000  H
  O59      1.0000 0.44640  0.69140  0.30550  Biso   1.000  O
  O60      1.0000 0.45330  0.63010  0.38210  Biso   1.000  O
  C233     1.0000 0.43340  0.67010  0.34870  Biso   1.000  C
  C234     1.0000 0.38700  0.69770  0.36100  Biso   1.000  C
  C235     1.0000 0.36490  0.74240  0.32400  Biso   1.000  C
  H146     1.0000 0.37860  0.75460  0.29290  Biso   1.000  H
  C236     1.0000 0.32130  0.77050  0.33250  Biso   1.000  C
  H147     1.0000 0.30670  0.80050  0.30720  Biso   1.000  H
  C237     1.0000 0.30140  0.75290  0.37810  Biso   1.000  C
  C238     1.0000 0.32340  0.70880  0.41460  Biso   1.000  C
  H148     1.0000 0.30950  0.69720  0.44580  Biso   1.000  H
  C239     1.0000 0.36700  0.67970  0.40730  Biso   1.000  C
  H149     1.0000 0.38130  0.64970  0.43280  Biso   1.000  H
  C240     1.0000 0.25610  0.78210  0.38750  Biso   1.000  C
  H150     1.0000 0.24880  0.82970  0.36910  Biso   1.000  H
  O61      1.0000 0.45820  0.54320  0.93230  Biso   1.000  O
  O62      1.0000 0.45250  0.62820  0.99900  Biso   1.000  O
  C241     1.0000 0.43960  0.59780  0.95780  Biso   1.000  C
  C242     1.0000 0.39680  0.62940  0.93540  Biso   1.000  C
  C243     1.0000 0.38270  0.59540  0.88950  Biso   1.000  C
  H151     1.0000 0.39870  0.55440  0.87270  Biso   1.000  H
  C244     1.0000 0.34250  0.62550  0.86890  Biso   1.000  C
  H152     1.0000 0.33180  0.60390  0.83810  Biso   1.000  H
  C245     1.0000 0.31980  0.68550  0.89430  Biso   1.000  C
  C246     1.0000 0.33430  0.71860  0.93940  Biso   1.000  C
  H153     1.0000 0.31810  0.75960  0.95590  Biso   1.000  H
  C247     1.0000 0.37440  0.69030  0.96140  Biso   1.000  C
  H154     1.0000 0.38480  0.71230  0.99230  Biso   1.000  H
  C248     1.0000 0.27820  0.71430  0.87100  Biso   1.000  C
  H155     1.0000 0.27620  0.71430  0.83510  Biso   1.000  H
  O63      1.0000 0.45400  0.59770  0.50250  Biso   1.000  O
  O64      1.0000 0.45260  0.51350  0.57230  Biso   1.000  O
  C249     1.0000 0.43930  0.56960  0.54360  Biso   1.000  C
  C250     1.0000 0.39740  0.61140  0.56200  Biso   1.000  C
  C251     1.0000 0.37980  0.67460  0.53300  Biso   1.000  C
  H156     1.0000 0.39290  0.69240  0.50250  Biso   1.000  H
  C252     1.0000 0.34060  0.71190  0.55160  Biso   1.000  C
  H157     1.0000 0.32800  0.75480  0.53260  Biso   1.000  H
  C253     1.0000 0.32080  0.68690  0.59590  Biso   1.000  C
  C254     1.0000 0.33870  0.62440  0.62410  Biso   1.000  C
  H158     1.0000 0.32540  0.60690  0.65450  Biso   1.000  H
  C255     1.0000 0.37800  0.58530  0.60710  Biso   1.000  C
  H159     1.0000 0.39040  0.54260  0.62630  Biso   1.000  H
  C256     1.0000 0.28010  0.73060  0.61120  Biso   1.000  C
  H160     1.0000 0.28310  0.78630  0.60220  Biso   1.000  H
