data_image0
_cell_length_a       30.492
_cell_length_b       15.9861
_cell_length_c       25.7022
_cell_angle_alpha    90
_cell_angle_beta     89.991
_cell_angle_gamma    90

_symmetry_space_group_name_H-M    "P 1"
_symmetry_int_tables_number       1

loop_
  _symmetry_equiv_pos_as_xyz
  'x, y, z'

loop_
  _atom_site_label
  _atom_site_occupancy
  _atom_site_fract_x
  _atom_site_fract_y
  _atom_site_fract_z
  _atom_site_thermal_displace_type
  _atom_site_B_iso_or_equiv
  _atom_site_type_symbol
  Tm1      1.0000 0.49989  0.59772  0.06366  Biso   1.000  Tm
  Tm2      1.0000 0.50043  0.70806  0.25111  Biso   1.000  Tm
  Tm3      1.0000 0.49970  0.56909  0.43751  Biso   1.000  Tm
  O1       1.0000 0.44720  0.69820  0.19870  Biso   1.000  O
  O2       1.0000 0.45740  0.64250  0.12320  Biso   1.000  O
  C1       1.0000 0.43340  0.67870  0.15500  Biso   1.000  C
  C2       1.0000 0.38650  0.70060  0.14180  Biso   1.000  C
  C3       1.0000 0.35900  0.74050  0.17560  Biso   1.000  C
  H1       1.0000 0.36930  0.75530  0.20840  Biso   1.000  H
  C4       1.0000 0.31510  0.75980  0.16170  Biso   1.000  C
  H2       1.0000 0.29690  0.78700  0.18540  Biso   1.000  H
  C5       1.0000 0.29950  0.73910  0.11440  Biso   1.000  C
  C6       1.0000 0.32580  0.69970  0.08030  Biso   1.000  C
  H3       1.0000 0.31520  0.68500  0.04760  Biso   1.000  H
  C7       1.0000 0.36980  0.68050  0.09420  Biso   1.000  C
  H4       1.0000 0.38760  0.65350  0.07010  Biso   1.000  H
  C8       1.0000 0.25270  0.76260  0.10360  Biso   1.000  C
  H5       1.0000 0.23980  0.73240  0.07670  Biso   1.000  H
  O3       1.0000 0.54900  0.72060  0.18370  Biso   1.000  O
  O4       1.0000 0.55550  0.62100  0.12170  Biso   1.000  O
  C9       1.0000 0.56840  0.67870  0.15020  Biso   1.000  C
  C10      1.0000 0.61600  0.70430  0.14420  Biso   1.000  C
  C11      1.0000 0.63330  0.76740  0.17360  Biso   1.000  C
  H6       1.0000 0.61580  0.79500  0.19780  Biso   1.000  H
  C12      1.0000 0.67800  0.79090  0.16770  Biso   1.000  C
  H7       1.0000 0.68980  0.83360  0.18780  Biso   1.000  H
  C13      1.0000 0.70300  0.75070  0.13240  Biso   1.000  C
  C14      1.0000 0.68710  0.68840  0.10270  Biso   1.000  C
  H8       1.0000 0.70490  0.66150  0.07850  Biso   1.000  H
  C15      1.0000 0.64240  0.66490  0.10900  Biso   1.000  C
  H9       1.0000 0.63100  0.62180  0.08890  Biso   1.000  H
  C16      1.0000 0.74990  0.77810  0.12800  Biso   1.000  C
  H10      1.0000 0.75700  0.82040  0.15140  Biso   1.000  H
  O5       1.0000 0.04080  0.97840  0.06330  Biso   1.000  O
  O6       1.0000 0.04550  0.87640  0.00540  Biso   1.000  O
  C17      1.0000 0.05950  0.91810  0.04270  Biso   1.000  C
  C18      1.0000 0.10350  0.89200  0.06450  Biso   1.000  C
  C19      1.0000 0.12140  0.93440  0.10550  Biso   1.000  C
  H11      1.0000 0.10700  0.97970  0.12050  Biso   1.000  H
  C20      1.0000 0.16290  0.90730  0.12440  Biso   1.000  C
  H12      1.0000 0.17560  0.93540  0.15230  Biso   1.000  H
  C21      1.0000 0.18430  0.84210  0.10310  Biso   1.000  C
  C22      1.0000 0.16660  0.80020  0.06280  Biso   1.000  C
  H13      1.0000 0.18140  0.75520  0.04800  Biso   1.000  H
  C23      1.0000 0.12520  0.82580  0.04310  Biso   1.000  C
  H14      1.0000 0.11280  0.79720  0.01530  Biso   1.000  H
  C24      1.0000 0.22800  0.81500  0.12410  Biso   1.000  C
  H15      1.0000 0.23740  0.83950  0.15500  Biso   1.000  H
  O7       1.0000 0.54630  0.59750  0.99250  Biso   1.000  O
  O8       1.0000 0.55560  0.52030  0.92000  Biso   1.000  O
  C25      1.0000 0.56570  0.57400  0.95280  Biso   1.000  C
  C26      1.0000 0.60870  0.61860  0.94300  Biso   1.000  C
  C27      1.0000 0.62480  0.67930  0.97500  Biso   1.000  C
  H16      1.0000 0.60900  0.69470  0.00440  Biso   1.000  H
  C28      1.0000 0.66540  0.71930  0.96430  Biso   1.000  C
  H17      1.0000 0.67550  0.76050  0.98690  Biso   1.000  H
  C29      1.0000 0.68980  0.69950  0.92230  Biso   1.000  C
  C30      1.0000 0.67470  0.63970  0.89010  Biso   1.000  C
  H18      1.0000 0.69090  0.62470  0.86080  Biso   1.000  H
  C31      1.0000 0.63400  0.59980  0.90080  Biso   1.000  C
  H19      1.0000 0.62420  0.55880  0.87790  Biso   1.000  H
  C32      1.0000 0.73230  0.74530  0.91440  Biso   1.000  C
  H20      1.0000 0.73920  0.79330  0.93310  Biso   1.000  H
  O9       1.0000 0.55490  0.67710  0.30390  Biso   1.000  O
  O10      1.0000 0.55050  0.59340  0.37130  Biso   1.000  O
  C33      1.0000 0.57020  0.64470  0.34380  Biso   1.000  C
  C34      1.0000 0.61600  0.67400  0.35640  Biso   1.000  C
  C35      1.0000 0.63780  0.73070  0.32610  Biso   1.000  C
  H21      1.0000 0.62390  0.75230  0.29680  Biso   1.000  H
  C36      1.0000 0.68100  0.75770  0.33810  Biso   1.000  C
  H22      1.0000 0.69570  0.79610  0.31730  Biso   1.000  H
  C37      1.0000 0.69970  0.72530  0.38110  Biso   1.000  C
  C38      1.0000 0.67920  0.66940  0.41170  Biso   1.000  C
  H23      1.0000 0.69340  0.64830  0.44100  Biso   1.000  H
  C39      1.0000 0.63610  0.64240  0.39950  Biso   1.000  C
  H24      1.0000 0.62170  0.60380  0.42060  Biso   1.000  H
  C40      1.0000 0.74530  0.75080  0.39660  Biso   1.000  C
  H25      1.0000 0.74910  0.75010  0.43250  Biso   1.000  H
  O11      1.0000 0.95210  0.81240  0.81250  Biso   1.000  O
  O12      1.0000 0.95070  0.88510  0.88570  Biso   1.000  O
  C41      1.0000 0.93430  0.83790  0.85290  Biso   1.000  C
  C42      1.0000 0.88800  0.80760  0.86210  Biso   1.000  C
  C43      1.0000 0.86920  0.75540  0.82640  Biso   1.000  C
  H26      1.0000 0.88480  0.73890  0.79710  Biso   1.000  H
  C44      1.0000 0.82570  0.72640  0.83430  Biso   1.000  C
  H27      1.0000 0.81270  0.69100  0.81010  Biso   1.000  H
  C45      1.0000 0.80330  0.75020  0.87690  Biso   1.000  C
  C46      1.0000 0.82110  0.80160  0.91270  Biso   1.000  C
  H28      1.0000 0.80520  0.81760  0.94190  Biso   1.000  H
  C47      1.0000 0.86460  0.83090  0.90490  Biso   1.000  C
  H29      1.0000 0.87730  0.86640  0.92930  Biso   1.000  H
  C48      1.0000 0.75760  0.71560  0.88140  Biso   1.000  C
  H30      1.0000 0.74850  0.67250  0.85970  Biso   1.000  H
  O13      1.0000 0.96070  0.94560  0.42950  Biso   1.000  O
  O14      1.0000 0.95390  0.86300  0.50010  Biso   1.000  O
  C49      1.0000 0.94250  0.89290  0.45760  Biso   1.000  C
  C50      1.0000 0.89950  0.86090  0.43590  Biso   1.000  C
  C51      1.0000 0.88450  0.89030  0.38940  Biso   1.000  C
  H31      1.0000 0.90040  0.92990  0.37090  Biso   1.000  H
  C52      1.0000 0.84400  0.85960  0.36960  Biso   1.000  C
  H32      1.0000 0.83340  0.87910  0.33800  Biso   1.000  H
  C53      1.0000 0.82130  0.80240  0.39680  Biso   1.000  C
  C54      1.0000 0.83660  0.77370  0.44250  Biso   1.000  C
  H33      1.0000 0.82050  0.73390  0.46060  Biso   1.000  H
  C55      1.0000 0.87680  0.80260  0.46380  Biso   1.000  C
  H34      1.0000 0.88720  0.78260  0.49540  Biso   1.000  H
  C56      1.0000 0.77880  0.77240  0.37360  Biso   1.000  C
  H35      1.0000 0.77780  0.76980  0.33750  Biso   1.000  H
  O15      1.0000 0.95440  0.91400  0.00100  Biso   1.000  O
  O16      1.0000 0.95370  0.98890  0.07550  Biso   1.000  O
  C57      1.0000 0.94000  0.93640  0.04400  Biso   1.000  C
  C58      1.0000 0.89860  0.89260  0.06180  Biso   1.000  C
  C59      1.0000 0.88100  0.83370  0.02960  Biso   1.000  C
  H36      1.0000 0.89420  0.82100  0.99790  Biso   1.000  H
  C60      1.0000 0.84200  0.79210  0.04540  Biso   1.000  C
  H37      1.0000 0.83010  0.75180  0.02350  Biso   1.000  H
  C61      1.0000 0.82160  0.80820  0.09070  Biso   1.000  C
  C62      1.0000 0.83890  0.86630  0.12250  Biso   1.000  C
  H38      1.0000 0.82530  0.87860  0.15400  Biso   1.000  H
  C63      1.0000 0.87790  0.90910  0.10780  Biso   1.000  C
  H39      1.0000 0.88960  0.94910  0.13010  Biso   1.000  H
  C64      1.0000 0.78080  0.75810  0.10100  Biso   1.000  C
  H40      1.0000 0.77910  0.70610  0.08490  Biso   1.000  H
  Tm4      1.0000 0.99989  0.09772  0.06366  Biso   1.000  Tm
  Tm5      1.0000 0.00043  0.20806  0.25111  Biso   1.000  Tm
  Tm6      1.0000 0.99970  0.06909  0.43751  Biso   1.000  Tm
  O17      1.0000 0.94720  0.19820  0.19870  Biso   1.000  O
  O18      1.0000 0.95740  0.14250  0.12320  Biso   1.000  O
  C65      1.0000 0.93340  0.17870  0.15500  Biso   1.000  C
  C66      1.0000 0.88650  0.20060  0.14180  Biso   1.000  C
  C67      1.0000 0.85900  0.24050  0.17560  Biso   1.000  C
  H41      1.0000 0.86930  0.25530  0.20840  Biso   1.000  H
  C68      1.0000 0.81510  0.25980  0.16170  Biso   1.000  C
  H42      1.0000 0.79690  0.28700  0.18540  Biso   1.000  H
  C69      1.0000 0.79950  0.23910  0.11440  Biso   1.000  C
  C70      1.0000 0.82580  0.19970  0.08030  Biso   1.000  C
  H43      1.0000 0.81520  0.18500  0.04760  Biso   1.000  H
  C71      1.0000 0.86980  0.18050  0.09420  Biso   1.000  C
  H44      1.0000 0.88760  0.15350  0.07010  Biso   1.000  H
  C72      1.0000 0.75270  0.26260  0.10360  Biso   1.000  C
  H45      1.0000 0.73980  0.23240  0.07670  Biso   1.000  H
  O19      1.0000 0.04900  0.22060  0.18370  Biso   1.000  O
  O20      1.0000 0.05550  0.12100  0.12170  Biso   1.000  O
  C73      1.0000 0.06840  0.17870  0.15020  Biso   1.000  C
  C74      1.0000 0.11600  0.20430  0.14420  Biso   1.000  C
  C75      1.0000 0.13330  0.26740  0.17360  Biso   1.000  C
  H46      1.0000 0.11580  0.29500  0.19780  Biso   1.000  H
  C76      1.0000 0.17800  0.29090  0.16770  Biso   1.000  C
  H47      1.0000 0.18980  0.33360  0.18780  Biso   1.000  H
  C77      1.0000 0.20300  0.25070  0.13240  Biso   1.000  C
  C78      1.0000 0.18710  0.18840  0.10270  Biso   1.000  C
  H48      1.0000 0.20490  0.16150  0.07850  Biso   1.000  H
  C79      1.0000 0.14240  0.16490  0.10900  Biso   1.000  C
  H49      1.0000 0.13100  0.12180  0.08890  Biso   1.000  H
  C80      1.0000 0.24990  0.27810  0.12800  Biso   1.000  C
  H50      1.0000 0.25700  0.32040  0.15140  Biso   1.000  H
  O21      1.0000 0.54080  0.47840  0.06330  Biso   1.000  O
  O22      1.0000 0.54550  0.37640  0.00540  Biso   1.000  O
  C81      1.0000 0.55950  0.41810  0.04270  Biso   1.000  C
  C82      1.0000 0.60350  0.39200  0.06450  Biso   1.000  C
  C83      1.0000 0.62140  0.43440  0.10550  Biso   1.000  C
  H51      1.0000 0.60700  0.47970  0.12050  Biso   1.000  H
  C84      1.0000 0.66290  0.40730  0.12440  Biso   1.000  C
  H52      1.0000 0.67560  0.43540  0.15230  Biso   1.000  H
  C85      1.0000 0.68430  0.34210  0.10310  Biso   1.000  C
  C86      1.0000 0.66660  0.30020  0.06280  Biso   1.000  C
  H53      1.0000 0.68140  0.25520  0.04800  Biso   1.000  H
  C87      1.0000 0.62520  0.32580  0.04310  Biso   1.000  C
  H54      1.0000 0.61280  0.29720  0.01530  Biso   1.000  H
  C88      1.0000 0.72800  0.31500  0.12410  Biso   1.000  C
  H55      1.0000 0.73740  0.33950  0.15500  Biso   1.000  H
  O23      1.0000 0.04630  0.09750  0.99250  Biso   1.000  O
  O24      1.0000 0.05560  0.02030  0.92000  Biso   1.000  O
  C89      1.0000 0.06570  0.07400  0.95280  Biso   1.000  C
  C90      1.0000 0.10870  0.11860  0.94300  Biso   1.000  C
  C91      1.0000 0.12480  0.17930  0.97500  Biso   1.000  C
  H56      1.0000 0.10900  0.19470  0.00440  Biso   1.000  H
  C92      1.0000 0.16540  0.21930  0.96430  Biso   1.000  C
  H57      1.0000 0.17550  0.26050  0.98690  Biso   1.000  H
  C93      1.0000 0.18980  0.19950  0.92230  Biso   1.000  C
  C94      1.0000 0.17470  0.13970  0.89010  Biso   1.000  C
  H58      1.0000 0.19090  0.12470  0.86080  Biso   1.000  H
  C95      1.0000 0.13400  0.09980  0.90080  Biso   1.000  C
  H59      1.0000 0.12420  0.05880  0.87790  Biso   1.000  H
  C96      1.0000 0.23230  0.24530  0.91440  Biso   1.000  C
  H60      1.0000 0.23920  0.29330  0.93310  Biso   1.000  H
  O25      1.0000 0.05490  0.17710  0.30390  Biso   1.000  O
  O26      1.0000 0.05050  0.09340  0.37130  Biso   1.000  O
  C97      1.0000 0.07020  0.14470  0.34380  Biso   1.000  C
  C98      1.0000 0.11600  0.17400  0.35640  Biso   1.000  C
  C99      1.0000 0.13780  0.23070  0.32610  Biso   1.000  C
  H61      1.0000 0.12390  0.25230  0.29680  Biso   1.000  H
  C100     1.0000 0.18100  0.25770  0.33810  Biso   1.000  C
  H62      1.0000 0.19570  0.29610  0.31730  Biso   1.000  H
  C101     1.0000 0.19970  0.22530  0.38110  Biso   1.000  C
  C102     1.0000 0.17920  0.16940  0.41170  Biso   1.000  C
  H63      1.0000 0.19340  0.14830  0.44100  Biso   1.000  H
  C103     1.0000 0.13610  0.14240  0.39950  Biso   1.000  C
  H64      1.0000 0.12170  0.10380  0.42060  Biso   1.000  H
  C104     1.0000 0.24530  0.25080  0.39660  Biso   1.000  C
  H65      1.0000 0.24910  0.25010  0.43250  Biso   1.000  H
  O27      1.0000 0.45210  0.31240  0.81250  Biso   1.000  O
  O28      1.0000 0.45070  0.38510  0.88570  Biso   1.000  O
  C105     1.0000 0.43430  0.33790  0.85290  Biso   1.000  C
  C106     1.0000 0.38800  0.30760  0.86210  Biso   1.000  C
  C107     1.0000 0.36920  0.25540  0.82640  Biso   1.000  C
  H66      1.0000 0.38480  0.23890  0.79710  Biso   1.000  H
  C108     1.0000 0.32570  0.22640  0.83430  Biso   1.000  C
  H67      1.0000 0.31270  0.19100  0.81010  Biso   1.000  H
  C109     1.0000 0.30330  0.25020  0.87690  Biso   1.000  C
  C110     1.0000 0.32110  0.30160  0.91270  Biso   1.000  C
  H68      1.0000 0.30520  0.31760  0.94190  Biso   1.000  H
  C111     1.0000 0.36460  0.33090  0.90490  Biso   1.000  C
  H69      1.0000 0.37730  0.36640  0.92930  Biso   1.000  H
  C112     1.0000 0.25760  0.21560  0.88140  Biso   1.000  C
  H70      1.0000 0.24850  0.17250  0.85970  Biso   1.000  H
  O29      1.0000 0.46070  0.44560  0.42950  Biso   1.000  O
  O30      1.0000 0.45390  0.36300  0.50010  Biso   1.000  O
  C113     1.0000 0.44250  0.39290  0.45760  Biso   1.000  C
  C114     1.0000 0.39950  0.36090  0.43590  Biso   1.000  C
  C115     1.0000 0.38450  0.39030  0.38940  Biso   1.000  C
  H71      1.0000 0.40040  0.42990  0.37090  Biso   1.000  H
  C116     1.0000 0.34400  0.35960  0.36960  Biso   1.000  C
  H72      1.0000 0.33340  0.37910  0.33800  Biso   1.000  H
  C117     1.0000 0.32130  0.30240  0.39680  Biso   1.000  C
  C118     1.0000 0.33660  0.27370  0.44250  Biso   1.000  C
  H73      1.0000 0.32050  0.23390  0.46060  Biso   1.000  H
  C119     1.0000 0.37680  0.30260  0.46380  Biso   1.000  C
  H74      1.0000 0.38720  0.28260  0.49540  Biso   1.000  H
  C120     1.0000 0.27880  0.27240  0.37360  Biso   1.000  C
  H75      1.0000 0.27780  0.26980  0.33750  Biso   1.000  H
  O31      1.0000 0.45440  0.41400  0.00100  Biso   1.000  O
  O32      1.0000 0.45370  0.48890  0.07550  Biso   1.000  O
  C121     1.0000 0.44000  0.43640  0.04400  Biso   1.000  C
  C122     1.0000 0.39860  0.39260  0.06180  Biso   1.000  C
  C123     1.0000 0.38100  0.33370  0.02960  Biso   1.000  C
  H76      1.0000 0.39420  0.32100  0.99790  Biso   1.000  H
  C124     1.0000 0.34200  0.29210  0.04540  Biso   1.000  C
  H77      1.0000 0.33010  0.25180  0.02350  Biso   1.000  H
  C125     1.0000 0.32160  0.30820  0.09070  Biso   1.000  C
  C126     1.0000 0.33890  0.36630  0.12250  Biso   1.000  C
  H78      1.0000 0.32530  0.37860  0.15400  Biso   1.000  H
  C127     1.0000 0.37790  0.40910  0.10780  Biso   1.000  C
  H79      1.0000 0.38960  0.44910  0.13010  Biso   1.000  H
  C128     1.0000 0.28080  0.25810  0.10100  Biso   1.000  C
  H80      1.0000 0.27910  0.20610  0.08490  Biso   1.000  H
  Tm7      1.0000 0.49989  0.40228  0.56366  Biso   1.000  Tm
  Tm8      1.0000 0.50043  0.29194  0.75111  Biso   1.000  Tm
  Tm9      1.0000 0.49970  0.43091  0.93751  Biso   1.000  Tm
  O33      1.0000 0.44720  0.30180  0.69870  Biso   1.000  O
  O34      1.0000 0.45740  0.35750  0.62320  Biso   1.000  O
  C129     1.0000 0.43340  0.32130  0.65500  Biso   1.000  C
  C130     1.0000 0.38650  0.29940  0.64180  Biso   1.000  C
  C131     1.0000 0.35900  0.25950  0.67560  Biso   1.000  C
  H81      1.0000 0.36930  0.24470  0.70840  Biso   1.000  H
  C132     1.0000 0.31510  0.24020  0.66170  Biso   1.000  C
  H82      1.0000 0.29690  0.21300  0.68540  Biso   1.000  H
  C133     1.0000 0.29950  0.26090  0.61440  Biso   1.000  C
  C134     1.0000 0.32580  0.30030  0.58030  Biso   1.000  C
  H83      1.0000 0.31520  0.31500  0.54760  Biso   1.000  H
  C135     1.0000 0.36980  0.31950  0.59420  Biso   1.000  C
  H84      1.0000 0.38760  0.34650  0.57010  Biso   1.000  H
  C136     1.0000 0.25270  0.23740  0.60360  Biso   1.000  C
  H85      1.0000 0.23980  0.26760  0.57670  Biso   1.000  H
  O35      1.0000 0.54900  0.27940  0.68370  Biso   1.000  O
  O36      1.0000 0.55550  0.37900  0.62170  Biso   1.000  O
  C137     1.0000 0.56840  0.32130  0.65020  Biso   1.000  C
  C138     1.0000 0.61600  0.29570  0.64420  Biso   1.000  C
  C139     1.0000 0.63330  0.23260  0.67360  Biso   1.000  C
  H86      1.0000 0.61580  0.20500  0.69780  Biso   1.000  H
  C140     1.0000 0.67800  0.20910  0.66770  Biso   1.000  C
  H87      1.0000 0.68980  0.16640  0.68780  Biso   1.000  H
  C141     1.0000 0.70300  0.24930  0.63240  Biso   1.000  C
  C142     1.0000 0.68710  0.31160  0.60270  Biso   1.000  C
  H88      1.0000 0.70490  0.33850  0.57850  Biso   1.000  H
  C143     1.0000 0.64240  0.33510  0.60900  Biso   1.000  C
  H89      1.0000 0.63100  0.37820  0.58890  Biso   1.000  H
  C144     1.0000 0.74990  0.22190  0.62800  Biso   1.000  C
  H90      1.0000 0.75700  0.17960  0.65140  Biso   1.000  H
  O37      1.0000 0.04080  0.02160  0.56330  Biso   1.000  O
  O38      1.0000 0.04550  0.12360  0.50540  Biso   1.000  O
  C145     1.0000 0.05950  0.08190  0.54270  Biso   1.000  C
  C146     1.0000 0.10350  0.10800  0.56450  Biso   1.000  C
  C147     1.0000 0.12140  0.06560  0.60550  Biso   1.000  C
  H91      1.0000 0.10700  0.02030  0.62050  Biso   1.000  H
  C148     1.0000 0.16290  0.09270  0.62440  Biso   1.000  C
  H92      1.0000 0.17560  0.06460  0.65230  Biso   1.000  H
  C149     1.0000 0.18430  0.15790  0.60310  Biso   1.000  C
  C150     1.0000 0.16660  0.19980  0.56280  Biso   1.000  C
  H93      1.0000 0.18140  0.24480  0.54800  Biso   1.000  H
  C151     1.0000 0.12520  0.17420  0.54310  Biso   1.000  C
  H94      1.0000 0.11280  0.20280  0.51530  Biso   1.000  H
  C152     1.0000 0.22800  0.18500  0.62410  Biso   1.000  C
  H95      1.0000 0.23740  0.16050  0.65500  Biso   1.000  H
  O39      1.0000 0.54630  0.40250  0.49250  Biso   1.000  O
  O40      1.0000 0.55560  0.47970  0.42000  Biso   1.000  O
  C153     1.0000 0.56570  0.42600  0.45280  Biso   1.000  C
  C154     1.0000 0.60870  0.38140  0.44300  Biso   1.000  C
  C155     1.0000 0.62480  0.32070  0.47500  Biso   1.000  C
  H96      1.0000 0.60900  0.30530  0.50440  Biso   1.000  H
  C156     1.0000 0.66540  0.28070  0.46430  Biso   1.000  C
  H97      1.0000 0.67550  0.23950  0.48690  Biso   1.000  H
  C157     1.0000 0.68980  0.30050  0.42230  Biso   1.000  C
  C158     1.0000 0.67470  0.36030  0.39010  Biso   1.000  C
  H98      1.0000 0.69090  0.37530  0.36080  Biso   1.000  H
  C159     1.0000 0.63400  0.40020  0.40080  Biso   1.000  C
  H99      1.0000 0.62420  0.44120  0.37790  Biso   1.000  H
  C160     1.0000 0.73230  0.25470  0.41440  Biso   1.000  C
  H100     1.0000 0.73920  0.20670  0.43310  Biso   1.000  H
  O41      1.0000 0.55490  0.32290  0.80390  Biso   1.000  O
  O42      1.0000 0.55050  0.40660  0.87130  Biso   1.000  O
  C161     1.0000 0.57020  0.35530  0.84380  Biso   1.000  C
  C162     1.0000 0.61600  0.32600  0.85640  Biso   1.000  C
  C163     1.0000 0.63780  0.26930  0.82610  Biso   1.000  C
  H101     1.0000 0.62390  0.24770  0.79680  Biso   1.000  H
  C164     1.0000 0.68100  0.24230  0.83810  Biso   1.000  C
  H102     1.0000 0.69570  0.20390  0.81730  Biso   1.000  H
  C165     1.0000 0.69970  0.27470  0.88110  Biso   1.000  C
  C166     1.0000 0.67920  0.33060  0.91170  Biso   1.000  C
  H103     1.0000 0.69340  0.35170  0.94100  Biso   1.000  H
  C167     1.0000 0.63610  0.35760  0.89950  Biso   1.000  C
  H104     1.0000 0.62170  0.39620  0.92060  Biso   1.000  H
  C168     1.0000 0.74530  0.24920  0.89660  Biso   1.000  C
  H105     1.0000 0.74910  0.24990  0.93250  Biso   1.000  H
  O43      1.0000 0.95210  0.18760  0.31250  Biso   1.000  O
  O44      1.0000 0.95070  0.11490  0.38570  Biso   1.000  O
  C169     1.0000 0.93430  0.16210  0.35290  Biso   1.000  C
  C170     1.0000 0.88800  0.19240  0.36210  Biso   1.000  C
  C171     1.0000 0.86920  0.24460  0.32640  Biso   1.000  C
  H106     1.0000 0.88480  0.26110  0.29710  Biso   1.000  H
  C172     1.0000 0.82570  0.27360  0.33430  Biso   1.000  C
  H107     1.0000 0.81270  0.30900  0.31010  Biso   1.000  H
  C173     1.0000 0.80330  0.24980  0.37690  Biso   1.000  C
  C174     1.0000 0.82110  0.19840  0.41270  Biso   1.000  C
  H108     1.0000 0.80520  0.18240  0.44190  Biso   1.000  H
  C175     1.0000 0.86460  0.16910  0.40490  Biso   1.000  C
  H109     1.0000 0.87730  0.13360  0.42930  Biso   1.000  H
  C176     1.0000 0.75760  0.28440  0.38140  Biso   1.000  C
  H110     1.0000 0.74850  0.32750  0.35970  Biso   1.000  H
  O45      1.0000 0.96070  0.05440  0.92950  Biso   1.000  O
  O46      1.0000 0.95390  0.13700  0.00010  Biso   1.000  O
  C177     1.0000 0.94250  0.10710  0.95760  Biso   1.000  C
  C178     1.0000 0.89950  0.13910  0.93590  Biso   1.000  C
  C179     1.0000 0.88450  0.10970  0.88940  Biso   1.000  C
  H111     1.0000 0.90040  0.07010  0.87090  Biso   1.000  H
  C180     1.0000 0.84400  0.14040  0.86960  Biso   1.000  C
  H112     1.0000 0.83340  0.12090  0.83800  Biso   1.000  H
  C181     1.0000 0.82130  0.19760  0.89680  Biso   1.000  C
  C182     1.0000 0.83660  0.22630  0.94250  Biso   1.000  C
  H113     1.0000 0.82050  0.26610  0.96060  Biso   1.000  H
  C183     1.0000 0.87680  0.19740  0.96380  Biso   1.000  C
  H114     1.0000 0.88720  0.21740  0.99540  Biso   1.000  H
  C184     1.0000 0.77880  0.22760  0.87360  Biso   1.000  C
  H115     1.0000 0.77780  0.23020  0.83750  Biso   1.000  H
  O47      1.0000 0.95440  0.08600  0.50100  Biso   1.000  O
  O48      1.0000 0.95370  0.01110  0.57550  Biso   1.000  O
  C185     1.0000 0.94000  0.06360  0.54400  Biso   1.000  C
  C186     1.0000 0.89860  0.10740  0.56180  Biso   1.000  C
  C187     1.0000 0.88100  0.16630  0.52960  Biso   1.000  C
  H116     1.0000 0.89420  0.17900  0.49790  Biso   1.000  H
  C188     1.0000 0.84200  0.20790  0.54540  Biso   1.000  C
  H117     1.0000 0.83010  0.24820  0.52350  Biso   1.000  H
  C189     1.0000 0.82160  0.19180  0.59070  Biso   1.000  C
  C190     1.0000 0.83890  0.13370  0.62250  Biso   1.000  C
  H118     1.0000 0.82530  0.12140  0.65400  Biso   1.000  H
  C191     1.0000 0.87790  0.09090  0.60780  Biso   1.000  C
  H119     1.0000 0.88960  0.05090  0.63010  Biso   1.000  H
  C192     1.0000 0.78080  0.24190  0.60100  Biso   1.000  C
  H120     1.0000 0.77910  0.29390  0.58490  Biso   1.000  H
  Tm10     1.0000 0.99989  0.90228  0.56366  Biso   1.000  Tm
  Tm11     1.0000 0.00043  0.79194  0.75111  Biso   1.000  Tm
  Tm12     1.0000 0.99970  0.93091  0.93751  Biso   1.000  Tm
  O49      1.0000 0.94720  0.80180  0.69870  Biso   1.000  O
  O50      1.0000 0.95740  0.85750  0.62320  Biso   1.000  O
  C193     1.0000 0.93340  0.82130  0.65500  Biso   1.000  C
  C194     1.0000 0.88650  0.79940  0.64180  Biso   1.000  C
  C195     1.0000 0.85900  0.75950  0.67560  Biso   1.000  C
  H121     1.0000 0.86930  0.74470  0.70840  Biso   1.000  H
  C196     1.0000 0.81510  0.74020  0.66170  Biso   1.000  C
  H122     1.0000 0.79690  0.71300  0.68540  Biso   1.000  H
  C197     1.0000 0.79950  0.76090  0.61440  Biso   1.000  C
  C198     1.0000 0.82580  0.80030  0.58030  Biso   1.000  C
  H123     1.0000 0.81520  0.81500  0.54760  Biso   1.000  H
  C199     1.0000 0.86980  0.81950  0.59420  Biso   1.000  C
  H124     1.0000 0.88760  0.84650  0.57010  Biso   1.000  H
  C200     1.0000 0.75270  0.73740  0.60360  Biso   1.000  C
  H125     1.0000 0.73980  0.76760  0.57670  Biso   1.000  H
  O51      1.0000 0.04900  0.77940  0.68370  Biso   1.000  O
  O52      1.0000 0.05550  0.87900  0.62170  Biso   1.000  O
  C201     1.0000 0.06840  0.82130  0.65020  Biso   1.000  C
  C202     1.0000 0.11600  0.79570  0.64420  Biso   1.000  C
  C203     1.0000 0.13330  0.73260  0.67360  Biso   1.000  C
  H126     1.0000 0.11580  0.70500  0.69780  Biso   1.000  H
  C204     1.0000 0.17800  0.70910  0.66770  Biso   1.000  C
  H127     1.0000 0.18980  0.66640  0.68780  Biso   1.000  H
  C205     1.0000 0.20300  0.74930  0.63240  Biso   1.000  C
  C206     1.0000 0.18710  0.81160  0.60270  Biso   1.000  C
  H128     1.0000 0.20490  0.83850  0.57850  Biso   1.000  H
  C207     1.0000 0.14240  0.83510  0.60900  Biso   1.000  C
  H129     1.0000 0.13100  0.87820  0.58890  Biso   1.000  H
  C208     1.0000 0.24990  0.72190  0.62800  Biso   1.000  C
  H130     1.0000 0.25700  0.67960  0.65140  Biso   1.000  H
  O53      1.0000 0.54080  0.52160  0.56330  Biso   1.000  O
  O54      1.0000 0.54550  0.62360  0.50540  Biso   1.000  O
  C209     1.0000 0.55950  0.58190  0.54270  Biso   1.000  C
  C210     1.0000 0.60350  0.60800  0.56450  Biso   1.000  C
  C211     1.0000 0.62140  0.56560  0.60550  Biso   1.000  C
  H131     1.0000 0.60700  0.52030  0.62050  Biso   1.000  H
  C212     1.0000 0.66290  0.59270  0.62440  Biso   1.000  C
  H132     1.0000 0.67560  0.56460  0.65230  Biso   1.000  H
  C213     1.0000 0.68430  0.65790  0.60310  Biso   1.000  C
  C214     1.0000 0.66660  0.69980  0.56280  Biso   1.000  C
  H133     1.0000 0.68140  0.74480  0.54800  Biso   1.000  H
  C215     1.0000 0.62520  0.67420  0.54310  Biso   1.000  C
  H134     1.0000 0.61280  0.70280  0.51530  Biso   1.000  H
  C216     1.0000 0.72800  0.68500  0.62410  Biso   1.000  C
  H135     1.0000 0.73740  0.66050  0.65500  Biso   1.000  H
  O55      1.0000 0.04630  0.90250  0.49250  Biso   1.000  O
  O56      1.0000 0.05560  0.97970  0.42000  Biso   1.000  O
  C217     1.0000 0.06570  0.92600  0.45280  Biso   1.000  C
  C218     1.0000 0.10870  0.88140  0.44300  Biso   1.000  C
  C219     1.0000 0.12480  0.82070  0.47500  Biso   1.000  C
  H136     1.0000 0.10900  0.80530  0.50440  Biso   1.000  H
  C220     1.0000 0.16540  0.78070  0.46430  Biso   1.000  C
  H137     1.0000 0.17550  0.73950  0.48690  Biso   1.000  H
  C221     1.0000 0.18980  0.80050  0.42230  Biso   1.000  C
  C222     1.0000 0.17470  0.86030  0.39010  Biso   1.000  C
  H138     1.0000 0.19090  0.87530  0.36080  Biso   1.000  H
  C223     1.0000 0.13400  0.90020  0.40080  Biso   1.000  C
  H139     1.0000 0.12420  0.94120  0.37790  Biso   1.000  H
  C224     1.0000 0.23230  0.75470  0.41440  Biso   1.000  C
  H140     1.0000 0.23920  0.70670  0.43310  Biso   1.000  H
  O57      1.0000 0.05490  0.82290  0.80390  Biso   1.000  O
  O58      1.0000 0.05050  0.90660  0.87130  Biso   1.000  O
  C225     1.0000 0.07020  0.85530  0.84380  Biso   1.000  C
  C226     1.0000 0.11600  0.82600  0.85640  Biso   1.000  C
  C227     1.0000 0.13780  0.76930  0.82610  Biso   1.000  C
  H141     1.0000 0.12390  0.74770  0.79680  Biso   1.000  H
  C228     1.0000 0.18100  0.74230  0.83810  Biso   1.000  C
  H142     1.0000 0.19570  0.70390  0.81730  Biso   1.000  H
  C229     1.0000 0.19970  0.77470  0.88110  Biso   1.000  C
  C230     1.0000 0.17920  0.83060  0.91170  Biso   1.000  C
  H143     1.0000 0.19340  0.85170  0.94100  Biso   1.000  H
  C231     1.0000 0.13610  0.85760  0.89950  Biso   1.000  C
  H144     1.0000 0.12170  0.89620  0.92060  Biso   1.000  H
  C232     1.0000 0.24530  0.74920  0.89660  Biso   1.000  C
  H145     1.0000 0.24910  0.74990  0.93250  Biso   1.000  H
  O59      1.0000 0.45210  0.68760  0.31250  Biso   1.000  O
  O60      1.0000 0.45070  0.61490  0.38570  Biso   1.000  O
  C233     1.0000 0.43430  0.66210  0.35290  Biso   1.000  C
  C234     1.0000 0.38800  0.69240  0.36210  Biso   1.000  C
  C235     1.0000 0.36920  0.74460  0.32640  Biso   1.000  C
  H146     1.0000 0.38480  0.76110  0.29710  Biso   1.000  H
  C236     1.0000 0.32570  0.77360  0.33430  Biso   1.000  C
  H147     1.0000 0.31270  0.80900  0.31010  Biso   1.000  H
  C237     1.0000 0.30330  0.74980  0.37690  Biso   1.000  C
  C238     1.0000 0.32110  0.69840  0.41270  Biso   1.000  C
  H148     1.0000 0.30520  0.68240  0.44190  Biso   1.000  H
  C239     1.0000 0.36460  0.66910  0.40490  Biso   1.000  C
  H149     1.0000 0.37730  0.63360  0.42930  Biso   1.000  H
  C240     1.0000 0.25760  0.78440  0.38140  Biso   1.000  C
  H150     1.0000 0.24850  0.82750  0.35970  Biso   1.000  H
  O61      1.0000 0.46070  0.55440  0.92950  Biso   1.000  O
  O62      1.0000 0.45390  0.63700  0.00010  Biso   1.000  O
  C241     1.0000 0.44250  0.60710  0.95760  Biso   1.000  C
  C242     1.0000 0.39950  0.63910  0.93590  Biso   1.000  C
  C243     1.0000 0.38450  0.60970  0.88940  Biso   1.000  C
  H151     1.0000 0.40040  0.57010  0.87090  Biso   1.000  H
  C244     1.0000 0.34400  0.64040  0.86960  Biso   1.000  C
  H152     1.0000 0.33340  0.62090  0.83800  Biso   1.000  H
  C245     1.0000 0.32130  0.69760  0.89680  Biso   1.000  C
  C246     1.0000 0.33660  0.72630  0.94250  Biso   1.000  C
  H153     1.0000 0.32050  0.76610  0.96060  Biso   1.000  H
  C247     1.0000 0.37680  0.69740  0.96380  Biso   1.000  C
  H154     1.0000 0.38720  0.71740  0.99540  Biso   1.000  H
  C248     1.0000 0.27880  0.72760  0.87360  Biso   1.000  C
  H155     1.0000 0.27780  0.73020  0.83750  Biso   1.000  H
  O63      1.0000 0.45440  0.58600  0.50100  Biso   1.000  O
  O64      1.0000 0.45370  0.51110  0.57550  Biso   1.000  O
  C249     1.0000 0.44000  0.56360  0.54400  Biso   1.000  C
  C250     1.0000 0.39860  0.60740  0.56180  Biso   1.000  C
  C251     1.0000 0.38100  0.66630  0.52960  Biso   1.000  C
  H156     1.0000 0.39420  0.67900  0.49790  Biso   1.000  H
  C252     1.0000 0.34200  0.70790  0.54540  Biso   1.000  C
  H157     1.0000 0.33010  0.74820  0.52350  Biso   1.000  H
  C253     1.0000 0.32160  0.69180  0.59070  Biso   1.000  C
  C254     1.0000 0.33890  0.63370  0.62250  Biso   1.000  C
  H158     1.0000 0.32530  0.62140  0.65400  Biso   1.000  H
  C255     1.0000 0.37790  0.59090  0.60780  Biso   1.000  C
  H159     1.0000 0.38960  0.55090  0.63010  Biso   1.000  H
  C256     1.0000 0.28080  0.74190  0.60100  Biso   1.000  C
  H160     1.0000 0.27910  0.79390  0.58490  Biso   1.000  H
