data_image0
_cell_length_a       10.342
_cell_length_b       15.079
_cell_length_c       25.117
_cell_angle_alpha    90
_cell_angle_beta     90
_cell_angle_gamma    90

_symmetry_space_group_name_H-M    "P 1"
_symmetry_int_tables_number       1

loop_
  _symmetry_equiv_pos_as_xyz
  'x, y, z'

loop_
  _atom_site_label
  _atom_site_occupancy
  _atom_site_fract_x
  _atom_site_fract_y
  _atom_site_fract_z
  _atom_site_thermal_displace_type
  _atom_site_B_iso_or_equiv
  _atom_site_type_symbol
  Cd1      1.0000 0.91212  0.49974  0.53666  Biso   1.000  Cd
  Cd2      1.0000 0.67163  0.50591  0.45596  Biso   1.000  Cd
  O1       1.0000 0.13300  0.09720  0.48220  Biso   1.000  O
  O2       1.0000 0.28100  0.08800  0.41720  Biso   1.000  O
  O3       1.0000 0.77300  0.40140  0.40800  Biso   1.000  O
  C1       1.0000 0.17800  0.11700  0.43710  Biso   1.000  C
  O4       1.0000 0.91700  0.39400  0.47410  Biso   1.000  O
  N1       1.0000 0.28700  0.50700  0.38580  Biso   1.000  N
  N2       1.0000 0.93800  0.26160  0.23910  Biso   1.000  N
  C2       1.0000 0.02500  0.19500  0.10020  Biso   1.000  C
  C3       1.0000 0.86000  0.30600  0.09930  Biso   1.000  C
  C4       1.0000 0.87100  0.37000  0.42960  Biso   1.000  C
  C5       1.0000 0.94600  0.30000  0.40120  Biso   1.000  C
  N3       1.0000 0.48000  0.52650  0.41930  Biso   1.000  N
  C6       1.0000 0.10200  0.18100  0.40480  Biso   1.000  C
  C7       1.0000 0.02100  0.23400  0.32090  Biso   1.000  C
  C8       1.0000 0.85800  0.30700  0.15330  Biso   1.000  C
  H1       1.0000 0.79890  0.34270  0.17110  Biso   1.000  H
  N4       1.0000 0.02800  0.22480  0.26340  Biso   1.000  N
  C9       1.0000 0.94600  0.25500  0.18270  Biso   1.000  C
  C10      1.0000 0.03200  0.20000  0.15520  Biso   1.000  C
  H2       1.0000 0.09340  0.16660  0.17370  Biso   1.000  H
  C11      1.0000 0.16300  0.46700  0.37060  Biso   1.000  C
  H3       1.0000 0.09310  0.50050  0.38630  Biso   1.000  H
  H4       1.0000 0.15900  0.40680  0.38450  Biso   1.000  H
  C12      1.0000 0.94300  0.24800  0.07250  Biso   1.000  C
  H5       1.0000 0.94180  0.24590  0.03550  Biso   1.000  H
  C13      1.0000 0.94000  0.29400  0.34580  Biso   1.000  C
  H6       1.0000 0.88360  0.32870  0.32620  Biso   1.000  H
  C14      1.0000 0.14600  0.46400  0.31000  Biso   1.000  C
  C15      1.0000 0.03200  0.48900  0.28730  Biso   1.000  C
  H7       1.0000 0.96510  0.50940  0.30860  Biso   1.000  H
  C16      1.0000 0.24700  0.43300  0.27760  Biso   1.000  C
  H8       1.0000 0.32360  0.41400  0.29310  Biso   1.000  H
  C17      1.0000 0.10300  0.17900  0.34870  Biso   1.000  C
  H9       1.0000 0.15890  0.14150  0.33050  Biso   1.000  H
  C18      1.0000 0.38400  0.46900  0.41340  Biso   1.000  C
  C19      1.0000 0.11500  0.45900  0.19930  Biso   1.000  C
  C20      1.0000 0.02300  0.24300  0.43020  Biso   1.000  C
  H10      1.0000 0.02200  0.24580  0.46710  Biso   1.000  H
  C21      1.0000 0.32500  0.59300  0.37260  Biso   1.000  C
  H11      1.0000 0.27750  0.63510  0.35350  Biso   1.000  H
  C22      1.0000 0.44300  0.60300  0.39370  Biso   1.000  C
  H12      1.0000 0.49350  0.65390  0.39130  Biso   1.000  H
  C23      1.0000 0.01600  0.48500  0.23230  Biso   1.000  C
  H13      1.0000 0.93630  0.49930  0.21760  Biso   1.000  H
  C24      1.0000 0.10200  0.46100  0.14020  Biso   1.000  C
  H14      1.0000 0.09280  0.40040  0.12730  Biso   1.000  H
  H15      1.0000 0.02460  0.49320  0.13070  Biso   1.000  H
  C25      1.0000 0.38300  0.37400  0.43220  Biso   1.000  C
  H16      1.0000 0.34970  0.33640  0.40390  Biso   1.000  H
  H17      1.0000 0.47030  0.35530  0.44000  Biso   1.000  H
  C26      1.0000 0.23200  0.42900  0.22260  Biso   1.000  C
  H18      1.0000 0.29860  0.40740  0.20130  Biso   1.000  H
  C27      1.0000 0.30100  0.36200  0.48060  Biso   1.000  C
  H19      1.0000 0.32650  0.40460  0.50720  Biso   1.000  H
  H20      1.0000 0.31190  0.30340  0.49430  Biso   1.000  H
  H21      1.0000 0.21180  0.37160  0.47150  Biso   1.000  H
  O5       1.0000 0.05400  0.09740  0.02870  Biso   1.000  O
  C28      1.0000 0.10500  0.12600  0.07020  Biso   1.000  C
  O6       1.0000 0.21100  0.10480  0.09020  Biso   1.000  O
  C29      1.0000 0.77700  0.36900  0.06740  Biso   1.000  C
  O7       1.0000 0.82800  0.39670  0.02460  Biso   1.000  O
  O8       1.0000 0.66700  0.38680  0.08690  Biso   1.000  O
  N5       1.0000 0.21400  0.50200  0.11420  Biso   1.000  N
  C30      1.0000 0.30800  0.46300  0.08600  Biso   1.000  C
  C31      1.0000 0.22100  0.35500  0.01920  Biso   1.000  C
  H22      1.0000 0.13450  0.37340  0.02740  Biso   1.000  H
  H23      1.0000 0.22110  0.29350  0.00930  Biso   1.000  H
  H24      1.0000 0.25390  0.38990  0.99020  Biso   1.000  H
  C32      1.0000 0.30700  0.36800  0.06790  Biso   1.000  C
  H25      1.0000 0.27560  0.33080  0.09660  Biso   1.000  H
  H26      1.0000 0.39420  0.34980  0.05940  Biso   1.000  H
  C33      1.0000 0.24500  0.59000  0.12090  Biso   1.000  C
  H27      1.0000 0.19770  0.63320  0.13910  Biso   1.000  H
  N6       1.0000 0.39900  0.52280  0.07380  Biso   1.000  N
  C34      1.0000 0.36000  0.60200  0.09540  Biso   1.000  C
  H28      1.0000 0.40470  0.65520  0.09300  Biso   1.000  H
  Cd3      1.0000 0.58788  0.50026  0.03666  Biso   1.000  Cd
  Cd4      1.0000 0.82837  0.49409  0.95596  Biso   1.000  Cd
  O9       1.0000 0.36700  0.90280  0.98220  Biso   1.000  O
  O10      1.0000 0.21900  0.91200  0.91720  Biso   1.000  O
  O11      1.0000 0.72700  0.59860  0.90800  Biso   1.000  O
  C35      1.0000 0.32200  0.88300  0.93710  Biso   1.000  C
  O12      1.0000 0.58300  0.60600  0.97410  Biso   1.000  O
  N7       1.0000 0.21300  0.49300  0.88580  Biso   1.000  N
  N8       1.0000 0.56200  0.73840  0.73910  Biso   1.000  N
  C36      1.0000 0.47500  0.80500  0.60020  Biso   1.000  C
  C37      1.0000 0.64000  0.69400  0.59930  Biso   1.000  C
  C38      1.0000 0.62900  0.63000  0.92960  Biso   1.000  C
  C39      1.0000 0.55400  0.70000  0.90120  Biso   1.000  C
  N9       1.0000 0.02000  0.47350  0.91930  Biso   1.000  N
  C40      1.0000 0.39800  0.81900  0.90480  Biso   1.000  C
  C41      1.0000 0.47900  0.76600  0.82090  Biso   1.000  C
  C42      1.0000 0.64200  0.69300  0.65330  Biso   1.000  C
  H29      1.0000 0.70110  0.65730  0.67110  Biso   1.000  H
  N10      1.0000 0.47200  0.77520  0.76340  Biso   1.000  N
  C43      1.0000 0.55400  0.74500  0.68270  Biso   1.000  C
  C44      1.0000 0.46800  0.80000  0.65520  Biso   1.000  C
  H30      1.0000 0.40660  0.83340  0.67370  Biso   1.000  H
  C45      1.0000 0.33700  0.53300  0.87060  Biso   1.000  C
  H31      1.0000 0.40690  0.49950  0.88630  Biso   1.000  H
  H32      1.0000 0.34100  0.59320  0.88450  Biso   1.000  H
  C46      1.0000 0.55700  0.75200  0.57250  Biso   1.000  C
  H33      1.0000 0.55820  0.75410  0.53550  Biso   1.000  H
  C47      1.0000 0.56000  0.70600  0.84580  Biso   1.000  C
  H34      1.0000 0.61640  0.67130  0.82620  Biso   1.000  H
  C48      1.0000 0.35400  0.53600  0.81000  Biso   1.000  C
  C49      1.0000 0.46800  0.51100  0.78730  Biso   1.000  C
  H35      1.0000 0.53490  0.49060  0.80860  Biso   1.000  H
  C50      1.0000 0.25300  0.56700  0.77760  Biso   1.000  C
  H36      1.0000 0.17640  0.58600  0.79310  Biso   1.000  H
  C51      1.0000 0.39700  0.82100  0.84870  Biso   1.000  C
  H37      1.0000 0.34110  0.85850  0.83050  Biso   1.000  H
  C52      1.0000 0.11600  0.53100  0.91340  Biso   1.000  C
  C53      1.0000 0.38500  0.54100  0.69930  Biso   1.000  C
  C54      1.0000 0.47700  0.75700  0.93020  Biso   1.000  C
  H38      1.0000 0.47800  0.75420  0.96710  Biso   1.000  H
  C55      1.0000 0.17500  0.40700  0.87260  Biso   1.000  C
  H39      1.0000 0.22250  0.36490  0.85350  Biso   1.000  H
  C56      1.0000 0.05700  0.39700  0.89370  Biso   1.000  C
  H40      1.0000 0.00650  0.34610  0.89130  Biso   1.000  H
  C57      1.0000 0.48400  0.51500  0.73230  Biso   1.000  C
  H41      1.0000 0.56370  0.50070  0.71760  Biso   1.000  H
  C58      1.0000 0.39800  0.53900  0.64020  Biso   1.000  C
  H42      1.0000 0.40720  0.59960  0.62730  Biso   1.000  H
  H43      1.0000 0.47540  0.50680  0.63070  Biso   1.000  H
  C59      1.0000 0.11700  0.62600  0.93220  Biso   1.000  C
  H44      1.0000 0.15030  0.66360  0.90390  Biso   1.000  H
  H45      1.0000 0.02970  0.64470  0.94000  Biso   1.000  H
  C60      1.0000 0.26800  0.57100  0.72260  Biso   1.000  C
  H46      1.0000 0.20140  0.59260  0.70130  Biso   1.000  H
  C61      1.0000 0.19900  0.63800  0.98060  Biso   1.000  C
  H47      1.0000 0.17350  0.59540  0.00720  Biso   1.000  H
  H48      1.0000 0.18810  0.69660  0.99430  Biso   1.000  H
  H49      1.0000 0.28820  0.62840  0.97150  Biso   1.000  H
  O13      1.0000 0.44600  0.90260  0.52870  Biso   1.000  O
  C62      1.0000 0.39500  0.87400  0.57020  Biso   1.000  C
  O14      1.0000 0.28900  0.89520  0.59020  Biso   1.000  O
  C63      1.0000 0.72300  0.63100  0.56740  Biso   1.000  C
  O15      1.0000 0.67200  0.60330  0.52460  Biso   1.000  O
  O16      1.0000 0.83300  0.61320  0.58690  Biso   1.000  O
  N11      1.0000 0.28600  0.49800  0.61420  Biso   1.000  N
  C64      1.0000 0.19200  0.53700  0.58600  Biso   1.000  C
  C65      1.0000 0.27900  0.64500  0.51920  Biso   1.000  C
  H50      1.0000 0.36550  0.62660  0.52740  Biso   1.000  H
  H51      1.0000 0.27890  0.70650  0.50930  Biso   1.000  H
  H52      1.0000 0.24610  0.61010  0.49020  Biso   1.000  H
  C66      1.0000 0.19300  0.63200  0.56790  Biso   1.000  C
  H53      1.0000 0.22440  0.66920  0.59660  Biso   1.000  H
  H54      1.0000 0.10580  0.65020  0.55940  Biso   1.000  H
  C67      1.0000 0.25500  0.41000  0.62090  Biso   1.000  C
  H55      1.0000 0.30230  0.36680  0.63910  Biso   1.000  H
  N12      1.0000 0.10100  0.47720  0.57380  Biso   1.000  N
  C68      1.0000 0.14000  0.39800  0.59540  Biso   1.000  C
  H56      1.0000 0.09530  0.34480  0.59300  Biso   1.000  H
  Cd5      1.0000 0.08788  0.99974  0.96334  Biso   1.000  Cd
  Cd6      1.0000 0.32837  0.00591  0.04404  Biso   1.000  Cd
  O17      1.0000 0.86700  0.59720  0.01780  Biso   1.000  O
  O18      1.0000 0.71900  0.58800  0.08280  Biso   1.000  O
  O19      1.0000 0.22700  0.90140  0.09200  Biso   1.000  O
  C69      1.0000 0.82200  0.61700  0.06290  Biso   1.000  C
  O20      1.0000 0.08300  0.89400  0.02590  Biso   1.000  O
  N13      1.0000 0.71300  0.00700  0.11420  Biso   1.000  N
  N14      1.0000 0.06200  0.76160  0.26090  Biso   1.000  N
  C70      1.0000 0.97500  0.69500  0.39980  Biso   1.000  C
  C71      1.0000 0.14000  0.80600  0.40070  Biso   1.000  C
  C72      1.0000 0.12900  0.87000  0.07040  Biso   1.000  C
  C73      1.0000 0.05400  0.80000  0.09880  Biso   1.000  C
  N15      1.0000 0.52000  0.02650  0.08070  Biso   1.000  N
  C74      1.0000 0.89800  0.68100  0.09520  Biso   1.000  C
  C75      1.0000 0.97900  0.73400  0.17910  Biso   1.000  C
  C76      1.0000 0.14200  0.80700  0.34670  Biso   1.000  C
  H57      1.0000 0.20110  0.84270  0.32890  Biso   1.000  H
  N16      1.0000 0.97200  0.72480  0.23660  Biso   1.000  N
  C77      1.0000 0.05400  0.75500  0.31730  Biso   1.000  C
  C78      1.0000 0.96800  0.70000  0.34480  Biso   1.000  C
  H58      1.0000 0.90660  0.66660  0.32630  Biso   1.000  H
  C79      1.0000 0.83700  0.96700  0.12940  Biso   1.000  C
  H59      1.0000 0.90690  0.00050  0.11370  Biso   1.000  H
  H60      1.0000 0.84100  0.90680  0.11550  Biso   1.000  H
  C80      1.0000 0.05700  0.74800  0.42750  Biso   1.000  C
  H61      1.0000 0.05820  0.74590  0.46450  Biso   1.000  H
  C81      1.0000 0.06000  0.79400  0.15420  Biso   1.000  C
  H62      1.0000 0.11640  0.82870  0.17380  Biso   1.000  H
  C82      1.0000 0.85400  0.96400  0.19000  Biso   1.000  C
  C83      1.0000 0.96800  0.98900  0.21270  Biso   1.000  C
  H63      1.0000 0.03490  0.00940  0.19140  Biso   1.000  H
  C84      1.0000 0.75300  0.93300  0.22240  Biso   1.000  C
  H64      1.0000 0.67640  0.91400  0.20690  Biso   1.000  H
  C85      1.0000 0.89700  0.67900  0.15130  Biso   1.000  C
  H65      1.0000 0.84110  0.64150  0.16950  Biso   1.000  H
  C86      1.0000 0.61600  0.96900  0.08660  Biso   1.000  C
  C87      1.0000 0.88500  0.95900  0.30070  Biso   1.000  C
  C88      1.0000 0.97700  0.74300  0.06980  Biso   1.000  C
  H66      1.0000 0.97800  0.74580  0.03290  Biso   1.000  H
  C89      1.0000 0.67500  0.09300  0.12740  Biso   1.000  C
  H67      1.0000 0.72250  0.13510  0.14650  Biso   1.000  H
  C90      1.0000 0.55700  0.10300  0.10630  Biso   1.000  C
  H68      1.0000 0.50650  0.15390  0.10870  Biso   1.000  H
  C91      1.0000 0.98400  0.98500  0.26770  Biso   1.000  C
  H69      1.0000 0.06370  0.99930  0.28240  Biso   1.000  H
  C92      1.0000 0.89800  0.96100  0.35980  Biso   1.000  C
  H70      1.0000 0.90720  0.90040  0.37270  Biso   1.000  H
  H71      1.0000 0.97540  0.99320  0.36930  Biso   1.000  H
  C93      1.0000 0.61700  0.87400  0.06780  Biso   1.000  C
  H72      1.0000 0.65030  0.83640  0.09610  Biso   1.000  H
  H73      1.0000 0.52970  0.85530  0.06000  Biso   1.000  H
  C94      1.0000 0.76800  0.92900  0.27740  Biso   1.000  C
  H74      1.0000 0.70140  0.90740  0.29870  Biso   1.000  H
  C95      1.0000 0.69900  0.86200  0.01940  Biso   1.000  C
  H75      1.0000 0.67350  0.90460  0.99280  Biso   1.000  H
  H76      1.0000 0.68810  0.80340  0.00570  Biso   1.000  H
  H77      1.0000 0.78820  0.87160  0.02850  Biso   1.000  H
  O21      1.0000 0.94600  0.59740  0.47130  Biso   1.000  O
  C96      1.0000 0.89500  0.62600  0.42980  Biso   1.000  C
  O22      1.0000 0.78900  0.60480  0.40980  Biso   1.000  O
  C97      1.0000 0.22300  0.86900  0.43260  Biso   1.000  C
  O23      1.0000 0.17200  0.89670  0.47540  Biso   1.000  O
  O24      1.0000 0.33300  0.88680  0.41310  Biso   1.000  O
  N17      1.0000 0.78600  0.00200  0.38580  Biso   1.000  N
  C98      1.0000 0.69200  0.96300  0.41400  Biso   1.000  C
  C99      1.0000 0.77900  0.85500  0.48080  Biso   1.000  C
  H78      1.0000 0.86550  0.87340  0.47260  Biso   1.000  H
  H79      1.0000 0.77890  0.79350  0.49070  Biso   1.000  H
  H80      1.0000 0.74610  0.88990  0.50980  Biso   1.000  H
  C100     1.0000 0.69300  0.86800  0.43210  Biso   1.000  C
  H81      1.0000 0.72440  0.83080  0.40340  Biso   1.000  H
  H82      1.0000 0.60580  0.84980  0.44060  Biso   1.000  H
  C101     1.0000 0.75500  0.09000  0.37910  Biso   1.000  C
  H83      1.0000 0.80230  0.13320  0.36090  Biso   1.000  H
  N18      1.0000 0.60100  0.02280  0.42620  Biso   1.000  N
  C102     1.0000 0.64000  0.10200  0.40460  Biso   1.000  C
  H84      1.0000 0.59530  0.15520  0.40700  Biso   1.000  H
  Cd7      1.0000 0.41212  0.00026  0.46334  Biso   1.000  Cd
  Cd8      1.0000 0.17163  0.99409  0.54404  Biso   1.000  Cd
  O25      1.0000 0.63300  0.40280  0.51780  Biso   1.000  O
  O26      1.0000 0.78100  0.41200  0.58280  Biso   1.000  O
  O27      1.0000 0.27300  0.09860  0.59200  Biso   1.000  O
  C103     1.0000 0.67800  0.38300  0.56290  Biso   1.000  C
  O28      1.0000 0.41700  0.10600  0.52590  Biso   1.000  O
  N19      1.0000 0.78700  0.99300  0.61420  Biso   1.000  N
  N20      1.0000 0.43800  0.23840  0.76090  Biso   1.000  N
  C104     1.0000 0.52500  0.30500  0.89980  Biso   1.000  C
  C105     1.0000 0.36000  0.19400  0.90070  Biso   1.000  C
  C106     1.0000 0.37100  0.13000  0.57040  Biso   1.000  C
  C107     1.0000 0.44600  0.20000  0.59880  Biso   1.000  C
  N21      1.0000 0.98000  0.97350  0.58070  Biso   1.000  N
  C108     1.0000 0.60200  0.31900  0.59520  Biso   1.000  C
  C109     1.0000 0.52100  0.26600  0.67910  Biso   1.000  C
  C110     1.0000 0.35800  0.19300  0.84670  Biso   1.000  C
  H85      1.0000 0.29890  0.15730  0.82890  Biso   1.000  H
  N22      1.0000 0.52800  0.27520  0.73660  Biso   1.000  N
  C111     1.0000 0.44600  0.24500  0.81730  Biso   1.000  C
  C112     1.0000 0.53200  0.30000  0.84480  Biso   1.000  C
  H86      1.0000 0.59340  0.33340  0.82630  Biso   1.000  H
  C113     1.0000 0.66300  0.03300  0.62940  Biso   1.000  C
  H87      1.0000 0.59310  0.99950  0.61370  Biso   1.000  H
  H88      1.0000 0.65900  0.09320  0.61550  Biso   1.000  H
  C114     1.0000 0.44300  0.25200  0.92750  Biso   1.000  C
  H89      1.0000 0.44180  0.25410  0.96450  Biso   1.000  H
  C115     1.0000 0.44000  0.20600  0.65420  Biso   1.000  C
  H90      1.0000 0.38360  0.17130  0.67380  Biso   1.000  H
  C116     1.0000 0.64600  0.03600  0.69000  Biso   1.000  C
  C117     1.0000 0.53200  0.01100  0.71270  Biso   1.000  C
  H91      1.0000 0.46510  0.99060  0.69140  Biso   1.000  H
  C118     1.0000 0.74700  0.06700  0.72240  Biso   1.000  C
  H92      1.0000 0.82360  0.08600  0.70690  Biso   1.000  H
  C119     1.0000 0.60300  0.32100  0.65130  Biso   1.000  C
  H93      1.0000 0.65890  0.35850  0.66950  Biso   1.000  H
  C120     1.0000 0.88400  0.03100  0.58660  Biso   1.000  C
  C121     1.0000 0.61500  0.04100  0.80070  Biso   1.000  C
  C122     1.0000 0.52300  0.25700  0.56980  Biso   1.000  C
  H94      1.0000 0.52200  0.25420  0.53290  Biso   1.000  H
  C123     1.0000 0.82500  0.90700  0.62740  Biso   1.000  C
  H95      1.0000 0.77750  0.86490  0.64650  Biso   1.000  H
  C124     1.0000 0.94300  0.89700  0.60630  Biso   1.000  C
  H96      1.0000 0.99350  0.84610  0.60870  Biso   1.000  H
  C125     1.0000 0.51600  0.01500  0.76770  Biso   1.000  C
  H97      1.0000 0.43630  0.00070  0.78240  Biso   1.000  H
  C126     1.0000 0.60200  0.03900  0.85980  Biso   1.000  C
  H98      1.0000 0.59280  0.09960  0.87270  Biso   1.000  H
  H99      1.0000 0.52460  0.00680  0.86930  Biso   1.000  H
  C127     1.0000 0.88300  0.12600  0.56780  Biso   1.000  C
  H100     1.0000 0.84970  0.16360  0.59610  Biso   1.000  H
  H101     1.0000 0.97030  0.14470  0.56000  Biso   1.000  H
  C128     1.0000 0.73200  0.07100  0.77740  Biso   1.000  C
  H102     1.0000 0.79860  0.09260  0.79870  Biso   1.000  H
  C129     1.0000 0.80100  0.13800  0.51940  Biso   1.000  C
  H103     1.0000 0.82650  0.09540  0.49280  Biso   1.000  H
  H104     1.0000 0.81190  0.19660  0.50570  Biso   1.000  H
  H105     1.0000 0.71180  0.12840  0.52850  Biso   1.000  H
  O29      1.0000 0.55400  0.40260  0.97130  Biso   1.000  O
  C130     1.0000 0.60500  0.37400  0.92980  Biso   1.000  C
  O30      1.0000 0.71100  0.39520  0.90980  Biso   1.000  O
  C131     1.0000 0.27700  0.13100  0.93260  Biso   1.000  C
  O31      1.0000 0.32800  0.10330  0.97540  Biso   1.000  O
  O32      1.0000 0.16700  0.11320  0.91310  Biso   1.000  O
  N23      1.0000 0.71400  0.99800  0.88580  Biso   1.000  N
  C132     1.0000 0.80800  0.03700  0.91400  Biso   1.000  C
  C133     1.0000 0.72100  0.14500  0.98080  Biso   1.000  C
  H106     1.0000 0.63450  0.12660  0.97260  Biso   1.000  H
  H107     1.0000 0.72110  0.20650  0.99070  Biso   1.000  H
  H108     1.0000 0.75390  0.11010  0.00980  Biso   1.000  H
  C134     1.0000 0.80700  0.13200  0.93210  Biso   1.000  C
  H109     1.0000 0.77560  0.16920  0.90340  Biso   1.000  H
  H110     1.0000 0.89420  0.15020  0.94060  Biso   1.000  H
  C135     1.0000 0.74500  0.91000  0.87910  Biso   1.000  C
  H111     1.0000 0.69770  0.86680  0.86090  Biso   1.000  H
  N24      1.0000 0.89900  0.97720  0.92620  Biso   1.000  N
  C136     1.0000 0.86000  0.89800  0.90460  Biso   1.000  C
  H112     1.0000 0.90470  0.84480  0.90700  Biso   1.000  H
