data_image0
_cell_length_a       19.9818
_cell_length_b       19.9818
_cell_length_c       19.9818
_cell_angle_alpha    90
_cell_angle_beta     90
_cell_angle_gamma    90

_symmetry_space_group_name_H-M    "P 1"
_symmetry_int_tables_number       1

loop_
  _symmetry_equiv_pos_as_xyz
  'x, y, z'

loop_
  _atom_site_label
  _atom_site_occupancy
  _atom_site_fract_x
  _atom_site_fract_y
  _atom_site_fract_z
  _atom_site_thermal_displace_type
  _atom_site_B_iso_or_equiv
  _atom_site_type_symbol
  La1      1.0000 0.74739  0.15339  0.00707  Biso   1.000  La
  O1       1.0000 0.64430  0.20980  0.04670  Biso   1.000  O
  O2       1.0000 0.58580  0.29810  0.08090  Biso   1.000  O
  O3       1.0000 0.84370  0.21470  0.95860  Biso   1.000  O
  O4       1.0000 0.88910  0.30170  0.90610  Biso   1.000  O
  N1       1.0000 0.74240  0.28260  0.99940  Biso   1.000  N
  C1       1.0000 0.63480  0.27340  0.05300  Biso   1.000  C
  C2       1.0000 0.68820  0.31750  0.02470  Biso   1.000  C
  C3       1.0000 0.68650  0.38600  0.02700  Biso   1.000  C
  H1       1.0000 0.65080  0.40790  0.04730  Biso   1.000  H
  C4       1.0000 0.73710  0.42140  0.99930  Biso   1.000  C
  H2       1.0000 0.73570  0.46790  0.00030  Biso   1.000  H
  C5       1.0000 0.79170  0.38900  0.96910  Biso   1.000  C
  H3       1.0000 0.82570  0.41260  0.94790  Biso   1.000  H
  C6       1.0000 0.79160  0.31930  0.97300  Biso   1.000  C
  C7       1.0000 0.84550  0.27730  0.94410  Biso   1.000  C
  La2      1.0000 0.75261  0.84661  0.50707  Biso   1.000  La
  O5       1.0000 0.85570  0.79020  0.54670  Biso   1.000  O
  O6       1.0000 0.91420  0.70190  0.58090  Biso   1.000  O
  O7       1.0000 0.65630  0.78530  0.45860  Biso   1.000  O
  O8       1.0000 0.61090  0.69830  0.40610  Biso   1.000  O
  N2       1.0000 0.75760  0.71740  0.49940  Biso   1.000  N
  C8       1.0000 0.86520  0.72660  0.55300  Biso   1.000  C
  C9       1.0000 0.81180  0.68250  0.52470  Biso   1.000  C
  C10      1.0000 0.81350  0.61400  0.52700  Biso   1.000  C
  H4       1.0000 0.84920  0.59210  0.54730  Biso   1.000  H
  C11      1.0000 0.76290  0.57860  0.49930  Biso   1.000  C
  H5       1.0000 0.76430  0.53210  0.50030  Biso   1.000  H
  C12      1.0000 0.70830  0.61100  0.46910  Biso   1.000  C
  H6       1.0000 0.67430  0.58740  0.44790  Biso   1.000  H
  C13      1.0000 0.70840  0.68070  0.47300  Biso   1.000  C
  C14      1.0000 0.65450  0.72270  0.44410  Biso   1.000  C
  La3      1.0000 0.25261  0.65339  0.49293  Biso   1.000  La
  O9       1.0000 0.35570  0.70980  0.45330  Biso   1.000  O
  O10      1.0000 0.41420  0.79810  0.41910  Biso   1.000  O
  O11      1.0000 0.15630  0.71470  0.54140  Biso   1.000  O
  O12      1.0000 0.11090  0.80170  0.59390  Biso   1.000  O
  N3       1.0000 0.25760  0.78260  0.50060  Biso   1.000  N
  C15      1.0000 0.36520  0.77340  0.44700  Biso   1.000  C
  C16      1.0000 0.31180  0.81750  0.47530  Biso   1.000  C
  C17      1.0000 0.31350  0.88600  0.47300  Biso   1.000  C
  H7       1.0000 0.34920  0.90790  0.45270  Biso   1.000  H
  C18      1.0000 0.26290  0.92140  0.50070  Biso   1.000  C
  H8       1.0000 0.26430  0.96790  0.49970  Biso   1.000  H
  C19      1.0000 0.20830  0.88900  0.53090  Biso   1.000  C
  H9       1.0000 0.17430  0.91260  0.55210  Biso   1.000  H
  C20      1.0000 0.20840  0.81930  0.52700  Biso   1.000  C
  C21      1.0000 0.15450  0.77730  0.55590  Biso   1.000  C
  La4      1.0000 0.24739  0.34661  0.99293  Biso   1.000  La
  O13      1.0000 0.14430  0.29020  0.95330  Biso   1.000  O
  O14      1.0000 0.08580  0.20190  0.91910  Biso   1.000  O
  O15      1.0000 0.34370  0.28530  0.04140  Biso   1.000  O
  O16      1.0000 0.38910  0.19830  0.09390  Biso   1.000  O
  N4       1.0000 0.24240  0.21740  0.00060  Biso   1.000  N
  C22      1.0000 0.13480  0.22660  0.94700  Biso   1.000  C
  C23      1.0000 0.18820  0.18250  0.97530  Biso   1.000  C
  C24      1.0000 0.18650  0.11400  0.97300  Biso   1.000  C
  H10      1.0000 0.15080  0.09210  0.95270  Biso   1.000  H
  C25      1.0000 0.23710  0.07860  0.00070  Biso   1.000  C
  H11      1.0000 0.23570  0.03210  0.99970  Biso   1.000  H
  C26      1.0000 0.29170  0.11100  0.03090  Biso   1.000  C
  H12      1.0000 0.32570  0.08740  0.05210  Biso   1.000  H
  C27      1.0000 0.29160  0.18070  0.02700  Biso   1.000  C
  C28      1.0000 0.34550  0.22270  0.05590  Biso   1.000  C
  La5      1.0000 0.00707  0.74739  0.15339  Biso   1.000  La
  O17      1.0000 0.04670  0.64430  0.20980  Biso   1.000  O
  O18      1.0000 0.08090  0.58580  0.29810  Biso   1.000  O
  O19      1.0000 0.95860  0.84370  0.21470  Biso   1.000  O
  O20      1.0000 0.90610  0.88910  0.30170  Biso   1.000  O
  N5       1.0000 0.99940  0.74240  0.28260  Biso   1.000  N
  C29      1.0000 0.05300  0.63480  0.27340  Biso   1.000  C
  C30      1.0000 0.02470  0.68820  0.31750  Biso   1.000  C
  C31      1.0000 0.02700  0.68650  0.38600  Biso   1.000  C
  H13      1.0000 0.04730  0.65080  0.40790  Biso   1.000  H
  C32      1.0000 0.99930  0.73710  0.42140  Biso   1.000  C
  H14      1.0000 0.00030  0.73570  0.46790  Biso   1.000  H
  C33      1.0000 0.96910  0.79170  0.38900  Biso   1.000  C
  H15      1.0000 0.94790  0.82570  0.41260  Biso   1.000  H
  C34      1.0000 0.97300  0.79160  0.31930  Biso   1.000  C
  C35      1.0000 0.94410  0.84550  0.27730  Biso   1.000  C
  La6      1.0000 0.50707  0.75261  0.84661  Biso   1.000  La
  O21      1.0000 0.54670  0.85570  0.79020  Biso   1.000  O
  O22      1.0000 0.58090  0.91420  0.70190  Biso   1.000  O
  O23      1.0000 0.45860  0.65630  0.78530  Biso   1.000  O
  O24      1.0000 0.40610  0.61090  0.69830  Biso   1.000  O
  N6       1.0000 0.49940  0.75760  0.71740  Biso   1.000  N
  C36      1.0000 0.55300  0.86520  0.72660  Biso   1.000  C
  C37      1.0000 0.52470  0.81180  0.68250  Biso   1.000  C
  C38      1.0000 0.52700  0.81350  0.61400  Biso   1.000  C
  H16      1.0000 0.54730  0.84920  0.59210  Biso   1.000  H
  C39      1.0000 0.49930  0.76290  0.57860  Biso   1.000  C
  H17      1.0000 0.50030  0.76430  0.53210  Biso   1.000  H
  C40      1.0000 0.46910  0.70830  0.61100  Biso   1.000  C
  H18      1.0000 0.44790  0.67430  0.58740  Biso   1.000  H
  C41      1.0000 0.47300  0.70840  0.68070  Biso   1.000  C
  C42      1.0000 0.44410  0.65450  0.72270  Biso   1.000  C
  La7      1.0000 0.49293  0.25261  0.65339  Biso   1.000  La
  O25      1.0000 0.45330  0.35570  0.70980  Biso   1.000  O
  O26      1.0000 0.41910  0.41420  0.79810  Biso   1.000  O
  O27      1.0000 0.54140  0.15630  0.71470  Biso   1.000  O
  O28      1.0000 0.59390  0.11090  0.80170  Biso   1.000  O
  N7       1.0000 0.50060  0.25760  0.78260  Biso   1.000  N
  C43      1.0000 0.44700  0.36520  0.77340  Biso   1.000  C
  C44      1.0000 0.47530  0.31180  0.81750  Biso   1.000  C
  C45      1.0000 0.47300  0.31350  0.88600  Biso   1.000  C
  H19      1.0000 0.45270  0.34920  0.90790  Biso   1.000  H
  C46      1.0000 0.50070  0.26290  0.92140  Biso   1.000  C
  H20      1.0000 0.49970  0.26430  0.96790  Biso   1.000  H
  C47      1.0000 0.53090  0.20830  0.88900  Biso   1.000  C
  H21      1.0000 0.55210  0.17430  0.91260  Biso   1.000  H
  C48      1.0000 0.52700  0.20840  0.81930  Biso   1.000  C
  C49      1.0000 0.55590  0.15450  0.77730  Biso   1.000  C
  La8      1.0000 0.99293  0.24739  0.34661  Biso   1.000  La
  O29      1.0000 0.95330  0.14430  0.29020  Biso   1.000  O
  O30      1.0000 0.91910  0.08580  0.20190  Biso   1.000  O
  O31      1.0000 0.04140  0.34370  0.28530  Biso   1.000  O
  O32      1.0000 0.09390  0.38910  0.19830  Biso   1.000  O
  N8       1.0000 0.00060  0.24240  0.21740  Biso   1.000  N
  C50      1.0000 0.94700  0.13480  0.22660  Biso   1.000  C
  C51      1.0000 0.97530  0.18820  0.18250  Biso   1.000  C
  C52      1.0000 0.97300  0.18650  0.11400  Biso   1.000  C
  H22      1.0000 0.95270  0.15080  0.09210  Biso   1.000  H
  C53      1.0000 0.00070  0.23710  0.07860  Biso   1.000  C
  H23      1.0000 0.99970  0.23570  0.03210  Biso   1.000  H
  C54      1.0000 0.03090  0.29170  0.11100  Biso   1.000  C
  H24      1.0000 0.05210  0.32570  0.08740  Biso   1.000  H
  C55      1.0000 0.02700  0.29160  0.18070  Biso   1.000  C
  C56      1.0000 0.05590  0.34550  0.22270  Biso   1.000  C
  La9      1.0000 0.15339  0.00707  0.74739  Biso   1.000  La
  O33      1.0000 0.20980  0.04670  0.64430  Biso   1.000  O
  O34      1.0000 0.29810  0.08090  0.58580  Biso   1.000  O
  O35      1.0000 0.21470  0.95860  0.84370  Biso   1.000  O
  O36      1.0000 0.30170  0.90610  0.88910  Biso   1.000  O
  N9       1.0000 0.28260  0.99940  0.74240  Biso   1.000  N
  C57      1.0000 0.27340  0.05300  0.63480  Biso   1.000  C
  C58      1.0000 0.31750  0.02470  0.68820  Biso   1.000  C
  C59      1.0000 0.38600  0.02700  0.68650  Biso   1.000  C
  H25      1.0000 0.40790  0.04730  0.65080  Biso   1.000  H
  C60      1.0000 0.42140  0.99930  0.73710  Biso   1.000  C
  H26      1.0000 0.46790  0.00030  0.73570  Biso   1.000  H
  C61      1.0000 0.38900  0.96910  0.79170  Biso   1.000  C
  H27      1.0000 0.41260  0.94790  0.82570  Biso   1.000  H
  C62      1.0000 0.31930  0.97300  0.79160  Biso   1.000  C
  C63      1.0000 0.27730  0.94410  0.84550  Biso   1.000  C
  La10     1.0000 0.84661  0.50707  0.75261  Biso   1.000  La
  O37      1.0000 0.79020  0.54670  0.85570  Biso   1.000  O
  O38      1.0000 0.70190  0.58090  0.91420  Biso   1.000  O
  O39      1.0000 0.78530  0.45860  0.65630  Biso   1.000  O
  O40      1.0000 0.69830  0.40610  0.61090  Biso   1.000  O
  N10      1.0000 0.71740  0.49940  0.75760  Biso   1.000  N
  C64      1.0000 0.72660  0.55300  0.86520  Biso   1.000  C
  C65      1.0000 0.68250  0.52470  0.81180  Biso   1.000  C
  C66      1.0000 0.61400  0.52700  0.81350  Biso   1.000  C
  H28      1.0000 0.59210  0.54730  0.84920  Biso   1.000  H
  C67      1.0000 0.57860  0.49930  0.76290  Biso   1.000  C
  H29      1.0000 0.53210  0.50030  0.76430  Biso   1.000  H
  C68      1.0000 0.61100  0.46910  0.70830  Biso   1.000  C
  H30      1.0000 0.58740  0.44790  0.67430  Biso   1.000  H
  C69      1.0000 0.68070  0.47300  0.70840  Biso   1.000  C
  C70      1.0000 0.72270  0.44410  0.65450  Biso   1.000  C
  La11     1.0000 0.65339  0.49293  0.25261  Biso   1.000  La
  O41      1.0000 0.70980  0.45330  0.35570  Biso   1.000  O
  O42      1.0000 0.79810  0.41910  0.41420  Biso   1.000  O
  O43      1.0000 0.71470  0.54140  0.15630  Biso   1.000  O
  O44      1.0000 0.80170  0.59390  0.11090  Biso   1.000  O
  N11      1.0000 0.78260  0.50060  0.25760  Biso   1.000  N
  C71      1.0000 0.77340  0.44700  0.36520  Biso   1.000  C
  C72      1.0000 0.81750  0.47530  0.31180  Biso   1.000  C
  C73      1.0000 0.88600  0.47300  0.31350  Biso   1.000  C
  H31      1.0000 0.90790  0.45270  0.34920  Biso   1.000  H
  C74      1.0000 0.92140  0.50070  0.26290  Biso   1.000  C
  H32      1.0000 0.96790  0.49970  0.26430  Biso   1.000  H
  C75      1.0000 0.88900  0.53090  0.20830  Biso   1.000  C
  H33      1.0000 0.91260  0.55210  0.17430  Biso   1.000  H
  C76      1.0000 0.81930  0.52700  0.20840  Biso   1.000  C
  C77      1.0000 0.77730  0.55590  0.15450  Biso   1.000  C
  La12     1.0000 0.34661  0.99293  0.24739  Biso   1.000  La
  O45      1.0000 0.29020  0.95330  0.14430  Biso   1.000  O
  O46      1.0000 0.20190  0.91910  0.08580  Biso   1.000  O
  O47      1.0000 0.28530  0.04140  0.34370  Biso   1.000  O
  O48      1.0000 0.19830  0.09390  0.38910  Biso   1.000  O
  N12      1.0000 0.21740  0.00060  0.24240  Biso   1.000  N
  C78      1.0000 0.22660  0.94700  0.13480  Biso   1.000  C
  C79      1.0000 0.18250  0.97530  0.18820  Biso   1.000  C
  C80      1.0000 0.11400  0.97300  0.18650  Biso   1.000  C
  H34      1.0000 0.09210  0.95270  0.15080  Biso   1.000  H
  C81      1.0000 0.07860  0.00070  0.23710  Biso   1.000  C
  H35      1.0000 0.03210  0.99970  0.23570  Biso   1.000  H
  C82      1.0000 0.11100  0.03090  0.29170  Biso   1.000  C
  H36      1.0000 0.08740  0.05210  0.32570  Biso   1.000  H
  C83      1.0000 0.18070  0.02700  0.29160  Biso   1.000  C
  C84      1.0000 0.22270  0.05590  0.34550  Biso   1.000  C
  La13     1.0000 0.25261  0.84661  0.99293  Biso   1.000  La
  O49      1.0000 0.35570  0.79020  0.95330  Biso   1.000  O
  O50      1.0000 0.41420  0.70190  0.91910  Biso   1.000  O
  O51      1.0000 0.15630  0.78530  0.04140  Biso   1.000  O
  O52      1.0000 0.11090  0.69830  0.09390  Biso   1.000  O
  N13      1.0000 0.25760  0.71740  0.00060  Biso   1.000  N
  C85      1.0000 0.36520  0.72660  0.94700  Biso   1.000  C
  C86      1.0000 0.31180  0.68250  0.97530  Biso   1.000  C
  C87      1.0000 0.31350  0.61400  0.97300  Biso   1.000  C
  H37      1.0000 0.34920  0.59210  0.95270  Biso   1.000  H
  C88      1.0000 0.26290  0.57860  0.00070  Biso   1.000  C
  H38      1.0000 0.26430  0.53210  0.99970  Biso   1.000  H
  C89      1.0000 0.20830  0.61100  0.03090  Biso   1.000  C
  H39      1.0000 0.17430  0.58740  0.05210  Biso   1.000  H
  C90      1.0000 0.20840  0.68070  0.02700  Biso   1.000  C
  C91      1.0000 0.15450  0.72270  0.05590  Biso   1.000  C
  La14     1.0000 0.24739  0.15339  0.49293  Biso   1.000  La
  O53      1.0000 0.14430  0.20980  0.45330  Biso   1.000  O
  O54      1.0000 0.08580  0.29810  0.41910  Biso   1.000  O
  O55      1.0000 0.34370  0.21470  0.54140  Biso   1.000  O
  O56      1.0000 0.38910  0.30170  0.59390  Biso   1.000  O
  N14      1.0000 0.24240  0.28260  0.50060  Biso   1.000  N
  C92      1.0000 0.13480  0.27340  0.44700  Biso   1.000  C
  C93      1.0000 0.18820  0.31750  0.47530  Biso   1.000  C
  C94      1.0000 0.18650  0.38600  0.47300  Biso   1.000  C
  H40      1.0000 0.15080  0.40790  0.45270  Biso   1.000  H
  C95      1.0000 0.23710  0.42140  0.50070  Biso   1.000  C
  H41      1.0000 0.23570  0.46790  0.49970  Biso   1.000  H
  C96      1.0000 0.29170  0.38900  0.53090  Biso   1.000  C
  H42      1.0000 0.32570  0.41260  0.55210  Biso   1.000  H
  C97      1.0000 0.29160  0.31930  0.52700  Biso   1.000  C
  C98      1.0000 0.34550  0.27730  0.55590  Biso   1.000  C
  La15     1.0000 0.74739  0.34661  0.50707  Biso   1.000  La
  O57      1.0000 0.64430  0.29020  0.54670  Biso   1.000  O
  O58      1.0000 0.58580  0.20190  0.58090  Biso   1.000  O
  O59      1.0000 0.84370  0.28530  0.45860  Biso   1.000  O
  O60      1.0000 0.88910  0.19830  0.40610  Biso   1.000  O
  N15      1.0000 0.74240  0.21740  0.49940  Biso   1.000  N
  C99      1.0000 0.63480  0.22660  0.55300  Biso   1.000  C
  C100     1.0000 0.68820  0.18250  0.52470  Biso   1.000  C
  C101     1.0000 0.68650  0.11400  0.52700  Biso   1.000  C
  H43      1.0000 0.65080  0.09210  0.54730  Biso   1.000  H
  C102     1.0000 0.73710  0.07860  0.49930  Biso   1.000  C
  H44      1.0000 0.73570  0.03210  0.50030  Biso   1.000  H
  C103     1.0000 0.79170  0.11100  0.46910  Biso   1.000  C
  H45      1.0000 0.82570  0.08740  0.44790  Biso   1.000  H
  C104     1.0000 0.79160  0.18070  0.47300  Biso   1.000  C
  C105     1.0000 0.84550  0.22270  0.44410  Biso   1.000  C
  La16     1.0000 0.75261  0.65339  0.00707  Biso   1.000  La
  O61      1.0000 0.85570  0.70980  0.04670  Biso   1.000  O
  O62      1.0000 0.91420  0.79810  0.08090  Biso   1.000  O
  O63      1.0000 0.65630  0.71470  0.95860  Biso   1.000  O
  O64      1.0000 0.61090  0.80170  0.90610  Biso   1.000  O
  N16      1.0000 0.75760  0.78260  0.99940  Biso   1.000  N
  C106     1.0000 0.86520  0.77340  0.05300  Biso   1.000  C
  C107     1.0000 0.81180  0.81750  0.02470  Biso   1.000  C
  C108     1.0000 0.81350  0.88600  0.02700  Biso   1.000  C
  H46      1.0000 0.84920  0.90790  0.04730  Biso   1.000  H
  C109     1.0000 0.76290  0.92140  0.99930  Biso   1.000  C
  H47      1.0000 0.76430  0.96790  0.00030  Biso   1.000  H
  C110     1.0000 0.70830  0.88900  0.96910  Biso   1.000  C
  H48      1.0000 0.67430  0.91260  0.94790  Biso   1.000  H
  C111     1.0000 0.70840  0.81930  0.97300  Biso   1.000  C
  C112     1.0000 0.65450  0.77730  0.94410  Biso   1.000  C
  La17     1.0000 0.99293  0.25261  0.84661  Biso   1.000  La
  O65      1.0000 0.95330  0.35570  0.79020  Biso   1.000  O
  O66      1.0000 0.91910  0.41420  0.70190  Biso   1.000  O
  O67      1.0000 0.04140  0.15630  0.78530  Biso   1.000  O
  O68      1.0000 0.09390  0.11090  0.69830  Biso   1.000  O
  N17      1.0000 0.00060  0.25760  0.71740  Biso   1.000  N
  C113     1.0000 0.94700  0.36520  0.72660  Biso   1.000  C
  C114     1.0000 0.97530  0.31180  0.68250  Biso   1.000  C
  C115     1.0000 0.97300  0.31350  0.61400  Biso   1.000  C
  H49      1.0000 0.95270  0.34920  0.59210  Biso   1.000  H
  C116     1.0000 0.00070  0.26290  0.57860  Biso   1.000  C
  H50      1.0000 0.99970  0.26430  0.53210  Biso   1.000  H
  C117     1.0000 0.03090  0.20830  0.61100  Biso   1.000  C
  H51      1.0000 0.05210  0.17430  0.58740  Biso   1.000  H
  C118     1.0000 0.02700  0.20840  0.68070  Biso   1.000  C
  C119     1.0000 0.05590  0.15450  0.72270  Biso   1.000  C
  La18     1.0000 0.49293  0.24739  0.15339  Biso   1.000  La
  O69      1.0000 0.45330  0.14430  0.20980  Biso   1.000  O
  O70      1.0000 0.41910  0.08580  0.29810  Biso   1.000  O
  O71      1.0000 0.54140  0.34370  0.21470  Biso   1.000  O
  O72      1.0000 0.59390  0.38910  0.30170  Biso   1.000  O
  N18      1.0000 0.50060  0.24240  0.28260  Biso   1.000  N
  C120     1.0000 0.44700  0.13480  0.27340  Biso   1.000  C
  C121     1.0000 0.47530  0.18820  0.31750  Biso   1.000  C
  C122     1.0000 0.47300  0.18650  0.38600  Biso   1.000  C
  H52      1.0000 0.45270  0.15080  0.40790  Biso   1.000  H
  C123     1.0000 0.50070  0.23710  0.42140  Biso   1.000  C
  H53      1.0000 0.49970  0.23570  0.46790  Biso   1.000  H
  C124     1.0000 0.53090  0.29170  0.38900  Biso   1.000  C
  H54      1.0000 0.55210  0.32570  0.41260  Biso   1.000  H
  C125     1.0000 0.52700  0.29160  0.31930  Biso   1.000  C
  C126     1.0000 0.55590  0.34550  0.27730  Biso   1.000  C
  La19     1.0000 0.50707  0.74739  0.34661  Biso   1.000  La
  O73      1.0000 0.54670  0.64430  0.29020  Biso   1.000  O
  O74      1.0000 0.58090  0.58580  0.20190  Biso   1.000  O
  O75      1.0000 0.45860  0.84370  0.28530  Biso   1.000  O
  O76      1.0000 0.40610  0.88910  0.19830  Biso   1.000  O
  N19      1.0000 0.49940  0.74240  0.21740  Biso   1.000  N
  C127     1.0000 0.55300  0.63480  0.22660  Biso   1.000  C
  C128     1.0000 0.52470  0.68820  0.18250  Biso   1.000  C
  C129     1.0000 0.52700  0.68650  0.11400  Biso   1.000  C
  H55      1.0000 0.54730  0.65080  0.09210  Biso   1.000  H
  C130     1.0000 0.49930  0.73710  0.07860  Biso   1.000  C
  H56      1.0000 0.50030  0.73570  0.03210  Biso   1.000  H
  C131     1.0000 0.46910  0.79170  0.11100  Biso   1.000  C
  H57      1.0000 0.44790  0.82570  0.08740  Biso   1.000  H
  C132     1.0000 0.47300  0.79160  0.18070  Biso   1.000  C
  C133     1.0000 0.44410  0.84550  0.22270  Biso   1.000  C
  La20     1.0000 0.00707  0.75261  0.65339  Biso   1.000  La
  O77      1.0000 0.04670  0.85570  0.70980  Biso   1.000  O
  O78      1.0000 0.08090  0.91420  0.79810  Biso   1.000  O
  O79      1.0000 0.95860  0.65630  0.71470  Biso   1.000  O
  O80      1.0000 0.90610  0.61090  0.80170  Biso   1.000  O
  N20      1.0000 0.99940  0.75760  0.78260  Biso   1.000  N
  C134     1.0000 0.05300  0.86520  0.77340  Biso   1.000  C
  C135     1.0000 0.02470  0.81180  0.81750  Biso   1.000  C
  C136     1.0000 0.02700  0.81350  0.88600  Biso   1.000  C
  H58      1.0000 0.04730  0.84920  0.90790  Biso   1.000  H
  C137     1.0000 0.99930  0.76290  0.92140  Biso   1.000  C
  H59      1.0000 0.00030  0.76430  0.96790  Biso   1.000  H
  C138     1.0000 0.96910  0.70830  0.88900  Biso   1.000  C
  H60      1.0000 0.94790  0.67430  0.91260  Biso   1.000  H
  C139     1.0000 0.97300  0.70840  0.81930  Biso   1.000  C
  C140     1.0000 0.94410  0.65450  0.77730  Biso   1.000  C
  La21     1.0000 0.84661  0.99293  0.25261  Biso   1.000  La
  O81      1.0000 0.79020  0.95330  0.35570  Biso   1.000  O
  O82      1.0000 0.70190  0.91910  0.41420  Biso   1.000  O
  O83      1.0000 0.78530  0.04140  0.15630  Biso   1.000  O
  O84      1.0000 0.69830  0.09390  0.11090  Biso   1.000  O
  N21      1.0000 0.71740  0.00060  0.25760  Biso   1.000  N
  C141     1.0000 0.72660  0.94700  0.36520  Biso   1.000  C
  C142     1.0000 0.68250  0.97530  0.31180  Biso   1.000  C
  C143     1.0000 0.61400  0.97300  0.31350  Biso   1.000  C
  H61      1.0000 0.59210  0.95270  0.34920  Biso   1.000  H
  C144     1.0000 0.57860  0.00070  0.26290  Biso   1.000  C
  H62      1.0000 0.53210  0.99970  0.26430  Biso   1.000  H
  C145     1.0000 0.61100  0.03090  0.20830  Biso   1.000  C
  H63      1.0000 0.58740  0.05210  0.17430  Biso   1.000  H
  C146     1.0000 0.68070  0.02700  0.20840  Biso   1.000  C
  C147     1.0000 0.72270  0.05590  0.15450  Biso   1.000  C
  La22     1.0000 0.15339  0.49293  0.24739  Biso   1.000  La
  O85      1.0000 0.20980  0.45330  0.14430  Biso   1.000  O
  O86      1.0000 0.29810  0.41910  0.08580  Biso   1.000  O
  O87      1.0000 0.21470  0.54140  0.34370  Biso   1.000  O
  O88      1.0000 0.30170  0.59390  0.38910  Biso   1.000  O
  N22      1.0000 0.28260  0.50060  0.24240  Biso   1.000  N
  C148     1.0000 0.27340  0.44700  0.13480  Biso   1.000  C
  C149     1.0000 0.31750  0.47530  0.18820  Biso   1.000  C
  C150     1.0000 0.38600  0.47300  0.18650  Biso   1.000  C
  H64      1.0000 0.40790  0.45270  0.15080  Biso   1.000  H
  C151     1.0000 0.42140  0.50070  0.23710  Biso   1.000  C
  H65      1.0000 0.46790  0.49970  0.23570  Biso   1.000  H
  C152     1.0000 0.38900  0.53090  0.29170  Biso   1.000  C
  H66      1.0000 0.41260  0.55210  0.32570  Biso   1.000  H
  C153     1.0000 0.31930  0.52700  0.29160  Biso   1.000  C
  C154     1.0000 0.27730  0.55590  0.34550  Biso   1.000  C
  La23     1.0000 0.34661  0.50707  0.74739  Biso   1.000  La
  O89      1.0000 0.29020  0.54670  0.64430  Biso   1.000  O
  O90      1.0000 0.20190  0.58090  0.58580  Biso   1.000  O
  O91      1.0000 0.28530  0.45860  0.84370  Biso   1.000  O
  O92      1.0000 0.19830  0.40610  0.88910  Biso   1.000  O
  N23      1.0000 0.21740  0.49940  0.74240  Biso   1.000  N
  C155     1.0000 0.22660  0.55300  0.63480  Biso   1.000  C
  C156     1.0000 0.18250  0.52470  0.68820  Biso   1.000  C
  C157     1.0000 0.11400  0.52700  0.68650  Biso   1.000  C
  H67      1.0000 0.09210  0.54730  0.65080  Biso   1.000  H
  C158     1.0000 0.07860  0.49930  0.73710  Biso   1.000  C
  H68      1.0000 0.03210  0.50030  0.73570  Biso   1.000  H
  C159     1.0000 0.11100  0.46910  0.79170  Biso   1.000  C
  H69      1.0000 0.08740  0.44790  0.82570  Biso   1.000  H
  C160     1.0000 0.18070  0.47300  0.79160  Biso   1.000  C
  C161     1.0000 0.22270  0.44410  0.84550  Biso   1.000  C
  La24     1.0000 0.65339  0.00707  0.75261  Biso   1.000  La
  O93      1.0000 0.70980  0.04670  0.85570  Biso   1.000  O
  O94      1.0000 0.79810  0.08090  0.91420  Biso   1.000  O
  O95      1.0000 0.71470  0.95860  0.65630  Biso   1.000  O
  O96      1.0000 0.80170  0.90610  0.61090  Biso   1.000  O
  N24      1.0000 0.78260  0.99940  0.75760  Biso   1.000  N
  C162     1.0000 0.77340  0.05300  0.86520  Biso   1.000  C
  C163     1.0000 0.81750  0.02470  0.81180  Biso   1.000  C
  C164     1.0000 0.88600  0.02700  0.81350  Biso   1.000  C
  H70      1.0000 0.90790  0.04730  0.84920  Biso   1.000  H
  C165     1.0000 0.92140  0.99930  0.76290  Biso   1.000  C
  H71      1.0000 0.96790  0.00030  0.76430  Biso   1.000  H
  C166     1.0000 0.88900  0.96910  0.70830  Biso   1.000  C
  H72      1.0000 0.91260  0.94790  0.67430  Biso   1.000  H
  C167     1.0000 0.81930  0.97300  0.70840  Biso   1.000  C
  C168     1.0000 0.77730  0.94410  0.65450  Biso   1.000  C
