data_image0
_cell_length_a       20.3661
_cell_length_b       20.3661
_cell_length_c       20.3661
_cell_angle_alpha    90
_cell_angle_beta     90
_cell_angle_gamma    90

_symmetry_space_group_name_H-M    "P 1"
_symmetry_int_tables_number       1

loop_
  _symmetry_equiv_pos_as_xyz
  'x, y, z'

loop_
  _atom_site_label
  _atom_site_occupancy
  _atom_site_fract_x
  _atom_site_fract_y
  _atom_site_fract_z
  _atom_site_thermal_displace_type
  _atom_site_B_iso_or_equiv
  _atom_site_type_symbol
  La1      1.0000 0.74276  0.14555  0.01269  Biso   1.000  La
  O1       1.0000 0.83510  0.20850  0.96000  Biso   1.000  O
  O2       1.0000 0.88400  0.29580  0.91580  Biso   1.000  O
  O3       1.0000 0.64230  0.20260  0.05300  Biso   1.000  O
  O4       1.0000 0.57960  0.28960  0.07600  Biso   1.000  O
  N1       1.0000 0.73500  0.27570  0.00080  Biso   1.000  N
  C1       1.0000 0.83930  0.26910  0.94790  Biso   1.000  C
  C2       1.0000 0.78360  0.31110  0.97410  Biso   1.000  C
  C3       1.0000 0.78190  0.37870  0.97000  Biso   1.000  C
  H1       1.0000 0.81630  0.40180  0.95060  Biso   1.000  H
  C4       1.0000 0.72820  0.41140  0.99520  Biso   1.000  C
  H2       1.0000 0.72630  0.45700  0.99390  Biso   1.000  H
  C5       1.0000 0.67690  0.37540  0.02240  Biso   1.000  C
  H3       1.0000 0.63980  0.39630  0.03880  Biso   1.000  H
  C6       1.0000 0.68250  0.30810  0.02450  Biso   1.000  C
  C7       1.0000 0.63050  0.26360  0.05330  Biso   1.000  C
  La2      1.0000 0.75724  0.85445  0.51269  Biso   1.000  La
  O5       1.0000 0.66490  0.79150  0.46000  Biso   1.000  O
  O6       1.0000 0.61600  0.70420  0.41580  Biso   1.000  O
  O7       1.0000 0.85770  0.79740  0.55300  Biso   1.000  O
  O8       1.0000 0.92040  0.71040  0.57600  Biso   1.000  O
  N2       1.0000 0.76500  0.72430  0.50080  Biso   1.000  N
  C8       1.0000 0.66070  0.73090  0.44790  Biso   1.000  C
  C9       1.0000 0.71640  0.68890  0.47410  Biso   1.000  C
  C10      1.0000 0.71810  0.62130  0.47000  Biso   1.000  C
  H4       1.0000 0.68370  0.59820  0.45060  Biso   1.000  H
  C11      1.0000 0.77180  0.58860  0.49520  Biso   1.000  C
  H5       1.0000 0.77370  0.54300  0.49390  Biso   1.000  H
  C12      1.0000 0.82310  0.62460  0.52240  Biso   1.000  C
  H6       1.0000 0.86020  0.60370  0.53880  Biso   1.000  H
  C13      1.0000 0.81750  0.69190  0.52450  Biso   1.000  C
  C14      1.0000 0.86950  0.73640  0.55330  Biso   1.000  C
  La3      1.0000 0.25724  0.64555  0.48731  Biso   1.000  La
  O9       1.0000 0.16490  0.70850  0.54000  Biso   1.000  O
  O10      1.0000 0.11600  0.79580  0.58420  Biso   1.000  O
  O11      1.0000 0.35770  0.70260  0.44700  Biso   1.000  O
  O12      1.0000 0.42040  0.78960  0.42400  Biso   1.000  O
  N3       1.0000 0.26500  0.77570  0.49920  Biso   1.000  N
  C15      1.0000 0.16070  0.76910  0.55210  Biso   1.000  C
  C16      1.0000 0.21640  0.81110  0.52590  Biso   1.000  C
  C17      1.0000 0.21810  0.87870  0.53000  Biso   1.000  C
  H7       1.0000 0.18370  0.90180  0.54940  Biso   1.000  H
  C18      1.0000 0.27180  0.91140  0.50480  Biso   1.000  C
  H8       1.0000 0.27370  0.95700  0.50610  Biso   1.000  H
  C19      1.0000 0.32310  0.87540  0.47760  Biso   1.000  C
  H9       1.0000 0.36020  0.89630  0.46120  Biso   1.000  H
  C20      1.0000 0.31750  0.80810  0.47550  Biso   1.000  C
  C21      1.0000 0.36950  0.76360  0.44670  Biso   1.000  C
  La4      1.0000 0.24276  0.35445  0.98731  Biso   1.000  La
  O13      1.0000 0.33510  0.29150  0.04000  Biso   1.000  O
  O14      1.0000 0.38400  0.20420  0.08420  Biso   1.000  O
  O15      1.0000 0.14230  0.29740  0.94700  Biso   1.000  O
  O16      1.0000 0.07960  0.21040  0.92400  Biso   1.000  O
  N4       1.0000 0.23500  0.22430  0.99920  Biso   1.000  N
  C22      1.0000 0.33930  0.23090  0.05210  Biso   1.000  C
  C23      1.0000 0.28360  0.18890  0.02590  Biso   1.000  C
  C24      1.0000 0.28190  0.12130  0.03000  Biso   1.000  C
  H10      1.0000 0.31630  0.09820  0.04940  Biso   1.000  H
  C25      1.0000 0.22820  0.08860  0.00480  Biso   1.000  C
  H11      1.0000 0.22630  0.04300  0.00610  Biso   1.000  H
  C26      1.0000 0.17690  0.12460  0.97760  Biso   1.000  C
  H12      1.0000 0.13980  0.10370  0.96120  Biso   1.000  H
  C27      1.0000 0.18250  0.19190  0.97550  Biso   1.000  C
  C28      1.0000 0.13050  0.23640  0.94670  Biso   1.000  C
  La5      1.0000 0.01269  0.74276  0.14555  Biso   1.000  La
  O17      1.0000 0.96000  0.83510  0.20850  Biso   1.000  O
  O18      1.0000 0.91580  0.88400  0.29580  Biso   1.000  O
  O19      1.0000 0.05300  0.64230  0.20260  Biso   1.000  O
  O20      1.0000 0.07600  0.57960  0.28960  Biso   1.000  O
  N5       1.0000 0.00080  0.73500  0.27570  Biso   1.000  N
  C29      1.0000 0.94790  0.83930  0.26910  Biso   1.000  C
  C30      1.0000 0.97410  0.78360  0.31110  Biso   1.000  C
  C31      1.0000 0.97000  0.78190  0.37870  Biso   1.000  C
  H13      1.0000 0.95060  0.81630  0.40180  Biso   1.000  H
  C32      1.0000 0.99520  0.72820  0.41140  Biso   1.000  C
  H14      1.0000 0.99390  0.72630  0.45700  Biso   1.000  H
  C33      1.0000 0.02240  0.67690  0.37540  Biso   1.000  C
  H15      1.0000 0.03880  0.63980  0.39630  Biso   1.000  H
  C34      1.0000 0.02450  0.68250  0.30810  Biso   1.000  C
  C35      1.0000 0.05330  0.63050  0.26360  Biso   1.000  C
  La6      1.0000 0.51269  0.75724  0.85445  Biso   1.000  La
  O21      1.0000 0.46000  0.66490  0.79150  Biso   1.000  O
  O22      1.0000 0.41580  0.61600  0.70420  Biso   1.000  O
  O23      1.0000 0.55300  0.85770  0.79740  Biso   1.000  O
  O24      1.0000 0.57600  0.92040  0.71040  Biso   1.000  O
  N6       1.0000 0.50080  0.76500  0.72430  Biso   1.000  N
  C36      1.0000 0.44790  0.66070  0.73090  Biso   1.000  C
  C37      1.0000 0.47410  0.71640  0.68890  Biso   1.000  C
  C38      1.0000 0.47000  0.71810  0.62130  Biso   1.000  C
  H16      1.0000 0.45060  0.68370  0.59820  Biso   1.000  H
  C39      1.0000 0.49520  0.77180  0.58860  Biso   1.000  C
  H17      1.0000 0.49390  0.77370  0.54300  Biso   1.000  H
  C40      1.0000 0.52240  0.82310  0.62460  Biso   1.000  C
  H18      1.0000 0.53880  0.86020  0.60370  Biso   1.000  H
  C41      1.0000 0.52450  0.81750  0.69190  Biso   1.000  C
  C42      1.0000 0.55330  0.86950  0.73640  Biso   1.000  C
  La7      1.0000 0.48731  0.25724  0.64555  Biso   1.000  La
  O25      1.0000 0.54000  0.16490  0.70850  Biso   1.000  O
  O26      1.0000 0.58420  0.11600  0.79580  Biso   1.000  O
  O27      1.0000 0.44700  0.35770  0.70260  Biso   1.000  O
  O28      1.0000 0.42400  0.42040  0.78960  Biso   1.000  O
  N7       1.0000 0.49920  0.26500  0.77570  Biso   1.000  N
  C43      1.0000 0.55210  0.16070  0.76910  Biso   1.000  C
  C44      1.0000 0.52590  0.21640  0.81110  Biso   1.000  C
  C45      1.0000 0.53000  0.21810  0.87870  Biso   1.000  C
  H19      1.0000 0.54940  0.18370  0.90180  Biso   1.000  H
  C46      1.0000 0.50480  0.27180  0.91140  Biso   1.000  C
  H20      1.0000 0.50610  0.27370  0.95700  Biso   1.000  H
  C47      1.0000 0.47760  0.32310  0.87540  Biso   1.000  C
  H21      1.0000 0.46120  0.36020  0.89630  Biso   1.000  H
  C48      1.0000 0.47550  0.31750  0.80810  Biso   1.000  C
  C49      1.0000 0.44670  0.36950  0.76360  Biso   1.000  C
  La8      1.0000 0.98731  0.24276  0.35445  Biso   1.000  La
  O29      1.0000 0.04000  0.33510  0.29150  Biso   1.000  O
  O30      1.0000 0.08420  0.38400  0.20420  Biso   1.000  O
  O31      1.0000 0.94700  0.14230  0.29740  Biso   1.000  O
  O32      1.0000 0.92400  0.07960  0.21040  Biso   1.000  O
  N8       1.0000 0.99920  0.23500  0.22430  Biso   1.000  N
  C50      1.0000 0.05210  0.33930  0.23090  Biso   1.000  C
  C51      1.0000 0.02590  0.28360  0.18890  Biso   1.000  C
  C52      1.0000 0.03000  0.28190  0.12130  Biso   1.000  C
  H22      1.0000 0.04940  0.31630  0.09820  Biso   1.000  H
  C53      1.0000 0.00480  0.22820  0.08860  Biso   1.000  C
  H23      1.0000 0.00610  0.22630  0.04300  Biso   1.000  H
  C54      1.0000 0.97760  0.17690  0.12460  Biso   1.000  C
  H24      1.0000 0.96120  0.13980  0.10370  Biso   1.000  H
  C55      1.0000 0.97550  0.18250  0.19190  Biso   1.000  C
  C56      1.0000 0.94670  0.13050  0.23640  Biso   1.000  C
  La9      1.0000 0.14555  0.01269  0.74276  Biso   1.000  La
  O33      1.0000 0.20850  0.96000  0.83510  Biso   1.000  O
  O34      1.0000 0.29580  0.91580  0.88400  Biso   1.000  O
  O35      1.0000 0.20260  0.05300  0.64230  Biso   1.000  O
  O36      1.0000 0.28960  0.07600  0.57960  Biso   1.000  O
  N9       1.0000 0.27570  0.00080  0.73500  Biso   1.000  N
  C57      1.0000 0.26910  0.94790  0.83930  Biso   1.000  C
  C58      1.0000 0.31110  0.97410  0.78360  Biso   1.000  C
  C59      1.0000 0.37870  0.97000  0.78190  Biso   1.000  C
  H25      1.0000 0.40180  0.95060  0.81630  Biso   1.000  H
  C60      1.0000 0.41140  0.99520  0.72820  Biso   1.000  C
  H26      1.0000 0.45700  0.99390  0.72630  Biso   1.000  H
  C61      1.0000 0.37540  0.02240  0.67690  Biso   1.000  C
  H27      1.0000 0.39630  0.03880  0.63980  Biso   1.000  H
  C62      1.0000 0.30810  0.02450  0.68250  Biso   1.000  C
  C63      1.0000 0.26360  0.05330  0.63050  Biso   1.000  C
  La10     1.0000 0.85445  0.51269  0.75724  Biso   1.000  La
  O37      1.0000 0.79150  0.46000  0.66490  Biso   1.000  O
  O38      1.0000 0.70420  0.41580  0.61600  Biso   1.000  O
  O39      1.0000 0.79740  0.55300  0.85770  Biso   1.000  O
  O40      1.0000 0.71040  0.57600  0.92040  Biso   1.000  O
  N10      1.0000 0.72430  0.50080  0.76500  Biso   1.000  N
  C64      1.0000 0.73090  0.44790  0.66070  Biso   1.000  C
  C65      1.0000 0.68890  0.47410  0.71640  Biso   1.000  C
  C66      1.0000 0.62130  0.47000  0.71810  Biso   1.000  C
  H28      1.0000 0.59820  0.45060  0.68370  Biso   1.000  H
  C67      1.0000 0.58860  0.49520  0.77180  Biso   1.000  C
  H29      1.0000 0.54300  0.49390  0.77370  Biso   1.000  H
  C68      1.0000 0.62460  0.52240  0.82310  Biso   1.000  C
  H30      1.0000 0.60370  0.53880  0.86020  Biso   1.000  H
  C69      1.0000 0.69190  0.52450  0.81750  Biso   1.000  C
  C70      1.0000 0.73640  0.55330  0.86950  Biso   1.000  C
  La11     1.0000 0.64555  0.48731  0.25724  Biso   1.000  La
  O41      1.0000 0.70850  0.54000  0.16490  Biso   1.000  O
  O42      1.0000 0.79580  0.58420  0.11600  Biso   1.000  O
  O43      1.0000 0.70260  0.44700  0.35770  Biso   1.000  O
  O44      1.0000 0.78960  0.42400  0.42040  Biso   1.000  O
  N11      1.0000 0.77570  0.49920  0.26500  Biso   1.000  N
  C71      1.0000 0.76910  0.55210  0.16070  Biso   1.000  C
  C72      1.0000 0.81110  0.52590  0.21640  Biso   1.000  C
  C73      1.0000 0.87870  0.53000  0.21810  Biso   1.000  C
  H31      1.0000 0.90180  0.54940  0.18370  Biso   1.000  H
  C74      1.0000 0.91140  0.50480  0.27180  Biso   1.000  C
  H32      1.0000 0.95700  0.50610  0.27370  Biso   1.000  H
  C75      1.0000 0.87540  0.47760  0.32310  Biso   1.000  C
  H33      1.0000 0.89630  0.46120  0.36020  Biso   1.000  H
  C76      1.0000 0.80810  0.47550  0.31750  Biso   1.000  C
  C77      1.0000 0.76360  0.44670  0.36950  Biso   1.000  C
  La12     1.0000 0.35445  0.98731  0.24276  Biso   1.000  La
  O45      1.0000 0.29150  0.04000  0.33510  Biso   1.000  O
  O46      1.0000 0.20420  0.08420  0.38400  Biso   1.000  O
  O47      1.0000 0.29740  0.94700  0.14230  Biso   1.000  O
  O48      1.0000 0.21040  0.92400  0.07960  Biso   1.000  O
  N12      1.0000 0.22430  0.99920  0.23500  Biso   1.000  N
  C78      1.0000 0.23090  0.05210  0.33930  Biso   1.000  C
  C79      1.0000 0.18890  0.02590  0.28360  Biso   1.000  C
  C80      1.0000 0.12130  0.03000  0.28190  Biso   1.000  C
  H34      1.0000 0.09820  0.04940  0.31630  Biso   1.000  H
  C81      1.0000 0.08860  0.00480  0.22820  Biso   1.000  C
  H35      1.0000 0.04300  0.00610  0.22630  Biso   1.000  H
  C82      1.0000 0.12460  0.97760  0.17690  Biso   1.000  C
  H36      1.0000 0.10370  0.96120  0.13980  Biso   1.000  H
  C83      1.0000 0.19190  0.97550  0.18250  Biso   1.000  C
  C84      1.0000 0.23640  0.94670  0.13050  Biso   1.000  C
  La13     1.0000 0.25724  0.85445  0.98731  Biso   1.000  La
  O49      1.0000 0.16490  0.79150  0.04000  Biso   1.000  O
  O50      1.0000 0.11600  0.70420  0.08420  Biso   1.000  O
  O51      1.0000 0.35770  0.79740  0.94700  Biso   1.000  O
  O52      1.0000 0.42040  0.71040  0.92400  Biso   1.000  O
  N13      1.0000 0.26500  0.72430  0.99920  Biso   1.000  N
  C85      1.0000 0.16070  0.73090  0.05210  Biso   1.000  C
  C86      1.0000 0.21640  0.68890  0.02590  Biso   1.000  C
  C87      1.0000 0.21810  0.62130  0.03000  Biso   1.000  C
  H37      1.0000 0.18370  0.59820  0.04940  Biso   1.000  H
  C88      1.0000 0.27180  0.58860  0.00480  Biso   1.000  C
  H38      1.0000 0.27370  0.54300  0.00610  Biso   1.000  H
  C89      1.0000 0.32310  0.62460  0.97760  Biso   1.000  C
  H39      1.0000 0.36020  0.60370  0.96120  Biso   1.000  H
  C90      1.0000 0.31750  0.69190  0.97550  Biso   1.000  C
  C91      1.0000 0.36950  0.73640  0.94670  Biso   1.000  C
  La14     1.0000 0.24276  0.14555  0.48731  Biso   1.000  La
  O53      1.0000 0.33510  0.20850  0.54000  Biso   1.000  O
  O54      1.0000 0.38400  0.29580  0.58420  Biso   1.000  O
  O55      1.0000 0.14230  0.20260  0.44700  Biso   1.000  O
  O56      1.0000 0.07960  0.28960  0.42400  Biso   1.000  O
  N14      1.0000 0.23500  0.27570  0.49920  Biso   1.000  N
  C92      1.0000 0.33930  0.26910  0.55210  Biso   1.000  C
  C93      1.0000 0.28360  0.31110  0.52590  Biso   1.000  C
  C94      1.0000 0.28190  0.37870  0.53000  Biso   1.000  C
  H40      1.0000 0.31630  0.40180  0.54940  Biso   1.000  H
  C95      1.0000 0.22820  0.41140  0.50480  Biso   1.000  C
  H41      1.0000 0.22630  0.45700  0.50610  Biso   1.000  H
  C96      1.0000 0.17690  0.37540  0.47760  Biso   1.000  C
  H42      1.0000 0.13980  0.39630  0.46120  Biso   1.000  H
  C97      1.0000 0.18250  0.30810  0.47550  Biso   1.000  C
  C98      1.0000 0.13050  0.26360  0.44670  Biso   1.000  C
  La15     1.0000 0.74276  0.35445  0.51269  Biso   1.000  La
  O57      1.0000 0.83510  0.29150  0.46000  Biso   1.000  O
  O58      1.0000 0.88400  0.20420  0.41580  Biso   1.000  O
  O59      1.0000 0.64230  0.29740  0.55300  Biso   1.000  O
  O60      1.0000 0.57960  0.21040  0.57600  Biso   1.000  O
  N15      1.0000 0.73500  0.22430  0.50080  Biso   1.000  N
  C99      1.0000 0.83930  0.23090  0.44790  Biso   1.000  C
  C100     1.0000 0.78360  0.18890  0.47410  Biso   1.000  C
  C101     1.0000 0.78190  0.12130  0.47000  Biso   1.000  C
  H43      1.0000 0.81630  0.09820  0.45060  Biso   1.000  H
  C102     1.0000 0.72820  0.08860  0.49520  Biso   1.000  C
  H44      1.0000 0.72630  0.04300  0.49390  Biso   1.000  H
  C103     1.0000 0.67690  0.12460  0.52240  Biso   1.000  C
  H45      1.0000 0.63980  0.10370  0.53880  Biso   1.000  H
  C104     1.0000 0.68250  0.19190  0.52450  Biso   1.000  C
  C105     1.0000 0.63050  0.23640  0.55330  Biso   1.000  C
  La16     1.0000 0.75724  0.64555  0.01269  Biso   1.000  La
  O61      1.0000 0.66490  0.70850  0.96000  Biso   1.000  O
  O62      1.0000 0.61600  0.79580  0.91580  Biso   1.000  O
  O63      1.0000 0.85770  0.70260  0.05300  Biso   1.000  O
  O64      1.0000 0.92040  0.78960  0.07600  Biso   1.000  O
  N16      1.0000 0.76500  0.77570  0.00080  Biso   1.000  N
  C106     1.0000 0.66070  0.76910  0.94790  Biso   1.000  C
  C107     1.0000 0.71640  0.81110  0.97410  Biso   1.000  C
  C108     1.0000 0.71810  0.87870  0.97000  Biso   1.000  C
  H46      1.0000 0.68370  0.90180  0.95060  Biso   1.000  H
  C109     1.0000 0.77180  0.91140  0.99520  Biso   1.000  C
  H47      1.0000 0.77370  0.95700  0.99390  Biso   1.000  H
  C110     1.0000 0.82310  0.87540  0.02240  Biso   1.000  C
  H48      1.0000 0.86020  0.89630  0.03880  Biso   1.000  H
  C111     1.0000 0.81750  0.80810  0.02450  Biso   1.000  C
  C112     1.0000 0.86950  0.76360  0.05330  Biso   1.000  C
  La17     1.0000 0.98731  0.25724  0.85445  Biso   1.000  La
  O65      1.0000 0.04000  0.16490  0.79150  Biso   1.000  O
  O66      1.0000 0.08420  0.11600  0.70420  Biso   1.000  O
  O67      1.0000 0.94700  0.35770  0.79740  Biso   1.000  O
  O68      1.0000 0.92400  0.42040  0.71040  Biso   1.000  O
  N17      1.0000 0.99920  0.26500  0.72430  Biso   1.000  N
  C113     1.0000 0.05210  0.16070  0.73090  Biso   1.000  C
  C114     1.0000 0.02590  0.21640  0.68890  Biso   1.000  C
  C115     1.0000 0.03000  0.21810  0.62130  Biso   1.000  C
  H49      1.0000 0.04940  0.18370  0.59820  Biso   1.000  H
  C116     1.0000 0.00480  0.27180  0.58860  Biso   1.000  C
  H50      1.0000 0.00610  0.27370  0.54300  Biso   1.000  H
  C117     1.0000 0.97760  0.32310  0.62460  Biso   1.000  C
  H51      1.0000 0.96120  0.36020  0.60370  Biso   1.000  H
  C118     1.0000 0.97550  0.31750  0.69190  Biso   1.000  C
  C119     1.0000 0.94670  0.36950  0.73640  Biso   1.000  C
  La18     1.0000 0.48731  0.24276  0.14555  Biso   1.000  La
  O69      1.0000 0.54000  0.33510  0.20850  Biso   1.000  O
  O70      1.0000 0.58420  0.38400  0.29580  Biso   1.000  O
  O71      1.0000 0.44700  0.14230  0.20260  Biso   1.000  O
  O72      1.0000 0.42400  0.07960  0.28960  Biso   1.000  O
  N18      1.0000 0.49920  0.23500  0.27570  Biso   1.000  N
  C120     1.0000 0.55210  0.33930  0.26910  Biso   1.000  C
  C121     1.0000 0.52590  0.28360  0.31110  Biso   1.000  C
  C122     1.0000 0.53000  0.28190  0.37870  Biso   1.000  C
  H52      1.0000 0.54940  0.31630  0.40180  Biso   1.000  H
  C123     1.0000 0.50480  0.22820  0.41140  Biso   1.000  C
  H53      1.0000 0.50610  0.22630  0.45700  Biso   1.000  H
  C124     1.0000 0.47760  0.17690  0.37540  Biso   1.000  C
  H54      1.0000 0.46120  0.13980  0.39630  Biso   1.000  H
  C125     1.0000 0.47550  0.18250  0.30810  Biso   1.000  C
  C126     1.0000 0.44670  0.13050  0.26360  Biso   1.000  C
  La19     1.0000 0.51269  0.74276  0.35445  Biso   1.000  La
  O73      1.0000 0.46000  0.83510  0.29150  Biso   1.000  O
  O74      1.0000 0.41580  0.88400  0.20420  Biso   1.000  O
  O75      1.0000 0.55300  0.64230  0.29740  Biso   1.000  O
  O76      1.0000 0.57600  0.57960  0.21040  Biso   1.000  O
  N19      1.0000 0.50080  0.73500  0.22430  Biso   1.000  N
  C127     1.0000 0.44790  0.83930  0.23090  Biso   1.000  C
  C128     1.0000 0.47410  0.78360  0.18890  Biso   1.000  C
  C129     1.0000 0.47000  0.78190  0.12130  Biso   1.000  C
  H55      1.0000 0.45060  0.81630  0.09820  Biso   1.000  H
  C130     1.0000 0.49520  0.72820  0.08860  Biso   1.000  C
  H56      1.0000 0.49390  0.72630  0.04300  Biso   1.000  H
  C131     1.0000 0.52240  0.67690  0.12460  Biso   1.000  C
  H57      1.0000 0.53880  0.63980  0.10370  Biso   1.000  H
  C132     1.0000 0.52450  0.68250  0.19190  Biso   1.000  C
  C133     1.0000 0.55330  0.63050  0.23640  Biso   1.000  C
  La20     1.0000 0.01269  0.75724  0.64555  Biso   1.000  La
  O77      1.0000 0.96000  0.66490  0.70850  Biso   1.000  O
  O78      1.0000 0.91580  0.61600  0.79580  Biso   1.000  O
  O79      1.0000 0.05300  0.85770  0.70260  Biso   1.000  O
  O80      1.0000 0.07600  0.92040  0.78960  Biso   1.000  O
  N20      1.0000 0.00080  0.76500  0.77570  Biso   1.000  N
  C134     1.0000 0.94790  0.66070  0.76910  Biso   1.000  C
  C135     1.0000 0.97410  0.71640  0.81110  Biso   1.000  C
  C136     1.0000 0.97000  0.71810  0.87870  Biso   1.000  C
  H58      1.0000 0.95060  0.68370  0.90180  Biso   1.000  H
  C137     1.0000 0.99520  0.77180  0.91140  Biso   1.000  C
  H59      1.0000 0.99390  0.77370  0.95700  Biso   1.000  H
  C138     1.0000 0.02240  0.82310  0.87540  Biso   1.000  C
  H60      1.0000 0.03880  0.86020  0.89630  Biso   1.000  H
  C139     1.0000 0.02450  0.81750  0.80810  Biso   1.000  C
  C140     1.0000 0.05330  0.86950  0.76360  Biso   1.000  C
  La21     1.0000 0.85445  0.98731  0.25724  Biso   1.000  La
  O81      1.0000 0.79150  0.04000  0.16490  Biso   1.000  O
  O82      1.0000 0.70420  0.08420  0.11600  Biso   1.000  O
  O83      1.0000 0.79740  0.94700  0.35770  Biso   1.000  O
  O84      1.0000 0.71040  0.92400  0.42040  Biso   1.000  O
  N21      1.0000 0.72430  0.99920  0.26500  Biso   1.000  N
  C141     1.0000 0.73090  0.05210  0.16070  Biso   1.000  C
  C142     1.0000 0.68890  0.02590  0.21640  Biso   1.000  C
  C143     1.0000 0.62130  0.03000  0.21810  Biso   1.000  C
  H61      1.0000 0.59820  0.04940  0.18370  Biso   1.000  H
  C144     1.0000 0.58860  0.00480  0.27180  Biso   1.000  C
  H62      1.0000 0.54300  0.00610  0.27370  Biso   1.000  H
  C145     1.0000 0.62460  0.97760  0.32310  Biso   1.000  C
  H63      1.0000 0.60370  0.96120  0.36020  Biso   1.000  H
  C146     1.0000 0.69190  0.97550  0.31750  Biso   1.000  C
  C147     1.0000 0.73640  0.94670  0.36950  Biso   1.000  C
  La22     1.0000 0.14555  0.48731  0.24276  Biso   1.000  La
  O85      1.0000 0.20850  0.54000  0.33510  Biso   1.000  O
  O86      1.0000 0.29580  0.58420  0.38400  Biso   1.000  O
  O87      1.0000 0.20260  0.44700  0.14230  Biso   1.000  O
  O88      1.0000 0.28960  0.42400  0.07960  Biso   1.000  O
  N22      1.0000 0.27570  0.49920  0.23500  Biso   1.000  N
  C148     1.0000 0.26910  0.55210  0.33930  Biso   1.000  C
  C149     1.0000 0.31110  0.52590  0.28360  Biso   1.000  C
  C150     1.0000 0.37870  0.53000  0.28190  Biso   1.000  C
  H64      1.0000 0.40180  0.54940  0.31630  Biso   1.000  H
  C151     1.0000 0.41140  0.50480  0.22820  Biso   1.000  C
  H65      1.0000 0.45700  0.50610  0.22630  Biso   1.000  H
  C152     1.0000 0.37540  0.47760  0.17690  Biso   1.000  C
  H66      1.0000 0.39630  0.46120  0.13980  Biso   1.000  H
  C153     1.0000 0.30810  0.47550  0.18250  Biso   1.000  C
  C154     1.0000 0.26360  0.44670  0.13050  Biso   1.000  C
  La23     1.0000 0.35445  0.51269  0.74276  Biso   1.000  La
  O89      1.0000 0.29150  0.46000  0.83510  Biso   1.000  O
  O90      1.0000 0.20420  0.41580  0.88400  Biso   1.000  O
  O91      1.0000 0.29740  0.55300  0.64230  Biso   1.000  O
  O92      1.0000 0.21040  0.57600  0.57960  Biso   1.000  O
  N23      1.0000 0.22430  0.50080  0.73500  Biso   1.000  N
  C155     1.0000 0.23090  0.44790  0.83930  Biso   1.000  C
  C156     1.0000 0.18890  0.47410  0.78360  Biso   1.000  C
  C157     1.0000 0.12130  0.47000  0.78190  Biso   1.000  C
  H67      1.0000 0.09820  0.45060  0.81630  Biso   1.000  H
  C158     1.0000 0.08860  0.49520  0.72820  Biso   1.000  C
  H68      1.0000 0.04300  0.49390  0.72630  Biso   1.000  H
  C159     1.0000 0.12460  0.52240  0.67690  Biso   1.000  C
  H69      1.0000 0.10370  0.53880  0.63980  Biso   1.000  H
  C160     1.0000 0.19190  0.52450  0.68250  Biso   1.000  C
  C161     1.0000 0.23640  0.55330  0.63050  Biso   1.000  C
  La24     1.0000 0.64555  0.01269  0.75724  Biso   1.000  La
  O93      1.0000 0.70850  0.96000  0.66490  Biso   1.000  O
  O94      1.0000 0.79580  0.91580  0.61600  Biso   1.000  O
  O95      1.0000 0.70260  0.05300  0.85770  Biso   1.000  O
  O96      1.0000 0.78960  0.07600  0.92040  Biso   1.000  O
  N24      1.0000 0.77570  0.00080  0.76500  Biso   1.000  N
  C162     1.0000 0.76910  0.94790  0.66070  Biso   1.000  C
  C163     1.0000 0.81110  0.97410  0.71640  Biso   1.000  C
  C164     1.0000 0.87870  0.97000  0.71810  Biso   1.000  C
  H70      1.0000 0.90180  0.95060  0.68370  Biso   1.000  H
  C165     1.0000 0.91140  0.99520  0.77180  Biso   1.000  C
  H71      1.0000 0.95700  0.99390  0.77370  Biso   1.000  H
  C166     1.0000 0.87540  0.02240  0.82310  Biso   1.000  C
  H72      1.0000 0.89630  0.03880  0.86020  Biso   1.000  H
  C167     1.0000 0.80810  0.02450  0.81750  Biso   1.000  C
  C168     1.0000 0.76360  0.05330  0.86950  Biso   1.000  C
