data_DANZID_charged
_audit_creation_date              2014-07-02
_audit_creation_method            'Materials Studio'
_symmetry_space_group_name_H-M    'P1'
_symmetry_Int_Tables_number       1
_symmetry_cell_setting            triclinic
loop_
_symmetry_equiv_pos_as_xyz
  x,y,z
_cell_length_a                    9.9941
_cell_length_b                    29.2846
_cell_length_c                    29.2846
_cell_angle_alpha                 90.0000
_cell_angle_beta                  90.0000
_cell_angle_gamma                 90.0000
loop_
_atom_site_label
_atom_site_type_symbol
_atom_site_fract_x
_atom_site_fract_y
_atom_site_fract_z
_atom_site_U_iso_or_equiv
_atom_site_adp_type
_atom_site_occupancy
Cd1    Cd    0.00000   0.00000   0.50000   0.01267  Uiso   1.00
Cd2    Cd    0.00000   0.50000   0.00000   0.01267  Uiso   1.00
Cd3    Cd    0.00000   0.00000   0.00000   0.01267  Uiso   1.00
Cd4    Cd    0.00000   0.50000   0.50000   0.01267  Uiso   1.00
Cu1    Cu    0.78688   0.99290   0.40209   0.01267  Uiso   1.00
Cu2    Cu    0.78688   0.50710   0.09791   0.01267  Uiso   1.00
Cu3    Cu    0.78688   0.09791   0.99290   0.01267  Uiso   1.00
Cu4    Cu    0.78688   0.40209   0.50710   0.01267  Uiso   1.00
Cu5    Cu    0.21312   0.00710   0.59791   0.01267  Uiso   1.00
Cu6    Cu    0.21312   0.49290   0.90209   0.01267  Uiso   1.00
Cu7    Cu    0.21312   0.90209   0.00710   0.01267  Uiso   1.00
Cu8    Cu    0.21312   0.59791   0.49290   0.01267  Uiso   1.00
H1     H     0.53070   0.72250   0.47940   0.01267  Uiso   1.00
H2     H     0.65860   0.59410   0.49400   0.01267  Uiso   1.00
H3     H     0.92130   0.69630   0.49110   0.01267  Uiso   1.00
H4     H     0.90330   0.77490   0.52380   0.01267  Uiso   1.00
H5     H     0.95360   0.85030   0.50980   0.01267  Uiso   1.00
H6     H     0.66520   0.85340   0.41440   0.01267  Uiso   1.00
H7     H     0.61300   0.77870   0.43160   0.01267  Uiso   1.00
H8     H     0.53070   0.77750   0.02060   0.01267  Uiso   1.00
H9     H     0.65860   0.90590   0.00600   0.01267  Uiso   1.00
H10    H     0.92130   0.80370   0.00890   0.01267  Uiso   1.00
H11    H     0.90330   0.72510   0.97620   0.01267  Uiso   1.00
H12    H     0.95360   0.64970   0.99020   0.01267  Uiso   1.00
H13    H     0.66520   0.64660   0.08560   0.01267  Uiso   1.00
H14    H     0.61300   0.72130   0.06840   0.01267  Uiso   1.00
H15    H     0.53070   0.02060   0.72250   0.01267  Uiso   1.00
H16    H     0.65860   0.00600   0.59410   0.01267  Uiso   1.00
H17    H     0.92130   0.00890   0.69630   0.01267  Uiso   1.00
H18    H     0.90330   0.97620   0.77490   0.01267  Uiso   1.00
H19    H     0.95360   0.99020   0.85030   0.01267  Uiso   1.00
H20    H     0.66520   0.08560   0.85340   0.01267  Uiso   1.00
H21    H     0.61300   0.06840   0.77870   0.01267  Uiso   1.00
H22    H     0.53070   0.47940   0.77750   0.01267  Uiso   1.00
H23    H     0.65860   0.49400   0.90590   0.01267  Uiso   1.00
H24    H     0.92130   0.49110   0.80370   0.01267  Uiso   1.00
H25    H     0.90330   0.52380   0.72510   0.01267  Uiso   1.00
H26    H     0.95360   0.50980   0.64970   0.01267  Uiso   1.00
H27    H     0.66520   0.41440   0.64660   0.01267  Uiso   1.00
H28    H     0.61300   0.43160   0.72130   0.01267  Uiso   1.00
H29    H     0.46930   0.27750   0.52060   0.01267  Uiso   1.00
H30    H     0.34140   0.40590   0.50600   0.01267  Uiso   1.00
H31    H     0.07870   0.30370   0.50890   0.01267  Uiso   1.00
H32    H     0.09670   0.22510   0.47620   0.01267  Uiso   1.00
H33    H     0.04640   0.14970   0.49020   0.01267  Uiso   1.00
H34    H     0.33480   0.14660   0.58560   0.01267  Uiso   1.00
H35    H     0.38700   0.22130   0.56840   0.01267  Uiso   1.00
H36    H     0.46930   0.22250   0.97940   0.01267  Uiso   1.00
H37    H     0.34140   0.09410   0.99400   0.01267  Uiso   1.00
H38    H     0.07870   0.19630   0.99110   0.01267  Uiso   1.00
H39    H     0.09670   0.27490   0.02380   0.01267  Uiso   1.00
H40    H     0.04640   0.35030   0.00980   0.01267  Uiso   1.00
H41    H     0.33480   0.35340   0.91440   0.01267  Uiso   1.00
H42    H     0.38700   0.27870   0.93160   0.01267  Uiso   1.00
H43    H     0.46930   0.97940   0.27750   0.01267  Uiso   1.00
H44    H     0.34140   0.99400   0.40590   0.01267  Uiso   1.00
H45    H     0.07870   0.99110   0.30370   0.01267  Uiso   1.00
H46    H     0.09670   0.02380   0.22510   0.01267  Uiso   1.00
H47    H     0.04640   0.00980   0.14970   0.01267  Uiso   1.00
H48    H     0.33480   0.91440   0.14660   0.01267  Uiso   1.00
H49    H     0.38700   0.93160   0.22130   0.01267  Uiso   1.00
H50    H     0.46930   0.52060   0.22250   0.01267  Uiso   1.00
H51    H     0.34140   0.50600   0.09410   0.01267  Uiso   1.00
H52    H     0.07870   0.50890   0.19630   0.01267  Uiso   1.00
H53    H     0.09670   0.47620   0.27490   0.01267  Uiso   1.00
H54    H     0.04640   0.49020   0.35030   0.01267  Uiso   1.00
H55    H     0.33480   0.58560   0.35340   0.01267  Uiso   1.00
H56    H     0.38700   0.56840   0.27870   0.01267  Uiso   1.00
C1     C     0.60050   0.70200   0.48370   0.01267  Uiso   1.00
C2     C     0.67680   0.62520   0.49290   0.01267  Uiso   1.00
C3     C     0.80740   0.64020   0.49460   0.01267  Uiso   1.00
C4     C     0.83340   0.68600   0.49020   0.01267  Uiso   1.00
C5     C     0.57150   0.65640   0.48950   0.01267  Uiso   1.00
C6     C     0.85720   0.79080   0.50130   0.01267  Uiso   1.00
C7     C     0.81460   0.85990   0.46110   0.01267  Uiso   1.00
C8     C     0.75780   0.76820   0.47530   0.01267  Uiso   1.00
C9     C     0.91940   0.60650   0.49800   0.01267  Uiso   1.00
C10    C     0.42970   0.63640   0.48940   0.01267  Uiso   1.00
C11    C     0.84450   0.91130   0.45490   0.01267  Uiso   1.00
C12    C     0.72820   0.71780   0.48430   0.01267  Uiso   1.00
C13    C     0.88600   0.83600   0.49340   0.01267  Uiso   1.00
C14    C     0.71320   0.83790   0.43670   0.01267  Uiso   1.00
C15    C     0.68510   0.79250   0.44620   0.01267  Uiso   1.00
C16    C     0.60050   0.79800   0.01630   0.01267  Uiso   1.00
C17    C     0.67680   0.87480   0.00710   0.01267  Uiso   1.00
C18    C     0.80740   0.85980   0.00540   0.01267  Uiso   1.00
C19    C     0.83340   0.81400   0.00980   0.01267  Uiso   1.00
C20    C     0.57150   0.84360   0.01050   0.01267  Uiso   1.00
C21    C     0.85720   0.70920   0.99870   0.01267  Uiso   1.00
C22    C     0.81460   0.64010   0.03890   0.01267  Uiso   1.00
C23    C     0.75780   0.73180   0.02470   0.01267  Uiso   1.00
C24    C     0.91940   0.89350   0.00200   0.01267  Uiso   1.00
C25    C     0.42970   0.86360   0.01060   0.01267  Uiso   1.00
C26    C     0.84450   0.58870   0.04510   0.01267  Uiso   1.00
C27    C     0.72820   0.78220   0.01570   0.01267  Uiso   1.00
C28    C     0.88600   0.66400   0.00660   0.01267  Uiso   1.00
C29    C     0.71320   0.66210   0.06330   0.01267  Uiso   1.00
C30    C     0.68510   0.70750   0.05380   0.01267  Uiso   1.00
C31    C     0.60050   0.01630   0.70200   0.01267  Uiso   1.00
C32    C     0.67680   0.00710   0.62520   0.01267  Uiso   1.00
C33    C     0.80740   0.00540   0.64020   0.01267  Uiso   1.00
C34    C     0.83340   0.00980   0.68600   0.01267  Uiso   1.00
C35    C     0.57150   0.01050   0.65640   0.01267  Uiso   1.00
C36    C     0.85720   0.99870   0.79080   0.01267  Uiso   1.00
C37    C     0.81460   0.03890   0.85990   0.01267  Uiso   1.00
C38    C     0.75780   0.02470   0.76820   0.01267  Uiso   1.00
C39    C     0.91940   0.00200   0.60650   0.01267  Uiso   1.00
C40    C     0.42970   0.01060   0.63640   0.01267  Uiso   1.00
C41    C     0.84450   0.04510   0.91130   0.01267  Uiso   1.00
C42    C     0.72820   0.01570   0.71780   0.01267  Uiso   1.00
C43    C     0.88600   0.00660   0.83600   0.01267  Uiso   1.00
C44    C     0.71320   0.06330   0.83790   0.01267  Uiso   1.00
C45    C     0.68510   0.05380   0.79250   0.01267  Uiso   1.00
C46    C     0.60050   0.48370   0.79800   0.01267  Uiso   1.00
C47    C     0.67680   0.49290   0.87480   0.01267  Uiso   1.00
C48    C     0.80740   0.49460   0.85980   0.01267  Uiso   1.00
C49    C     0.83340   0.49020   0.81400   0.01267  Uiso   1.00
C50    C     0.57150   0.48950   0.84360   0.01267  Uiso   1.00
C51    C     0.85720   0.50130   0.70920   0.01267  Uiso   1.00
C52    C     0.81460   0.46110   0.64010   0.01267  Uiso   1.00
C53    C     0.75780   0.47530   0.73180   0.01267  Uiso   1.00
C54    C     0.91940   0.49800   0.89350   0.01267  Uiso   1.00
C55    C     0.42970   0.48940   0.86360   0.01267  Uiso   1.00
C56    C     0.84450   0.45490   0.58870   0.01267  Uiso   1.00
C57    C     0.72820   0.48430   0.78220   0.01267  Uiso   1.00
C58    C     0.88600   0.49340   0.66400   0.01267  Uiso   1.00
C59    C     0.71320   0.43670   0.66210   0.01267  Uiso   1.00
C60    C     0.68510   0.44620   0.70750   0.01267  Uiso   1.00
C61    C     0.39950   0.29800   0.51630   0.01267  Uiso   1.00
C62    C     0.32320   0.37480   0.50710   0.01267  Uiso   1.00
C63    C     0.19260   0.35980   0.50540   0.01267  Uiso   1.00
C64    C     0.16660   0.31400   0.50980   0.01267  Uiso   1.00
C65    C     0.42850   0.34360   0.51050   0.01267  Uiso   1.00
C66    C     0.14280   0.20920   0.49870   0.01267  Uiso   1.00
C67    C     0.18540   0.14010   0.53890   0.01267  Uiso   1.00
C68    C     0.24220   0.23180   0.52470   0.01267  Uiso   1.00
C69    C     0.08060   0.39350   0.50200   0.01267  Uiso   1.00
C70    C     0.57030   0.36360   0.51060   0.01267  Uiso   1.00
C71    C     0.15550   0.08870   0.54510   0.01267  Uiso   1.00
C72    C     0.27180   0.28220   0.51570   0.01267  Uiso   1.00
C73    C     0.11400   0.16400   0.50660   0.01267  Uiso   1.00
C74    C     0.28680   0.16210   0.56330   0.01267  Uiso   1.00
C75    C     0.31490   0.20750   0.55380   0.01267  Uiso   1.00
C76    C     0.39950   0.20200   0.98370   0.01267  Uiso   1.00
C77    C     0.32320   0.12520   0.99290   0.01267  Uiso   1.00
C78    C     0.19260   0.14020   0.99460   0.01267  Uiso   1.00
C79    C     0.16660   0.18600   0.99020   0.01267  Uiso   1.00
C80    C     0.42850   0.15640   0.98950   0.01267  Uiso   1.00
C81    C     0.14280   0.29080   0.00130   0.01267  Uiso   1.00
C82    C     0.18540   0.35990   0.96110   0.01267  Uiso   1.00
C83    C     0.24220   0.26820   0.97530   0.01267  Uiso   1.00
C84    C     0.08060   0.10650   0.99800   0.01267  Uiso   1.00
C85    C     0.57030   0.13640   0.98940   0.01267  Uiso   1.00
C86    C     0.15550   0.41130   0.95490   0.01267  Uiso   1.00
C87    C     0.27180   0.21780   0.98430   0.01267  Uiso   1.00
C88    C     0.11400   0.33600   0.99340   0.01267  Uiso   1.00
C89    C     0.28680   0.33790   0.93670   0.01267  Uiso   1.00
C90    C     0.31490   0.29250   0.94620   0.01267  Uiso   1.00
C91    C     0.39950   0.98370   0.29800   0.01267  Uiso   1.00
C92    C     0.32320   0.99290   0.37480   0.01267  Uiso   1.00
C93    C     0.19260   0.99460   0.35980   0.01267  Uiso   1.00
C94    C     0.16660   0.99020   0.31400   0.01267  Uiso   1.00
C95    C     0.42850   0.98950   0.34360   0.01267  Uiso   1.00
C96    C     0.14280   0.00130   0.20920   0.01267  Uiso   1.00
C97    C     0.18540   0.96110   0.14010   0.01267  Uiso   1.00
C98    C     0.24220   0.97530   0.23180   0.01267  Uiso   1.00
C99    C     0.08060   0.99800   0.39350   0.01267  Uiso   1.00
C100   C     0.57030   0.98940   0.36360   0.01267  Uiso   1.00
C101   C     0.15550   0.95490   0.08870   0.01267  Uiso   1.00
C102   C     0.27180   0.98430   0.28220   0.01267  Uiso   1.00
C103   C     0.11400   0.99340   0.16400   0.01267  Uiso   1.00
C104   C     0.28680   0.93670   0.16210   0.01267  Uiso   1.00
C105   C     0.31490   0.94620   0.20750   0.01267  Uiso   1.00
C106   C     0.39950   0.51630   0.20200   0.01267  Uiso   1.00
C107   C     0.32320   0.50710   0.12520   0.01267  Uiso   1.00
C108   C     0.19260   0.50540   0.14020   0.01267  Uiso   1.00
C109   C     0.16660   0.50980   0.18600   0.01267  Uiso   1.00
C110   C     0.42850   0.51050   0.15640   0.01267  Uiso   1.00
C111   C     0.14280   0.49870   0.29080   0.01267  Uiso   1.00
C112   C     0.18540   0.53890   0.35990   0.01267  Uiso   1.00
C113   C     0.24220   0.52470   0.26820   0.01267  Uiso   1.00
C114   C     0.08060   0.50200   0.10650   0.01267  Uiso   1.00
C115   C     0.57030   0.51060   0.13640   0.01267  Uiso   1.00
C116   C     0.15550   0.54510   0.41130   0.01267  Uiso   1.00
C117   C     0.27180   0.51570   0.21780   0.01267  Uiso   1.00
C118   C     0.11400   0.50660   0.33600   0.01267  Uiso   1.00
C119   C     0.28680   0.56330   0.33790   0.01267  Uiso   1.00
C120   C     0.31490   0.55380   0.29250   0.01267  Uiso   1.00
Cl1    Cl    0.81010   0.04630   0.46120   0.01267  Uiso   1.00
Cl2    Cl    0.81010   0.45370   0.03880   0.01267  Uiso   1.00
Cl3    Cl    0.81010   0.03880   0.04630   0.01267  Uiso   1.00
Cl4    Cl    0.81010   0.46120   0.45370   0.01267  Uiso   1.00
Cl5    Cl    0.18990   0.95370   0.53880   0.01267  Uiso   1.00
Cl6    Cl    0.18990   0.54630   0.96120   0.01267  Uiso   1.00
Cl7    Cl    0.18990   0.96120   0.95370   0.01267  Uiso   1.00
Cl8    Cl    0.18990   0.53880   0.54630   0.01267  Uiso   1.00
O1     O     0.91210   0.93023   0.48230   0.01267  Uiso   1.00
O2     O     0.03610   0.62310   0.49230   0.01267  Uiso   1.00
O3     O     0.40790   0.59620   0.49490   0.01267  Uiso   1.00
O4     O     0.89000   0.56640   0.50400   0.01267  Uiso   1.00
O5     O     0.79100   0.92679   0.41850   0.01267  Uiso   1.00
O6     O     0.33590   0.66530   0.48670   0.01267  Uiso   1.00
O7     O     0.91210   0.56977   0.01770   0.01267  Uiso   1.00
O8     O     0.03610   0.87690   0.00770   0.01267  Uiso   1.00
O9     O     0.40790   0.90380   0.00510   0.01267  Uiso   1.00
O10    O     0.89000   0.93360   0.99600   0.01267  Uiso   1.00
O11    O     0.79100   0.57321   0.08150   0.01267  Uiso   1.00
O12    O     0.33590   0.83470   0.01330   0.01267  Uiso   1.00
O13    O     0.91210   0.01770   0.93023   0.01267  Uiso   1.00
O14    O     0.03610   0.00770   0.62310   0.01267  Uiso   1.00
O15    O     0.40790   0.00510   0.59620   0.01267  Uiso   1.00
O16    O     0.89000   0.99600   0.56640   0.01267  Uiso   1.00
O17    O     0.79100   0.08150   0.92679   0.01267  Uiso   1.00
O18    O     0.33590   0.01330   0.66530   0.01267  Uiso   1.00
O19    O     0.91210   0.48230   0.56977   0.01267  Uiso   1.00
O20    O     0.03610   0.49230   0.87690   0.01267  Uiso   1.00
O21    O     0.40790   0.49490   0.90380   0.01267  Uiso   1.00
O22    O     0.89000   0.50400   0.93360   0.01267  Uiso   1.00
O23    O     0.79100   0.41850   0.57321   0.01267  Uiso   1.00
O24    O     0.33590   0.48670   0.83470   0.01267  Uiso   1.00
O25    O     0.08790   0.06977   0.51770   0.01267  Uiso   1.00
O26    O     0.96390   0.37690   0.50770   0.01267  Uiso   1.00
O27    O     0.59210   0.40380   0.50510   0.01267  Uiso   1.00
O28    O     0.11000   0.43360   0.49600   0.01267  Uiso   1.00
O29    O     0.20900   0.07321   0.58150   0.01267  Uiso   1.00
O30    O     0.66410   0.33470   0.51330   0.01267  Uiso   1.00
O31    O     0.08790   0.43023   0.98230   0.01267  Uiso   1.00
O32    O     0.96390   0.12310   0.99230   0.01267  Uiso   1.00
O33    O     0.59210   0.09620   0.99490   0.01267  Uiso   1.00
O34    O     0.11000   0.06640   0.00400   0.01267  Uiso   1.00
O35    O     0.20900   0.42679   0.91850   0.01267  Uiso   1.00
O36    O     0.66410   0.16530   0.98670   0.01267  Uiso   1.00
O37    O     0.08790   0.98230   0.06977   0.01267  Uiso   1.00
O38    O     0.96390   0.99230   0.37690   0.01267  Uiso   1.00
O39    O     0.59210   0.99490   0.40380   0.01267  Uiso   1.00
O40    O     0.11000   0.00400   0.43360   0.01267  Uiso   1.00
O41    O     0.20900   0.91850   0.07321   0.01267  Uiso   1.00
O42    O     0.66410   0.98670   0.33470   0.01267  Uiso   1.00
O43    O     0.08790   0.51770   0.43023   0.01267  Uiso   1.00
O44    O     0.96390   0.50770   0.12310   0.01267  Uiso   1.00
O45    O     0.59210   0.50510   0.09620   0.01267  Uiso   1.00
O46    O     0.11000   0.49600   0.06640   0.01267  Uiso   1.00
O47    O     0.20900   0.58150   0.42679   0.01267  Uiso   1.00
O48    O     0.66410   0.51330   0.16530   0.01267  Uiso   1.00
Cu9    Cu    0.64520   0.75000   0.75000   0.01267  Uiso   1.00
H57    H     0.81610   0.86800   0.61160   0.01267  Uiso   1.00
H58    H     0.62500   0.77470   0.57770   0.01267  Uiso   1.00
H59    H     0.47340   0.95040   0.50680   0.01267  Uiso   1.00
H60    H     0.60530   0.97660   0.51910   0.01267  Uiso   1.00
H61    H     0.60900   0.93630   0.48400   0.01267  Uiso   1.00
H62    H     0.63870   0.69230   0.58760   0.01267  Uiso   1.00
H63    H     0.42770   0.85320   0.62040   0.01267  Uiso   1.00
H64    H     0.79120   0.92010   0.55150   0.01267  Uiso   1.00
H65    H     0.39450   0.90090   0.55510   0.01267  Uiso   1.00
H66    H     0.81610   0.63200   0.88840   0.01267  Uiso   1.00
H67    H     0.62500   0.72530   0.92230   0.01267  Uiso   1.00
H68    H     0.47340   0.54960   0.99320   0.01267  Uiso   1.00
H69    H     0.60530   0.52340   0.98090   0.01267  Uiso   1.00
H70    H     0.60900   0.56370   0.01600   0.01267  Uiso   1.00
H71    H     0.63870   0.80770   0.91240   0.01267  Uiso   1.00
H72    H     0.42770   0.64680   0.87960   0.01267  Uiso   1.00
H73    H     0.79120   0.57990   0.94850   0.01267  Uiso   1.00
H74    H     0.39450   0.59910   0.94490   0.01267  Uiso   1.00
H75    H     0.81610   0.88840   0.86800   0.01267  Uiso   1.00
H76    H     0.62500   0.92230   0.77470   0.01267  Uiso   1.00
H77    H     0.47340   0.99320   0.95040   0.01267  Uiso   1.00
H78    H     0.60530   0.98090   0.97660   0.01267  Uiso   1.00
H79    H     0.60900   0.01600   0.93630   0.01267  Uiso   1.00
H80    H     0.63870   0.91240   0.69230   0.01267  Uiso   1.00
H81    H     0.42770   0.87960   0.85320   0.01267  Uiso   1.00
H82    H     0.79120   0.94850   0.92010   0.01267  Uiso   1.00
H83    H     0.39450   0.94490   0.90090   0.01267  Uiso   1.00
H84    H     0.81610   0.61160   0.63200   0.01267  Uiso   1.00
H85    H     0.62500   0.57770   0.72530   0.01267  Uiso   1.00
H86    H     0.47340   0.50680   0.54960   0.01267  Uiso   1.00
H87    H     0.60530   0.51910   0.52340   0.01267  Uiso   1.00
H88    H     0.60900   0.48400   0.56370   0.01267  Uiso   1.00
H89    H     0.63870   0.58760   0.80770   0.01267  Uiso   1.00
H90    H     0.42770   0.62040   0.64680   0.01267  Uiso   1.00
H91    H     0.79120   0.55150   0.57990   0.01267  Uiso   1.00
H92    H     0.39450   0.55510   0.59910   0.01267  Uiso   1.00
C121   C     0.73110   0.87510   0.60080   0.01267  Uiso   1.00
C122   C     0.62200   0.85520   0.62060   0.01267  Uiso   1.00
C123   C     0.63780   0.77630   0.65080   0.01267  Uiso   1.00
C124   C     0.63130   0.75850   0.60500   0.01267  Uiso   1.00
C125   C     0.63430   0.82200   0.65880   0.01267  Uiso   1.00
C126   C     0.56810   0.94740   0.51140   0.01267  Uiso   1.00
C127   C     0.63630   0.71390   0.61090   0.01267  Uiso   1.00
C128   C     0.63730   0.70370   0.65820   0.01267  Uiso   1.00
C129   C     0.50150   0.86560   0.60550   0.01267  Uiso   1.00
C130   C     0.71750   0.90590   0.56470   0.01267  Uiso   1.00
C131   C     0.47890   0.89510   0.56720   0.01267  Uiso   1.00
C132   C     0.73110   0.62490   0.89920   0.01267  Uiso   1.00
C133   C     0.62200   0.64480   0.87940   0.01267  Uiso   1.00
C134   C     0.63780   0.72370   0.84920   0.01267  Uiso   1.00
C135   C     0.63130   0.74150   0.89500   0.01267  Uiso   1.00
C136   C     0.63430   0.67800   0.84120   0.01267  Uiso   1.00
C137   C     0.56810   0.55260   0.98860   0.01267  Uiso   1.00
C138   C     0.63630   0.78610   0.88910   0.01267  Uiso   1.00
C139   C     0.63730   0.79630   0.84180   0.01267  Uiso   1.00
C140   C     0.50150   0.63440   0.89450   0.01267  Uiso   1.00
C141   C     0.71750   0.59410   0.93530   0.01267  Uiso   1.00
C142   C     0.47890   0.60490   0.93280   0.01267  Uiso   1.00
C143   C     0.73110   0.89920   0.87510   0.01267  Uiso   1.00
C144   C     0.62200   0.87940   0.85520   0.01267  Uiso   1.00
C145   C     0.63780   0.84920   0.77630   0.01267  Uiso   1.00
C146   C     0.63130   0.89500   0.75850   0.01267  Uiso   1.00
C147   C     0.63430   0.84120   0.82200   0.01267  Uiso   1.00
C148   C     0.56810   0.98860   0.94740   0.01267  Uiso   1.00
C149   C     0.63630   0.88910   0.71390   0.01267  Uiso   1.00
C150   C     0.63730   0.84180   0.70370   0.01267  Uiso   1.00
C151   C     0.50150   0.89450   0.86560   0.01267  Uiso   1.00
C152   C     0.71750   0.93530   0.90590   0.01267  Uiso   1.00
C153   C     0.47890   0.93280   0.89510   0.01267  Uiso   1.00
C154   C     0.73110   0.60080   0.62490   0.01267  Uiso   1.00
C155   C     0.62200   0.62060   0.64480   0.01267  Uiso   1.00
C156   C     0.63780   0.65080   0.72370   0.01267  Uiso   1.00
C157   C     0.63130   0.60500   0.74150   0.01267  Uiso   1.00
C158   C     0.63430   0.65880   0.67800   0.01267  Uiso   1.00
C159   C     0.56810   0.51140   0.55260   0.01267  Uiso   1.00
C160   C     0.63630   0.61090   0.78610   0.01267  Uiso   1.00
C161   C     0.63730   0.65820   0.79630   0.01267  Uiso   1.00
C162   C     0.50150   0.60550   0.63440   0.01267  Uiso   1.00
C163   C     0.71750   0.56470   0.59410   0.01267  Uiso   1.00
C164   C     0.47890   0.56720   0.60490   0.01267  Uiso   1.00
N1     N     0.64050   0.74300   0.68290   0.01267  Uiso   1.00
N2     N     0.59410   0.91390   0.55020   0.01267  Uiso   1.00
N3     N     0.64050   0.75700   0.81710   0.01267  Uiso   1.00
N4     N     0.59410   0.58610   0.94980   0.01267  Uiso   1.00
N5     N     0.64050   0.81710   0.74300   0.01267  Uiso   1.00
N6     N     0.59410   0.94980   0.91390   0.01267  Uiso   1.00
N7     N     0.64050   0.68290   0.75700   0.01267  Uiso   1.00
N8     N     0.59410   0.55020   0.58610   0.01267  Uiso   1.00
Cu10   Cu    0.35480   0.25000   0.25000   0.01267  Uiso   1.00
H93    H     0.18390   0.13200   0.38840   0.01267  Uiso   1.00
H94    H     0.37500   0.22530   0.42230   0.01267  Uiso   1.00
H95    H     0.52660   0.04960   0.49320   0.01267  Uiso   1.00
H96    H     0.39470   0.02340   0.48090   0.01267  Uiso   1.00
H97    H     0.39100   0.06370   0.51600   0.01267  Uiso   1.00
H98    H     0.36130   0.30770   0.41240   0.01267  Uiso   1.00
H99    H     0.57230   0.14680   0.37960   0.01267  Uiso   1.00
H100   H     0.20880   0.07990   0.44850   0.01267  Uiso   1.00
H101   H     0.60550   0.09910   0.44490   0.01267  Uiso   1.00
H102   H     0.18390   0.36800   0.11160   0.01267  Uiso   1.00
H103   H     0.37500   0.27470   0.07770   0.01267  Uiso   1.00
H104   H     0.52660   0.45040   0.00680   0.01267  Uiso   1.00
H105   H     0.39470   0.47660   0.01910   0.01267  Uiso   1.00
H106   H     0.39100   0.43630   0.98400   0.01267  Uiso   1.00
H107   H     0.36130   0.19230   0.08760   0.01267  Uiso   1.00
H108   H     0.57230   0.35320   0.12040   0.01267  Uiso   1.00
H109   H     0.20880   0.42010   0.05150   0.01267  Uiso   1.00
H110   H     0.60550   0.40090   0.05510   0.01267  Uiso   1.00
H111   H     0.18390   0.11160   0.13200   0.01267  Uiso   1.00
H112   H     0.37500   0.07770   0.22530   0.01267  Uiso   1.00
H113   H     0.52660   0.00680   0.04960   0.01267  Uiso   1.00
H114   H     0.39470   0.01910   0.02340   0.01267  Uiso   1.00
H115   H     0.39100   0.98400   0.06370   0.01267  Uiso   1.00
H116   H     0.36130   0.08760   0.30770   0.01267  Uiso   1.00
H117   H     0.57230   0.12040   0.14680   0.01267  Uiso   1.00
H118   H     0.20880   0.05150   0.07990   0.01267  Uiso   1.00
H119   H     0.60550   0.05510   0.09910   0.01267  Uiso   1.00
H120   H     0.18390   0.38840   0.36800   0.01267  Uiso   1.00
H121   H     0.37500   0.42230   0.27470   0.01267  Uiso   1.00
H122   H     0.52660   0.49320   0.45040   0.01267  Uiso   1.00
H123   H     0.39470   0.48090   0.47660   0.01267  Uiso   1.00
H124   H     0.39100   0.51600   0.43630   0.01267  Uiso   1.00
H125   H     0.36130   0.41240   0.19230   0.01267  Uiso   1.00
H126   H     0.57230   0.37960   0.35320   0.01267  Uiso   1.00
H127   H     0.20880   0.44850   0.42010   0.01267  Uiso   1.00
H128   H     0.60550   0.44490   0.40090   0.01267  Uiso   1.00
C165   C     0.26890   0.12490   0.39920   0.01267  Uiso   1.00
C166   C     0.37800   0.14480   0.37940   0.01267  Uiso   1.00
C167   C     0.36220   0.22370   0.34920   0.01267  Uiso   1.00
C168   C     0.36870   0.24150   0.39500   0.01267  Uiso   1.00
C169   C     0.36570   0.17800   0.34120   0.01267  Uiso   1.00
C170   C     0.43190   0.05260   0.48860   0.01267  Uiso   1.00
C171   C     0.36370   0.28610   0.38910   0.01267  Uiso   1.00
C172   C     0.36270   0.29630   0.34180   0.01267  Uiso   1.00
C173   C     0.49850   0.13440   0.39450   0.01267  Uiso   1.00
C174   C     0.28250   0.09410   0.43530   0.01267  Uiso   1.00
C175   C     0.52110   0.10490   0.43280   0.01267  Uiso   1.00
C176   C     0.26890   0.37510   0.10080   0.01267  Uiso   1.00
C177   C     0.37800   0.35520   0.12060   0.01267  Uiso   1.00
C178   C     0.36220   0.27630   0.15080   0.01267  Uiso   1.00
C179   C     0.36870   0.25850   0.10500   0.01267  Uiso   1.00
C180   C     0.36570   0.32200   0.15880   0.01267  Uiso   1.00
C181   C     0.43190   0.44740   0.01140   0.01267  Uiso   1.00
C182   C     0.36370   0.21390   0.11090   0.01267  Uiso   1.00
C183   C     0.36270   0.20370   0.15820   0.01267  Uiso   1.00
C184   C     0.49850   0.36560   0.10550   0.01267  Uiso   1.00
C185   C     0.28250   0.40590   0.06470   0.01267  Uiso   1.00
C186   C     0.52110   0.39510   0.06720   0.01267  Uiso   1.00
C187   C     0.26890   0.10080   0.12490   0.01267  Uiso   1.00
C188   C     0.37800   0.12060   0.14480   0.01267  Uiso   1.00
C189   C     0.36220   0.15080   0.22370   0.01267  Uiso   1.00
C190   C     0.36870   0.10500   0.24150   0.01267  Uiso   1.00
C191   C     0.36570   0.15880   0.17800   0.01267  Uiso   1.00
C192   C     0.43190   0.01140   0.05260   0.01267  Uiso   1.00
C193   C     0.36370   0.11090   0.28610   0.01267  Uiso   1.00
C194   C     0.36270   0.15820   0.29630   0.01267  Uiso   1.00
C195   C     0.49850   0.10550   0.13440   0.01267  Uiso   1.00
C196   C     0.28250   0.06470   0.09410   0.01267  Uiso   1.00
C197   C     0.52110   0.06720   0.10490   0.01267  Uiso   1.00
C198   C     0.26890   0.39920   0.37510   0.01267  Uiso   1.00
C199   C     0.37800   0.37940   0.35520   0.01267  Uiso   1.00
C200   C     0.36220   0.34920   0.27630   0.01267  Uiso   1.00
C201   C     0.36870   0.39500   0.25850   0.01267  Uiso   1.00
C202   C     0.36570   0.34120   0.32200   0.01267  Uiso   1.00
C203   C     0.43190   0.48860   0.44740   0.01267  Uiso   1.00
C204   C     0.36370   0.38910   0.21390   0.01267  Uiso   1.00
C205   C     0.36270   0.34180   0.20370   0.01267  Uiso   1.00
C206   C     0.49850   0.39450   0.36560   0.01267  Uiso   1.00
C207   C     0.28250   0.43530   0.40590   0.01267  Uiso   1.00
C208   C     0.52110   0.43280   0.39510   0.01267  Uiso   1.00
N9     N     0.35950   0.25700   0.31710   0.01267  Uiso   1.00
N10    N     0.40590   0.08610   0.44980   0.01267  Uiso   1.00
N11    N     0.35950   0.24300   0.18290   0.01267  Uiso   1.00
N12    N     0.40590   0.41390   0.05020   0.01267  Uiso   1.00
N13    N     0.35950   0.18290   0.25700   0.01267  Uiso   1.00
N14    N     0.40590   0.05020   0.08610   0.01267  Uiso   1.00
N15    N     0.35950   0.31710   0.24300   0.01267  Uiso   1.00
N16    N     0.40590   0.44980   0.41390   0.01267  Uiso   1.00
