data_DAPYAW_clean
_audit_creation_date              2014-07-02
_audit_creation_method            'Materials Studio'
_symmetry_space_group_name_H-M    'P1'
_symmetry_Int_Tables_number       1
_symmetry_cell_setting            triclinic
loop_
_symmetry_equiv_pos_as_xyz
  x,y,z
_cell_length_a                    17.0200
_cell_length_b                    19.8466
_cell_length_c                    25.0720
_cell_angle_alpha                 75.5511
_cell_angle_beta                  70.1582
_cell_angle_gamma                 64.6093
loop_
_atom_site_label
_atom_site_type_symbol
_atom_site_fract_x
_atom_site_fract_y
_atom_site_fract_z
_atom_site_U_iso_or_equiv
_atom_site_adp_type
_atom_site_occupancy
Cd1    Cd    0.43660   0.17721   0.54793   0.01267  Uiso   1.00
Cd2    Cd    0.34040   0.33475   0.62953   0.01267  Uiso   1.00
Cd3    Cd    0.16174   0.32279   0.95207   0.01267  Uiso   1.00
Cd4    Cd    0.30468   0.16525   0.87047   0.01267  Uiso   1.00
Cd5    Cd    0.56340   0.82279   0.45207   0.01267  Uiso   1.00
Cd6    Cd    0.65960   0.66525   0.37047   0.01267  Uiso   1.00
Cd7    Cd    0.83826   0.67721   0.04793   0.01267  Uiso   1.00
Cd8    Cd    0.69532   0.83475   0.12953   0.01267  Uiso   1.00
Cd9    Cd    0.50000   0.00000   0.50000   0.01267  Uiso   1.00
Cd10   Cd    0.00000   0.50000  -0.00000   0.01267  Uiso   1.00
H1     H     0.95740   0.12020   0.46720   0.01267  Uiso   1.00
H2     H     0.11520   0.13520   0.30680   0.01267  Uiso   1.00
H3     H     0.84680   0.24950   0.34090   0.01267  Uiso   1.00
H4     H     0.83590   0.21560   0.51780   0.01267  Uiso   1.00
H5     H     0.69460   0.24510   0.58370   0.01267  Uiso   1.00
H6     H     0.58870   0.23940   0.46500   0.01267  Uiso   1.00
H7     H     0.72740   0.20990   0.40090   0.01267  Uiso   1.00
H8     H     0.18340   0.99400   0.35260   0.01267  Uiso   1.00
H9     H     0.31410   0.92030   0.38010   0.01267  Uiso   1.00
H10    H     0.24660   0.05520   0.49520   0.01267  Uiso   1.00
H11    H     0.11040   0.12850   0.47270   0.01267  Uiso   1.00
H12    H     0.09530   0.14110   0.21710   0.01267  Uiso   1.00
H13    H     0.12240   0.19970   0.12490   0.01267  Uiso   1.00
H14    H     0.92510   0.39230   0.17350   0.01267  Uiso   1.00
H15    H     0.90020   0.33580   0.26720   0.01267  Uiso   1.00
H16    H     0.17290   0.68760   0.84540   0.01267  Uiso   1.00
H17    H     0.32990   0.76170   0.70610   0.01267  Uiso   1.00
H18    H     0.15410   0.89940   0.82180   0.01267  Uiso   1.00
H19    H     0.00550   0.91530   0.87350   0.01267  Uiso   1.00
H20    H     0.88490   0.93070   0.95490   0.01267  Uiso   1.00
H21    H     0.01050   0.71890   0.02010   0.01267  Uiso   1.00
H22    H     0.12920   0.70390   0.93850   0.01267  Uiso   1.00
H23    H     0.26440   0.57680   0.82340   0.01267  Uiso   1.00
H24    H     0.29520   0.46780   0.78880   0.01267  Uiso   1.00
H25    H     0.35460   0.56860   0.62900   0.01267  Uiso   1.00
H26    H     0.32410   0.67700   0.66280   0.01267  Uiso   1.00
H27    H     0.26970   0.94960   0.78680   0.01267  Uiso   1.00
H28    H     0.32040   0.04190   0.73130   0.01267  Uiso   1.00
H29    H     0.33220   0.97250   0.59130   0.01267  Uiso   1.00
H30    H     0.28860   0.87680   0.64600   0.01267  Uiso   1.00
H31    H     0.54480   0.37980   0.03280   0.01267  Uiso   1.00
H32    H     0.55720   0.36480   0.19320   0.01267  Uiso   1.00
H33    H     0.43720   0.25050   0.15910   0.01267  Uiso   1.00
H34    H     0.56930   0.28440   0.98220   0.01267  Uiso   1.00
H35    H     0.52340   0.25490   0.91630   0.01267  Uiso   1.00
H36    H     0.29310   0.26060   0.03500   0.01267  Uiso   1.00
H37    H     0.33820   0.29010   0.09910   0.01267  Uiso   1.00
H38    H     0.53000   0.50600   0.14740   0.01267  Uiso   1.00
H39    H     0.61450   0.57970   0.11990   0.01267  Uiso   1.00
H40    H     0.79700   0.44480   0.00480   0.01267  Uiso   1.00
H41    H     0.71160   0.37150   0.02730   0.01267  Uiso   1.00
H42    H     0.45350   0.35890   0.28290   0.01267  Uiso   1.00
H43    H     0.44700   0.30030   0.37510   0.01267  Uiso   1.00
H44    H     0.49090   0.10770   0.32650   0.01267  Uiso   1.00
H45    H     0.50320   0.16420   0.23280   0.01267  Uiso   1.00
H46    H     0.70590   0.81240   0.65460   0.01267  Uiso   1.00
H47    H     0.79770   0.73830   0.79390   0.01267  Uiso   1.00
H48    H     0.87530   0.60060   0.67820   0.01267  Uiso   1.00
H49    H     0.79430   0.58470   0.62650   0.01267  Uiso   1.00
H50    H     0.77050   0.56930   0.54510   0.01267  Uiso   1.00
H51    H     0.74950   0.78110   0.47990   0.01267  Uiso   1.00
H52    H     0.77160   0.79610   0.56150   0.01267  Uiso   1.00
H53    H     0.66460   0.92320   0.67660   0.01267  Uiso   1.00
H54    H     0.55180   0.03220   0.71120   0.01267  Uiso   1.00
H55    H     0.55220   0.93140   0.87100   0.01267  Uiso   1.00
H56    H     0.66390   0.82300   0.83720   0.01267  Uiso   1.00
H57    H     0.00610   0.55040   0.71320   0.01267  Uiso   1.00
H58    H     0.09360   0.45810   0.76870   0.01267  Uiso   1.00
H59    H     0.89600   0.52750   0.90870   0.01267  Uiso   1.00
H60    H     0.81140   0.62320   0.85400   0.01267  Uiso   1.00
H61    H     0.04260   0.87980   0.53280   0.01267  Uiso   1.00
H62    H     0.88480   0.86480   0.69320   0.01267  Uiso   1.00
H63    H     0.15320   0.75050   0.65910   0.01267  Uiso   1.00
H64    H     0.16410   0.78440   0.48220   0.01267  Uiso   1.00
H65    H     0.30540   0.75490   0.41630   0.01267  Uiso   1.00
H66    H     0.41130   0.76060   0.53500   0.01267  Uiso   1.00
H67    H     0.27260   0.79010   0.59910   0.01267  Uiso   1.00
H68    H     0.81660   0.00600   0.64740   0.01267  Uiso   1.00
H69    H     0.68590   0.07970   0.61990   0.01267  Uiso   1.00
H70    H     0.75340   0.94480   0.50480   0.01267  Uiso   1.00
H71    H     0.88960   0.87150   0.52730   0.01267  Uiso   1.00
H72    H     0.90470   0.85890   0.78290   0.01267  Uiso   1.00
H73    H     0.87760   0.80030   0.87510   0.01267  Uiso   1.00
H74    H     0.07490   0.60770   0.82650   0.01267  Uiso   1.00
H75    H     0.09980   0.66420   0.73280   0.01267  Uiso   1.00
H76    H     0.82710   0.31240   0.15460   0.01267  Uiso   1.00
H77    H     0.67010   0.23830   0.29390   0.01267  Uiso   1.00
H78    H     0.84590   0.10060   0.17820   0.01267  Uiso   1.00
H79    H     0.99450   0.08470   0.12650   0.01267  Uiso   1.00
H80    H     0.11510   0.06930   0.04510   0.01267  Uiso   1.00
H81    H     0.98950   0.28110   0.97990   0.01267  Uiso   1.00
H82    H     0.87080   0.29610   0.06150   0.01267  Uiso   1.00
H83    H     0.73560   0.42320   0.17660   0.01267  Uiso   1.00
H84    H     0.70480   0.53220   0.21120   0.01267  Uiso   1.00
H85    H     0.64540   0.43140   0.37100   0.01267  Uiso   1.00
H86    H     0.67590   0.32300   0.33720   0.01267  Uiso   1.00
H87    H     0.73030   0.05040   0.21320   0.01267  Uiso   1.00
H88    H     0.67960   0.95810   0.26870   0.01267  Uiso   1.00
H89    H     0.66780   0.02750   0.40870   0.01267  Uiso   1.00
H90    H     0.71140   0.12320   0.35400   0.01267  Uiso   1.00
H91    H     0.45520   0.62020   0.96720   0.01267  Uiso   1.00
H92    H     0.44280   0.63520   0.80680   0.01267  Uiso   1.00
H93    H     0.56280   0.74950   0.84090   0.01267  Uiso   1.00
H94    H     0.43070   0.71560   0.01780   0.01267  Uiso   1.00
H95    H     0.47660   0.74510   0.08370   0.01267  Uiso   1.00
H96    H     0.70690   0.73940   0.96500   0.01267  Uiso   1.00
H97    H     0.66180   0.70990   0.90090   0.01267  Uiso   1.00
H98    H     0.47000   0.49400   0.85260   0.01267  Uiso   1.00
H99    H     0.38550   0.42030   0.88010   0.01267  Uiso   1.00
H100   H     0.20300   0.55520   0.99520   0.01267  Uiso   1.00
H101   H     0.28840   0.62850   0.97270   0.01267  Uiso   1.00
H102   H     0.54650   0.64110   0.71710   0.01267  Uiso   1.00
H103   H     0.55300   0.69970   0.62490   0.01267  Uiso   1.00
H104   H     0.50910   0.89230   0.67350   0.01267  Uiso   1.00
H105   H     0.49680   0.83580   0.76720   0.01267  Uiso   1.00
H106   H     0.29410   0.18760   0.34540   0.01267  Uiso   1.00
H107   H     0.20230   0.26170   0.20610   0.01267  Uiso   1.00
H108   H     0.12470   0.39940   0.32180   0.01267  Uiso   1.00
H109   H     0.20570   0.41530   0.37350   0.01267  Uiso   1.00
H110   H     0.22950   0.43070   0.45490   0.01267  Uiso   1.00
H111   H     0.25050   0.21890   0.52010   0.01267  Uiso   1.00
H112   H     0.22840   0.20390   0.43850   0.01267  Uiso   1.00
H113   H     0.33540   0.07680   0.32340   0.01267  Uiso   1.00
H114   H     0.44820   0.96780   0.28880   0.01267  Uiso   1.00
H115   H     0.44780   0.06860   0.12900   0.01267  Uiso   1.00
H116   H     0.33610   0.17700   0.16280   0.01267  Uiso   1.00
H117   H     0.99390   0.44960   0.28680   0.01267  Uiso   1.00
H118   H     0.90640   0.54190   0.23130   0.01267  Uiso   1.00
H119   H     0.10400   0.47250   0.09130   0.01267  Uiso   1.00
H120   H     0.18860   0.37680   0.14600   0.01267  Uiso   1.00
C1     C     0.88820   0.18730   0.41070   0.01267  Uiso   1.00
C2     C     0.96370   0.13920   0.42880   0.01267  Uiso   1.00
C3     C     0.05100   0.11800   0.39020   0.01267  Uiso   1.00
C4     C     0.05860   0.14830   0.33290   0.01267  Uiso   1.00
C5     C     0.98370   0.19770   0.31390   0.01267  Uiso   1.00
C6     C     0.89760   0.21690   0.35330   0.01267  Uiso   1.00
C7     C     0.79780   0.20700   0.45240   0.01267  Uiso   1.00
C8     C     0.78650   0.21970   0.50730   0.01267  Uiso   1.00
C9     C     0.70120   0.23870   0.54670   0.01267  Uiso   1.00
C10    C     0.62590   0.24760   0.53000   0.01267  Uiso   1.00
C11    C     0.63780   0.23530   0.47590   0.01267  Uiso   1.00
C12    C     0.72150   0.21650   0.43770   0.01267  Uiso   1.00
C13    C     0.13170   0.06950   0.40950   0.01267  Uiso   1.00
C14    C     0.19490   0.00670   0.38170   0.01267  Uiso   1.00
C15    C     0.27440   0.96320   0.39740   0.01267  Uiso   1.00
C16    C     0.29500   0.98300   0.43800   0.01267  Uiso   1.00
C17    C     0.23340   0.04340   0.46640   0.01267  Uiso   1.00
C18    C     0.15140   0.08770   0.45310   0.01267  Uiso   1.00
C19    C     0.99520   0.23330   0.25330   0.01267  Uiso   1.00
C20    C     0.06190   0.19200   0.20900   0.01267  Uiso   1.00
C21    C     0.07740   0.22730   0.15350   0.01267  Uiso   1.00
C22    C     0.02860   0.30140   0.13960   0.01267  Uiso   1.00
C23    C     0.96040   0.34220   0.18240   0.01267  Uiso   1.00
C24    C     0.94510   0.30780   0.23880   0.01267  Uiso   1.00
C25    C     0.53560   0.27050   0.57230   0.01267  Uiso   1.00
C26    C     0.38500   0.94140   0.45180   0.01267  Uiso   1.00
C27    C     0.04800   0.33850   0.07810   0.01267  Uiso   1.00
C28    C     0.15300   0.79480   0.84380   0.01267  Uiso   1.00
C29    C     0.19120   0.72630   0.82350   0.01267  Uiso   1.00
C30    C     0.25650   0.71230   0.77130   0.01267  Uiso   1.00
C31    C     0.28540   0.77000   0.74040   0.01267  Uiso   1.00
C32    C     0.24880   0.83990   0.75990   0.01267  Uiso   1.00
C33    C     0.18160   0.85180   0.81000   0.01267  Uiso   1.00
C34    C     0.07910   0.80760   0.89820   0.01267  Uiso   1.00
C35    C     0.00590   0.87600   0.90280   0.01267  Uiso   1.00
C36    C     0.93370   0.88500   0.95140   0.01267  Uiso   1.00
C37    C     0.93461   0.82518   0.99500   0.01267  Uiso   1.00
C38    C     0.00870   0.75820   0.99040   0.01267  Uiso   1.00
C39    C     0.08009   0.74942   0.94180   0.01267  Uiso   1.00
C40    C     0.28950   0.63850   0.74910   0.01267  Uiso   1.00
C41    C     0.28240   0.57570   0.78410   0.01267  Uiso   1.00
C42    C     0.30080   0.50980   0.76380   0.01267  Uiso   1.00
C43    C     0.32820   0.50850   0.70410   0.01267  Uiso   1.00
C44    C     0.33620   0.57030   0.66830   0.01267  Uiso   1.00
C45    C     0.31810   0.63530   0.68830   0.01267  Uiso   1.00
C46    C     0.27630   0.90240   0.72400   0.01267  Uiso   1.00
C47    C     0.28420   0.95280   0.74720   0.01267  Uiso   1.00
C48    C     0.31320   0.00910   0.71410   0.01267  Uiso   1.00
C49    C     0.33160   0.01700   0.65440   0.01267  Uiso   1.00
C50    C     0.32110   0.96730   0.63070   0.01267  Uiso   1.00
C51    C     0.29460   0.91020   0.66320   0.01267  Uiso   1.00
C52    C     0.85100   0.83280   0.04380   0.01267  Uiso   1.00
C53    C     0.34220   0.43910   0.68050   0.01267  Uiso   1.00
C54    C     0.36370   0.07570   0.61890   0.01267  Uiso   1.00
C55    C     0.48620   0.31270   0.08930   0.01267  Uiso   1.00
C56    C     0.53170   0.36080   0.07120   0.01267  Uiso   1.00
C57    C     0.55920   0.38200   0.10980   0.01267  Uiso   1.00
C58    C     0.53980   0.35170   0.16710   0.01267  Uiso   1.00
C59    C     0.49530   0.30230   0.18610   0.01267  Uiso   1.00
C60    C     0.46780   0.28310   0.14670   0.01267  Uiso   1.00
C61    C     0.45720   0.29300   0.04760   0.01267  Uiso   1.00
C62    C     0.51350   0.28030   0.99270   0.01267  Uiso   1.00
C63    C     0.48660   0.26130   0.95330   0.01267  Uiso   1.00
C64    C     0.40350   0.25240   0.97000   0.01267  Uiso   1.00
C65    C     0.34900   0.26470   0.02410   0.01267  Uiso   1.00
C66    C     0.37570   0.28350   0.06230   0.01267  Uiso   1.00
C67    C     0.61070   0.43050   0.09050   0.01267  Uiso   1.00
C68    C     0.58330   0.49330   0.11830   0.01267  Uiso   1.00
C69    C     0.63500   0.53680   0.10260   0.01267  Uiso   1.00
C70    C     0.71600   0.51700   0.06200   0.01267  Uiso   1.00
C71    C     0.74320   0.45660   0.03360   0.01267  Uiso   1.00
C72    C     0.69220   0.41230   0.04690   0.01267  Uiso   1.00
C73    C     0.48180   0.26670   0.24670   0.01267  Uiso   1.00
C74    C     0.46290   0.30800   0.29100   0.01267  Uiso   1.00
C75    C     0.45820   0.27270   0.34650   0.01267  Uiso   1.00
C76    C     0.46960   0.19860   0.36040   0.01267  Uiso   1.00
C77    C     0.48500   0.15780   0.31760   0.01267  Uiso   1.00
C78    C     0.49170   0.19220   0.26120   0.01267  Uiso   1.00
C79    C     0.37840   0.22950   0.92770   0.01267  Uiso   1.00
C80    C     0.77820   0.55860   0.04820   0.01267  Uiso   1.00
C81    C     0.46460   0.16150   0.42190   0.01267  Uiso   1.00
C82    C     0.79160   0.70520   0.65620   0.01267  Uiso   1.00
C83    C     0.74100   0.77370   0.67650   0.01267  Uiso   1.00
C84    C     0.74010   0.78770   0.72870   0.01267  Uiso   1.00
C85    C     0.79580   0.73000   0.75960   0.01267  Uiso   1.00
C86    C     0.84860   0.66010   0.74010   0.01267  Uiso   1.00
C87    C     0.84340   0.64820   0.69000   0.01267  Uiso   1.00
C88    C     0.78490   0.69240   0.60180   0.01267  Uiso   1.00
C89    C     0.78470   0.62400   0.59720   0.01267  Uiso   1.00
C90    C     0.77010   0.61500   0.54860   0.01267  Uiso   1.00
C91    C     0.75479   0.67482   0.50500   0.01267  Uiso   1.00
C92    C     0.75730   0.74180   0.50960   0.01267  Uiso   1.00
C93    C     0.77131   0.75058   0.55820   0.01267  Uiso   1.00
C94    C     0.67710   0.86150   0.75090   0.01267  Uiso   1.00
C95    C     0.64220   0.92430   0.71590   0.01267  Uiso   1.00
C96    C     0.57440   0.99020   0.73620   0.01267  Uiso   1.00
C97    C     0.54080   0.99150   0.79590   0.01267  Uiso   1.00
C98    C     0.57480   0.92970   0.83170   0.01267  Uiso   1.00
C99    C     0.64170   0.86470   0.81170   0.01267  Uiso   1.00
C100   C     0.90270   0.59760   0.77600   0.01267  Uiso   1.00
C101   C     0.98420   0.54720   0.75280   0.01267  Uiso   1.00
C102   C     0.03640   0.49090   0.78590   0.01267  Uiso   1.00
C103   C     0.00300   0.48300   0.84560   0.01267  Uiso   1.00
C104   C     0.91910   0.53270   0.86930   0.01267  Uiso   1.00
C105   C     0.86800   0.58980   0.83680   0.01267  Uiso   1.00
C106   C     0.72760   0.66720   0.45620   0.01267  Uiso   1.00
C107   C     0.46180   0.06090   0.81950   0.01267  Uiso   1.00
C108   C     0.05830   0.42430   0.88110   0.01267  Uiso   1.00
C109   C     0.11180   0.81270   0.58930   0.01267  Uiso   1.00
C110   C     0.03630   0.86080   0.57120   0.01267  Uiso   1.00
C111   C     0.94900   0.88200   0.60980   0.01267  Uiso   1.00
C112   C     0.94140   0.85170   0.66710   0.01267  Uiso   1.00
C113   C     0.01630   0.80230   0.68610   0.01267  Uiso   1.00
C114   C     0.10240   0.78310   0.64670   0.01267  Uiso   1.00
C115   C     0.20220   0.79300   0.54760   0.01267  Uiso   1.00
C116   C     0.21350   0.78030   0.49270   0.01267  Uiso   1.00
C117   C     0.29880   0.76130   0.45330   0.01267  Uiso   1.00
C118   C     0.37410   0.75240   0.47000   0.01267  Uiso   1.00
C119   C     0.36220   0.76470   0.52410   0.01267  Uiso   1.00
C120   C     0.27850   0.78350   0.56230   0.01267  Uiso   1.00
C121   C     0.86830   0.93050   0.59050   0.01267  Uiso   1.00
C122   C     0.80510   0.99330   0.61830   0.01267  Uiso   1.00
C123   C     0.72560   0.03680   0.60260   0.01267  Uiso   1.00
C124   C     0.70500   0.01700   0.56200   0.01267  Uiso   1.00
C125   C     0.76660   0.95660   0.53360   0.01267  Uiso   1.00
C126   C     0.84860   0.91230   0.54690   0.01267  Uiso   1.00
C127   C     0.00480   0.76670   0.74670   0.01267  Uiso   1.00
C128   C     0.93810   0.80800   0.79100   0.01267  Uiso   1.00
C129   C     0.92260   0.77270   0.84650   0.01267  Uiso   1.00
C130   C     0.97140   0.69860   0.86040   0.01267  Uiso   1.00
C131   C     0.03960   0.65780   0.81760   0.01267  Uiso   1.00
C132   C     0.05490   0.69220   0.76120   0.01267  Uiso   1.00
C133   C     0.46440   0.72950   0.42770   0.01267  Uiso   1.00
C134   C     0.61500   0.05860   0.54820   0.01267  Uiso   1.00
C135   C     0.95200   0.66150   0.92190   0.01267  Uiso   1.00
C136   C     0.84700   0.20520   0.15620   0.01267  Uiso   1.00
C137   C     0.80880   0.27370   0.17650   0.01267  Uiso   1.00
C138   C     0.74350   0.28770   0.22870   0.01267  Uiso   1.00
C139   C     0.71460   0.23000   0.25960   0.01267  Uiso   1.00
C140   C     0.75120   0.16010   0.24010   0.01267  Uiso   1.00
C141   C     0.81840   0.14820   0.19000   0.01267  Uiso   1.00
C142   C     0.92090   0.19240   0.10180   0.01267  Uiso   1.00
C143   C     0.99410   0.12400   0.09720   0.01267  Uiso   1.00
C144   C     0.06630   0.11500   0.04860   0.01267  Uiso   1.00
C145   C     0.06539   0.17482   0.00500   0.01267  Uiso   1.00
C146   C     0.99130   0.24180   0.00960   0.01267  Uiso   1.00
C147   C     0.91991   0.25058   0.05820   0.01267  Uiso   1.00
C148   C     0.71050   0.36150   0.25090   0.01267  Uiso   1.00
C149   C     0.71760   0.42430   0.21590   0.01267  Uiso   1.00
C150   C     0.69920   0.49020   0.23620   0.01267  Uiso   1.00
C151   C     0.67180   0.49150   0.29590   0.01267  Uiso   1.00
C152   C     0.66380   0.42970   0.33170   0.01267  Uiso   1.00
C153   C     0.68190   0.36470   0.31170   0.01267  Uiso   1.00
C154   C     0.72370   0.09760   0.27600   0.01267  Uiso   1.00
C155   C     0.71580   0.04720   0.25280   0.01267  Uiso   1.00
C156   C     0.68680   0.99090   0.28590   0.01267  Uiso   1.00
C157   C     0.66840   0.98300   0.34560   0.01267  Uiso   1.00
C158   C     0.67890   0.03270   0.36930   0.01267  Uiso   1.00
C159   C     0.70540   0.08980   0.33680   0.01267  Uiso   1.00
C160   C     0.14900   0.16720   0.95620   0.01267  Uiso   1.00
C161   C     0.65780   0.56090   0.31950   0.01267  Uiso   1.00
C162   C     0.63630   0.92430   0.38110   0.01267  Uiso   1.00
C163   C     0.51380   0.68730   0.91070   0.01267  Uiso   1.00
C164   C     0.46830   0.63920   0.92880   0.01267  Uiso   1.00
C165   C     0.44080   0.61800   0.89020   0.01267  Uiso   1.00
C166   C     0.46020   0.64830   0.83290   0.01267  Uiso   1.00
C167   C     0.50470   0.69770   0.81390   0.01267  Uiso   1.00
C168   C     0.53220   0.71690   0.85330   0.01267  Uiso   1.00
C169   C     0.54280   0.70700   0.95240   0.01267  Uiso   1.00
C170   C     0.48650   0.71970   0.00730   0.01267  Uiso   1.00
C171   C     0.51340   0.73870   0.04670   0.01267  Uiso   1.00
C172   C     0.59650   0.74760   0.03000   0.01267  Uiso   1.00
C173   C     0.65100   0.73530   0.97590   0.01267  Uiso   1.00
C174   C     0.62430   0.71650   0.93770   0.01267  Uiso   1.00
C175   C     0.38930   0.56950   0.90950   0.01267  Uiso   1.00
C176   C     0.41670   0.50670   0.88170   0.01267  Uiso   1.00
C177   C     0.36500   0.46320   0.89740   0.01267  Uiso   1.00
C178   C     0.28400   0.48300   0.93800   0.01267  Uiso   1.00
C179   C     0.25680   0.54340   0.96640   0.01267  Uiso   1.00
C180   C     0.30780   0.58770   0.95310   0.01267  Uiso   1.00
C181   C     0.51820   0.73330   0.75330   0.01267  Uiso   1.00
C182   C     0.53710   0.69200   0.70900   0.01267  Uiso   1.00
C183   C     0.54180   0.72730   0.65350   0.01267  Uiso   1.00
C184   C     0.53040   0.80140   0.63960   0.01267  Uiso   1.00
C185   C     0.51500   0.84220   0.68240   0.01267  Uiso   1.00
C186   C     0.50830   0.80780   0.73880   0.01267  Uiso   1.00
C187   C     0.62160   0.77050   0.07230   0.01267  Uiso   1.00
C188   C     0.22180   0.44140   0.95180   0.01267  Uiso   1.00
C189   C     0.53540   0.83850   0.57810   0.01267  Uiso   1.00
C190   C     0.20840   0.29480   0.34380   0.01267  Uiso   1.00
C191   C     0.25900   0.22630   0.32350   0.01267  Uiso   1.00
C192   C     0.25990   0.21230   0.27130   0.01267  Uiso   1.00
C193   C     0.20420   0.27000   0.24040   0.01267  Uiso   1.00
C194   C     0.15140   0.33990   0.25990   0.01267  Uiso   1.00
C195   C     0.15660   0.35180   0.31000   0.01267  Uiso   1.00
C196   C     0.21510   0.30760   0.39820   0.01267  Uiso   1.00
C197   C     0.21530   0.37600   0.40280   0.01267  Uiso   1.00
C198   C     0.22990   0.38500   0.45140   0.01267  Uiso   1.00
C199   C     0.24521   0.32518   0.49500   0.01267  Uiso   1.00
C200   C     0.24270   0.25820   0.49040   0.01267  Uiso   1.00
C201   C     0.22869   0.24942   0.44180   0.01267  Uiso   1.00
C202   C     0.32290   0.13850   0.24910   0.01267  Uiso   1.00
C203   C     0.35780   0.07570   0.28410   0.01267  Uiso   1.00
C204   C     0.42560   0.00980   0.26380   0.01267  Uiso   1.00
C205   C     0.45920   0.00850   0.20410   0.01267  Uiso   1.00
C206   C     0.42520   0.07030   0.16830   0.01267  Uiso   1.00
C207   C     0.35830   0.13530   0.18830   0.01267  Uiso   1.00
C208   C     0.09730   0.40240   0.22400   0.01267  Uiso   1.00
C209   C     0.01580   0.45280   0.24720   0.01267  Uiso   1.00
C210   C     0.96360   0.50910   0.21410   0.01267  Uiso   1.00
C211   C     0.99700   0.51700   0.15440   0.01267  Uiso   1.00
C212   C     0.08090   0.46730   0.13070   0.01267  Uiso   1.00
C213   C     0.13200   0.41020   0.16320   0.01267  Uiso   1.00
C214   C     0.27240   0.33280   0.54380   0.01267  Uiso   1.00
C215   C     0.53820   0.93910   0.18050   0.01267  Uiso   1.00
C216   C     0.94170   0.57570   0.11890   0.01267  Uiso   1.00
O1     O     0.46779   0.27842   0.55800   0.01267  Uiso   1.00
O2     O     0.52650   0.28390   0.61970   0.01267  Uiso   1.00
O3     O     0.44094   0.88752   0.42280   0.01267  Uiso   1.00
O4     O     0.40052   0.96036   0.49060   0.01267  Uiso   1.00
O5     O     0.11749   0.29953   0.04489   0.01267  Uiso   1.00
O6     O     0.99251   0.40310   0.06748   0.01267  Uiso   1.00
O7     O     0.78641   0.89408   0.05130   0.01267  Uiso   1.00
O8     O     0.84995   0.77156   0.07774   0.01267  Uiso   1.00
O9     O     0.35400   0.37630   0.71290   0.01267  Uiso   1.00
O10    O     0.34170   0.44840   0.62940   0.01267  Uiso   1.00
O11    O     0.36600   0.12410   0.64130   0.01267  Uiso   1.00
O12    O     0.38739   0.07873   0.56429   0.01267  Uiso   1.00
O13    O     0.30421   0.22158   0.94200   0.01267  Uiso   1.00
O14    O     0.43010   0.21610   0.88030   0.01267  Uiso   1.00
O15    O     0.75126   0.61248   0.07720   0.01267  Uiso   1.00
O16    O     0.85148   0.53964   0.00940   0.01267  Uiso   1.00
O17    O     0.46191   0.20047   0.45511   0.01267  Uiso   1.00
O18    O     0.46309   0.09690   0.43252   0.01267  Uiso   1.00
O19    O     0.73179   0.60592   0.44870   0.01267  Uiso   1.00
O20    O     0.69925   0.72844   0.42226   0.01267  Uiso   1.00
O21    O     0.44320   0.12370   0.78710   0.01267  Uiso   1.00
O22    O     0.41950   0.05160   0.87060   0.01267  Uiso   1.00
O23    O     0.13140   0.37590   0.85870   0.01267  Uiso   1.00
O24    O     0.03041   0.42127   0.93571   0.01267  Uiso   1.00
O25    O     0.53221   0.72158   0.44200   0.01267  Uiso   1.00
O26    O     0.47350   0.71610   0.38030   0.01267  Uiso   1.00
O27    O     0.55906   0.11248   0.57720   0.01267  Uiso   1.00
O28    O     0.59948   0.03964   0.50940   0.01267  Uiso   1.00
O29    O     0.88251   0.70047   0.95511   0.01267  Uiso   1.00
O30    O     0.00749   0.59690   0.93252   0.01267  Uiso   1.00
O31    O     0.21359   0.10592   0.94870   0.01267  Uiso   1.00
O32    O     0.15005   0.22844   0.92226   0.01267  Uiso   1.00
O33    O     0.64600   0.62370   0.28710   0.01267  Uiso   1.00
O34    O     0.65830   0.55160   0.37060   0.01267  Uiso   1.00
O35    O     0.63400   0.87590   0.35870   0.01267  Uiso   1.00
O36    O     0.61261   0.92127   0.43571   0.01267  Uiso   1.00
O37    O     0.69579   0.77842   0.05800   0.01267  Uiso   1.00
O38    O     0.56990   0.78390   0.11970   0.01267  Uiso   1.00
O39    O     0.24874   0.38752   0.92280   0.01267  Uiso   1.00
O40    O     0.14852   0.46036   0.99060   0.01267  Uiso   1.00
O41    O     0.53809   0.79953   0.54489   0.01267  Uiso   1.00
O42    O     0.53691   0.90310   0.56748   0.01267  Uiso   1.00
O43    O     0.26821   0.39408   0.55130   0.01267  Uiso   1.00
O44    O     0.30075   0.27156   0.57774   0.01267  Uiso   1.00
O45    O     0.55680   0.87630   0.21290   0.01267  Uiso   1.00
O46    O     0.58050   0.94840   0.12940   0.01267  Uiso   1.00
O47    O     0.86860   0.62410   0.14130   0.01267  Uiso   1.00
O48    O     0.96959   0.57873   0.06429   0.01267  Uiso   1.00
