data_image0
_cell_length_a       12.0576
_cell_length_b       17.8073
_cell_length_c       9.7855
_cell_angle_alpha    90
_cell_angle_beta     95.306
_cell_angle_gamma    90

_symmetry_space_group_name_H-M    "P 1"
_symmetry_int_tables_number       1

loop_
  _symmetry_equiv_pos_as_xyz
  'x, y, z'

loop_
  _atom_site_label
  _atom_site_occupancy
  _atom_site_fract_x
  _atom_site_fract_y
  _atom_site_fract_z
  _atom_site_thermal_displace_type
  _atom_site_B_iso_or_equiv
  _atom_site_type_symbol
  Cu1      1.0000 0.00329  0.62510  0.62345  Biso   1.000  Cu
  Cu2      1.0000 0.39469  0.65285  0.83165  Biso   1.000  Cu
  N1       1.0000 0.97889  0.71731  0.51245  Biso   1.000  N
  N2       1.0000 0.99831  0.52923  0.52640  Biso   1.000  N
  N3       1.0000 0.23882  0.63516  0.77464  Biso   1.000  N
  C1       1.0000 0.95480  0.76851  0.44470  Biso   1.000  C
  C2       1.0000 0.00169  0.47077  0.47360  Biso   1.000  C
  C3       1.0000 0.14506  0.63147  0.75403  Biso   1.000  C
  Cu3      1.0000 0.50329  0.12510  0.62345  Biso   1.000  Cu
  Cu4      1.0000 0.89469  0.15285  0.83165  Biso   1.000  Cu
  N4       1.0000 0.47889  0.21731  0.51245  Biso   1.000  N
  N5       1.0000 0.49831  0.02923  0.52640  Biso   1.000  N
  N6       1.0000 0.73882  0.13516  0.77464  Biso   1.000  N
  C4       1.0000 0.45480  0.26851  0.44470  Biso   1.000  C
  C5       1.0000 0.50169  0.97077  0.47360  Biso   1.000  C
  C6       1.0000 0.64506  0.13147  0.75403  Biso   1.000  C
  Cu5      1.0000 0.99671  0.62510  0.87655  Biso   1.000  Cu
  Cu6      1.0000 0.60531  0.65285  0.66835  Biso   1.000  Cu
  N7       1.0000 0.02111  0.71731  0.98755  Biso   1.000  N
  N8       1.0000 0.00169  0.52923  0.97360  Biso   1.000  N
  N9       1.0000 0.76118  0.63516  0.72536  Biso   1.000  N
  C7       1.0000 0.04520  0.76851  0.05530  Biso   1.000  C
  C8       1.0000 0.99831  0.47077  0.02640  Biso   1.000  C
  C9       1.0000 0.85494  0.63147  0.74597  Biso   1.000  C
  Cu7      1.0000 0.49671  0.12510  0.87655  Biso   1.000  Cu
  Cu8      1.0000 0.10531  0.15285  0.66835  Biso   1.000  Cu
  N10      1.0000 0.52111  0.21731  0.98755  Biso   1.000  N
  N11      1.0000 0.50169  0.02923  0.97360  Biso   1.000  N
  N12      1.0000 0.26118  0.13516  0.72536  Biso   1.000  N
  C10      1.0000 0.54520  0.26851  0.05530  Biso   1.000  C
  C11      1.0000 0.49831  0.97077  0.02640  Biso   1.000  C
  C12      1.0000 0.35494  0.13147  0.74597  Biso   1.000  C
  Cu9      1.0000 0.99671  0.37490  0.37655  Biso   1.000  Cu
  Cu10     1.0000 0.60531  0.34715  0.16835  Biso   1.000  Cu
  N13      1.0000 0.02111  0.28269  0.48755  Biso   1.000  N
  N14      1.0000 0.76118  0.36484  0.22536  Biso   1.000  N
  C13      1.0000 0.04520  0.23149  0.55530  Biso   1.000  C
  C14      1.0000 0.85494  0.36853  0.24597  Biso   1.000  C
  Cu11     1.0000 0.49671  0.87490  0.37655  Biso   1.000  Cu
  Cu12     1.0000 0.10531  0.84715  0.16835  Biso   1.000  Cu
  N15      1.0000 0.52111  0.78269  0.48755  Biso   1.000  N
  N16      1.0000 0.26118  0.86484  0.22536  Biso   1.000  N
  C15      1.0000 0.54520  0.73149  0.55530  Biso   1.000  C
  C16      1.0000 0.35494  0.86853  0.24597  Biso   1.000  C
  Cu13     1.0000 0.00329  0.37490  0.12345  Biso   1.000  Cu
  Cu14     1.0000 0.39469  0.34715  0.33165  Biso   1.000  Cu
  N17      1.0000 0.97889  0.28269  0.01245  Biso   1.000  N
  N18      1.0000 0.23882  0.36484  0.27464  Biso   1.000  N
  C17      1.0000 0.95480  0.23149  0.94470  Biso   1.000  C
  C18      1.0000 0.14506  0.36853  0.25403  Biso   1.000  C
  Cu15     1.0000 0.50329  0.87490  0.12345  Biso   1.000  Cu
  Cu16     1.0000 0.89469  0.84715  0.33165  Biso   1.000  Cu
  N19      1.0000 0.47889  0.78269  0.01245  Biso   1.000  N
  N20      1.0000 0.73882  0.86484  0.27464  Biso   1.000  N
  C19      1.0000 0.45480  0.73149  0.94470  Biso   1.000  C
  C20      1.0000 0.64506  0.86853  0.25403  Biso   1.000  C
  Cl1      1.0000 0.50000  0.55648  0.75000  Biso   1.000  Cl
  Cl2      1.0000 0.00000  0.05648  0.75000  Biso   1.000  Cl
  Cl3      1.0000 0.50000  0.44352  0.25000  Biso   1.000  Cl
  Cl4      1.0000 0.00000  0.94352  0.25000  Biso   1.000  Cl
