data_image0
_cell_length_a       8.9024
_cell_length_b       14.2796
_cell_length_c       15.0637
_cell_angle_alpha    90
_cell_angle_beta     95.068
_cell_angle_gamma    90

_symmetry_space_group_name_H-M    "P 1"
_symmetry_int_tables_number       1

loop_
  _symmetry_equiv_pos_as_xyz
  'x, y, z'

loop_
  _atom_site_label
  _atom_site_occupancy
  _atom_site_fract_x
  _atom_site_fract_y
  _atom_site_fract_z
  _atom_site_thermal_displace_type
  _atom_site_B_iso_or_equiv
  _atom_site_type_symbol
  Al1      1.0000 0.82257  0.05886  0.24323  Biso   1.000  Al
  Al2      1.0000 0.61917  0.93980  0.90932  Biso   1.000  Al
  Co1      1.0000 0.63958  0.07044  0.61468  Biso   1.000  Co
  Co2      1.0000 0.42598  0.21385  0.33584  Biso   1.000  Co
  P1       1.0000 0.60091  0.21834  0.16217  Biso   1.000  P
  P2       1.0000 0.64094  0.05539  0.41293  Biso   1.000  P
  P3       1.0000 0.64951  0.91949  0.11125  Biso   1.000  P
  P4       1.0000 0.18794  0.06628  0.25415  Biso   1.000  P
  O1       1.0000 0.70060  0.94530  0.02001  Biso   1.000  O
  O2       1.0000 0.69970  0.03870  0.50959  Biso   1.000  O
  O3       1.0000 0.49690  0.96280  0.12160  Biso   1.000  O
  O4       1.0000 0.23060  0.06380  0.15948  Biso   1.000  O
  O5       1.0000 0.76570  0.95230  0.18360  Biso   1.000  O
  O6       1.0000 0.23520  0.97540  0.30116  Biso   1.000  O
  O7       1.0000 0.77530  0.06480  0.35930  Biso   1.000  O
  O8       1.0000 0.54640  0.14490  0.40880  Biso   1.000  O
  O9       1.0000 0.63580  0.81352  0.11490  Biso   1.000  O
  O10      1.0000 0.54490  0.97350  0.37730  Biso   1.000  O
  O11      1.0000 0.64510  0.30774  0.11750  Biso   1.000  O
  O12      1.0000 0.53040  0.24430  0.24660  Biso   1.000  O
  O13      1.0000 0.74200  0.16170  0.18220  Biso   1.000  O
  O14      1.0000 0.48930  0.16520  0.10040  Biso   1.000  O
  O15      1.0000 0.02160  0.07980  0.25200  Biso   1.000  O
  O16      1.0000 0.26640  0.14770  0.30290  Biso   1.000  O
  Al3      1.0000 0.17743  0.55886  0.25677  Biso   1.000  Al
  Al4      1.0000 0.38083  0.43980  0.59068  Biso   1.000  Al
  Co3      1.0000 0.36042  0.57044  0.88532  Biso   1.000  Co
  Co4      1.0000 0.57402  0.71385  0.16416  Biso   1.000  Co
  P5       1.0000 0.39909  0.71834  0.33783  Biso   1.000  P
  P6       1.0000 0.35906  0.55539  0.08707  Biso   1.000  P
  P7       1.0000 0.35049  0.41949  0.38875  Biso   1.000  P
  P8       1.0000 0.81206  0.56628  0.24585  Biso   1.000  P
  O17      1.0000 0.29940  0.44530  0.47999  Biso   1.000  O
  O18      1.0000 0.30030  0.53870  0.99041  Biso   1.000  O
  O19      1.0000 0.50310  0.46280  0.37840  Biso   1.000  O
  O20      1.0000 0.76940  0.56380  0.34052  Biso   1.000  O
  O21      1.0000 0.23430  0.45230  0.31640  Biso   1.000  O
  O22      1.0000 0.76480  0.47540  0.19884  Biso   1.000  O
  O23      1.0000 0.22470  0.56480  0.14070  Biso   1.000  O
  O24      1.0000 0.45360  0.64490  0.09120  Biso   1.000  O
  O25      1.0000 0.36420  0.31352  0.38510  Biso   1.000  O
  O26      1.0000 0.45510  0.47350  0.12270  Biso   1.000  O
  O27      1.0000 0.35490  0.80774  0.38250  Biso   1.000  O
  O28      1.0000 0.46960  0.74430  0.25340  Biso   1.000  O
  O29      1.0000 0.25800  0.66170  0.31780  Biso   1.000  O
  O30      1.0000 0.51070  0.66520  0.39960  Biso   1.000  O
  O31      1.0000 0.97840  0.57980  0.24800  Biso   1.000  O
  O32      1.0000 0.73360  0.64770  0.19710  Biso   1.000  O
  Al5      1.0000 0.17743  0.94114  0.75677  Biso   1.000  Al
  Al6      1.0000 0.38083  0.06020  0.09068  Biso   1.000  Al
  Co5      1.0000 0.36042  0.92956  0.38532  Biso   1.000  Co
  Co6      1.0000 0.57402  0.78615  0.66416  Biso   1.000  Co
  P9       1.0000 0.39909  0.78166  0.83783  Biso   1.000  P
  P10      1.0000 0.35906  0.94461  0.58707  Biso   1.000  P
  P11      1.0000 0.35049  0.08051  0.88875  Biso   1.000  P
  P12      1.0000 0.81206  0.93372  0.74585  Biso   1.000  P
  O33      1.0000 0.29940  0.05470  0.97999  Biso   1.000  O
  O34      1.0000 0.30030  0.96130  0.49041  Biso   1.000  O
  O35      1.0000 0.50310  0.03720  0.87840  Biso   1.000  O
  O36      1.0000 0.76940  0.93620  0.84052  Biso   1.000  O
  O37      1.0000 0.23430  0.04770  0.81640  Biso   1.000  O
  O38      1.0000 0.76480  0.02460  0.69884  Biso   1.000  O
  O39      1.0000 0.22470  0.93520  0.64070  Biso   1.000  O
  O40      1.0000 0.45360  0.85510  0.59120  Biso   1.000  O
  O41      1.0000 0.36420  0.18648  0.88510  Biso   1.000  O
  O42      1.0000 0.45510  0.02650  0.62270  Biso   1.000  O
  O43      1.0000 0.35490  0.69226  0.88250  Biso   1.000  O
  O44      1.0000 0.46960  0.75570  0.75340  Biso   1.000  O
  O45      1.0000 0.25800  0.83830  0.81780  Biso   1.000  O
  O46      1.0000 0.51070  0.83480  0.89960  Biso   1.000  O
  O47      1.0000 0.97840  0.92020  0.74800  Biso   1.000  O
  O48      1.0000 0.73360  0.85230  0.69710  Biso   1.000  O
  Al7      1.0000 0.82257  0.44114  0.74323  Biso   1.000  Al
  Al8      1.0000 0.61917  0.56020  0.40932  Biso   1.000  Al
  Co7      1.0000 0.63958  0.42956  0.11468  Biso   1.000  Co
  Co8      1.0000 0.42598  0.28615  0.83584  Biso   1.000  Co
  P13      1.0000 0.60091  0.28166  0.66217  Biso   1.000  P
  P14      1.0000 0.64094  0.44461  0.91293  Biso   1.000  P
  P15      1.0000 0.64951  0.58051  0.61125  Biso   1.000  P
  P16      1.0000 0.18794  0.43372  0.75415  Biso   1.000  P
  O49      1.0000 0.70060  0.55470  0.52001  Biso   1.000  O
  O50      1.0000 0.69970  0.46130  0.00959  Biso   1.000  O
  O51      1.0000 0.49690  0.53720  0.62160  Biso   1.000  O
  O52      1.0000 0.23060  0.43620  0.65948  Biso   1.000  O
  O53      1.0000 0.76570  0.54770  0.68360  Biso   1.000  O
  O54      1.0000 0.23520  0.52460  0.80116  Biso   1.000  O
  O55      1.0000 0.77530  0.43520  0.85930  Biso   1.000  O
  O56      1.0000 0.54640  0.35510  0.90880  Biso   1.000  O
  O57      1.0000 0.63580  0.68648  0.61490  Biso   1.000  O
  O58      1.0000 0.54490  0.52650  0.87730  Biso   1.000  O
  O59      1.0000 0.64510  0.19226  0.61750  Biso   1.000  O
  O60      1.0000 0.53040  0.25570  0.74660  Biso   1.000  O
  O61      1.0000 0.74200  0.33830  0.68220  Biso   1.000  O
  O62      1.0000 0.48930  0.33480  0.60040  Biso   1.000  O
  O63      1.0000 0.02160  0.42020  0.75200  Biso   1.000  O
  O64      1.0000 0.26640  0.35230  0.80290  Biso   1.000  O
