data_DARSEV_clean
_audit_creation_date              2015-05-19
_audit_creation_method            'Materials Studio'
_symmetry_space_group_name_H-M    'P1'
_symmetry_Int_Tables_number       1
_symmetry_cell_setting            triclinic
loop_
_symmetry_equiv_pos_as_xyz
  x,y,z
_cell_length_a                    10.2343
_cell_length_b                    19.1180
_cell_length_c                    20.9287
_cell_angle_alpha                 67.5530
_cell_angle_beta                  86.7530
_cell_angle_gamma                 83.6300
loop_
_atom_site_label
_atom_site_type_symbol
_atom_site_fract_x
_atom_site_fract_y
_atom_site_fract_z
_atom_site_U_iso_or_equiv
_atom_site_adp_type
_atom_site_occupancy
Cd1    Cd    0.99075   0.16458   0.09415   0.01267  Uiso   1.00
Cd2    Cd    0.72089   0.09936   0.00832   0.01267  Uiso   1.00
Cd3    Cd    0.35536   0.12775   0.05273   0.01267  Uiso   1.00
H4     H     0.45480   0.23460   0.12340   0.01267  Uiso   1.00
H5     H     0.51560   0.22880   0.23030   0.01267  Uiso   1.00
H6     H     0.52920   0.99980   0.30770   0.01267  Uiso   1.00
H7     H     0.45550   0.01090   0.20050   0.01267  Uiso   1.00
H8     H     0.75870   0.03130   0.31960   0.01267  Uiso   1.00
H9     H     0.96400   0.97380   0.49410   0.01267  Uiso   1.00
H10    H     0.81230   0.03960   0.53870   0.01267  Uiso   1.00
H11    H     0.40810   0.20030   0.34300   0.01267  Uiso   1.00
H12    H     0.65140   0.26180   0.45050   0.01267  Uiso   1.00
H13    H     0.68250   0.37430   0.45600   0.01267  Uiso   1.00
H14    H     0.67720   0.27900   0.66630   0.01267  Uiso   1.00
H15    H     0.58810   0.03040   0.71750   0.01267  Uiso   1.00
H16    H     0.52770   0.06900   0.90880   0.01267  Uiso   1.00
H17    H     0.48700   0.08180   0.79570   0.01267  Uiso   1.00
H18    H     0.82810   0.17680   0.73680   0.01267  Uiso   1.00
H19    H     0.85820   0.16300   0.84970   0.01267  Uiso   1.00
H20    H     0.24060   0.23840   0.90330   0.01267  Uiso   1.00
H21    H     0.18940   0.23840   0.79820   0.01267  Uiso   1.00
H22    H     0.22510   0.00790   0.87950   0.01267  Uiso   1.00
H23    H     0.28270   0.01660   0.98210   0.01267  Uiso   1.00
H24    H     0.02950   0.02530   0.83880   0.01267  Uiso   1.00
H25    H     0.86680   0.96820   0.69940   0.01267  Uiso   1.00
H26    H     0.97960   0.04740   0.61400   0.01267  Uiso   1.00
H27    H     0.31900   0.19990   0.71300   0.01267  Uiso   1.00
H28    H     0.04570   0.27530   0.55990   0.01267  Uiso   1.00
H29    H     0.97290   0.38660   0.48050   0.01267  Uiso   1.00
H30    H     0.98690   0.29640   0.33330   0.01267  Uiso   1.00
H31    H     0.17750   0.05100   0.44090   0.01267  Uiso   1.00
H32    H     0.20100   0.10820   0.21510   0.01267  Uiso   1.00
H33    H     0.24660   0.11010   0.32300   0.01267  Uiso   1.00
H34    H     0.87010   0.20110   0.33110   0.01267  Uiso   1.00
H35    H     0.83640   0.19680   0.22450   0.01267  Uiso   1.00
H36    H     0.71080   0.25370   0.04320   0.01267  Uiso   1.00
H37    H     0.56410   0.35810   0.03390   0.01267  Uiso   1.00
H38    H     0.85610   0.43540   0.11200   0.01267  Uiso   1.00
H39    H     0.98340   0.32610   0.11800   0.01267  Uiso   1.00
H40    H     0.63010   0.47220   0.16050   0.01267  Uiso   1.00
H41    H     0.63900   0.47310   0.94080   0.01267  Uiso   1.00
H42    H     0.37340   0.64710   0.83480   0.01267  Uiso   1.00
H43    H     0.32690   0.67400   0.93430   0.01267  Uiso   1.00
H44    H     0.01450   0.03330   0.00330   0.01267  Uiso   1.00
H45    H     0.15630   0.92900   0.02440   0.01267  Uiso   1.00
H46    H     0.86600   0.81080   0.03200   0.01267  Uiso   1.00
H47    H     0.72140   0.92450   0.01370   0.01267  Uiso   1.00
H48    H     0.27440   0.85360   0.99520   0.01267  Uiso   1.00
H49    H     0.22270   0.53790   0.11140   0.01267  Uiso   1.00
H50    H     0.01080   0.51270   0.15640   0.01267  Uiso   1.00
H51    H     0.90510   0.73880   0.09780   0.01267  Uiso   1.00
C52    C     0.46650   0.18730   0.16130   0.01267  Uiso   1.00
C53    C     0.50350   0.18290   0.22480   0.01267  Uiso   1.00
C54    C     0.52450   0.11390   0.28220   0.01267  Uiso   1.00
C55    C     0.51090   0.04840   0.27210   0.01267  Uiso   1.00
C56    C     0.46890   0.05610   0.20700   0.01267  Uiso   1.00
C57    C     0.55460   0.11430   0.35000   0.01267  Uiso   1.00
C58    C     0.67110   0.07500   0.38920   0.01267  Uiso   1.00
C59    C     0.76720   0.03270   0.36400   0.01267  Uiso   1.00
C60    C     0.87020   0.99480   0.40300   0.01267  Uiso   1.00
C61    C     0.88800   0.99960   0.46840   0.01267  Uiso   1.00
C62    C     0.80070   0.03890   0.49420   0.01267  Uiso   1.00
C63    C     0.68860   0.08040   0.45360   0.01267  Uiso   1.00
C64    C     0.59130   0.11970   0.48290   0.01267  Uiso   1.00
C65    C     0.48530   0.16820   0.43830   0.01267  Uiso   1.00
C66    C     0.47300   0.16610   0.37320   0.01267  Uiso   1.00
C67    C     0.60920   0.12680   0.55100   0.01267  Uiso   1.00
C68    C     0.64090   0.19940   0.55370   0.01267  Uiso   1.00
C69    C     0.65570   0.26500   0.49450   0.01267  Uiso   1.00
C70    C     0.67520   0.33040   0.49700   0.01267  Uiso   1.00
C71    C     0.68520   0.33300   0.56330   0.01267  Uiso   1.00
C72    C     0.67200   0.27320   0.62340   0.01267  Uiso   1.00
C73    C     0.65050   0.20180   0.62210   0.01267  Uiso   1.00
C74    C     0.63150   0.13790   0.68090   0.01267  Uiso   1.00
C75    C     0.60290   0.07280   0.67630   0.01267  Uiso   1.00
C76    C     0.59390   0.06570   0.60810   0.01267  Uiso   1.00
C77    C     0.58860   0.09200   0.87290   0.01267  Uiso   1.00
C78    C     0.56390   0.09960   0.80520   0.01267  Uiso   1.00
C79    C     0.65230   0.13330   0.75180   0.01267  Uiso   1.00
C80    C     0.76320   0.15530   0.77090   0.01267  Uiso   1.00
C81    C     0.78140   0.14660   0.83850   0.01267  Uiso   1.00
C82    C     0.24130   0.19130   0.89770   0.01267  Uiso   1.00
C83    C     0.20840   0.19150   0.83590   0.01267  Uiso   1.00
C84    C     0.20250   0.12430   0.82740   0.01267  Uiso   1.00
C85    C     0.22980   0.05580   0.88280   0.01267  Uiso   1.00
C86    C     0.26450   0.06230   0.94300   0.01267  Uiso   1.00
C87    C     0.18400   0.12420   0.75540   0.01267  Uiso   1.00
C88    C     0.09950   0.08140   0.74060   0.01267  Uiso   1.00
C89    C     0.02070   0.03120   0.79210   0.01267  Uiso   1.00
C90    C     0.93350   0.99120   0.77730   0.01267  Uiso   1.00
C91    C     0.92500   0.99790   0.70980   0.01267  Uiso   1.00
C92    C     0.99250   0.04370   0.65980   0.01267  Uiso   1.00
C93    C     0.08300   0.08730   0.67020   0.01267  Uiso   1.00
C94    C     0.15260   0.13240   0.61950   0.01267  Uiso   1.00
C95    C     0.24560   0.18150   0.63170   0.01267  Uiso   1.00
C96    C     0.25800   0.17230   0.70210   0.01267  Uiso   1.00
C97    C     0.13460   0.14600   0.54530   0.01267  Uiso   1.00
C98    C     0.07500   0.21890   0.49330   0.01267  Uiso   1.00
C99    C     0.03850   0.28070   0.51310   0.01267  Uiso   1.00
C100   C     0.99500   0.34430   0.46740   0.01267  Uiso   1.00
C101   C     0.98000   0.35380   0.39500   0.01267  Uiso   1.00
C102   C     0.00580   0.29220   0.37860   0.01267  Uiso   1.00
C103   C     0.06060   0.22110   0.42640   0.01267  Uiso   1.00
C104   C     0.09190   0.15900   0.40680   0.01267  Uiso   1.00
C105   C     0.15310   0.09340   0.45370   0.01267  Uiso   1.00
C106   C     0.18060   0.08850   0.52190   0.01267  Uiso   1.00
C107   C     0.13480   0.12880   0.23840   0.01267  Uiso   1.00
C108   C     0.16270   0.13010   0.30320   0.01267  Uiso   1.00
C109   C     0.06750   0.16060   0.33810   0.01267  Uiso   1.00
C110   C     0.94070   0.18370   0.30770   0.01267  Uiso   1.00
C111   C     0.92120   0.18070   0.24420   0.01267  Uiso   1.00
C112   C     0.73870   0.29240   0.05570   0.01267  Uiso   1.00
C113   C     0.65080   0.35370   0.04990   0.01267  Uiso   1.00
C114   C     0.69800   0.41390   0.07010   0.01267  Uiso   1.00
C115   C     0.82280   0.40040   0.09630   0.01267  Uiso   1.00
C116   C     0.89800   0.33510   0.09920   0.01267  Uiso   1.00
C117   C     0.61320   0.48610   0.05970   0.01267  Uiso   1.00
C118   C     0.58560   0.50200   0.11870   0.01267  Uiso   1.00
C119   C     0.49290   0.56170   0.11680   0.01267  Uiso   1.00
C120   C     0.42780   0.60540   0.05580   0.01267  Uiso   1.00
C121   C     0.45540   0.58950   0.99670   0.01267  Uiso   1.00
C122   C     0.54810   0.52980   0.99860   0.01267  Uiso   1.00
C123   C     0.57570   0.51390   0.93950   0.01267  Uiso   1.00
C124   C     0.51100   0.55760   0.87850   0.01267  Uiso   1.00
C125   C     0.41790   0.61730   0.87650   0.01267  Uiso   1.00
C126   C     0.39030   0.63320   0.93560   0.01267  Uiso   1.00
C127   C     0.97900   0.98620   0.01480   0.01267  Uiso   1.00
C128   C     0.06500   0.92260   0.02620   0.01267  Uiso   1.00
C129   C     0.03600   0.86010   0.03830   0.01267  Uiso   1.00
C130   C     0.89900   0.85610   0.03040   0.01267  Uiso   1.00
C131   C     0.81200   0.92520   0.01990   0.01267  Uiso   1.00
C132   C     0.31560   0.66830   0.05110   0.01267  Uiso   1.00
C133   C     0.34720   0.74290   0.02030   0.01267  Uiso   1.00
C134   C     0.25290   0.80260   0.01630   0.01267  Uiso   1.00
C135   C     0.12700   0.78760   0.04300   0.01267  Uiso   1.00
C136   C     0.09550   0.71300   0.07380   0.01267  Uiso   1.00
C137   C     0.18980   0.65330   0.07790   0.01267  Uiso   1.00
C138   C     0.15830   0.57870   0.10860   0.01267  Uiso   1.00
C139   C     0.03240   0.56370   0.13540   0.01267  Uiso   1.00
C140   C     0.93810   0.62340   0.13130   0.01267  Uiso   1.00
C141   C     0.96960   0.69800   0.10060   0.01267  Uiso   1.00
N142   N     0.44690   0.12000   0.15490   0.01267  Uiso   1.00
N143   N     0.69500   0.11600   0.88790   0.01267  Uiso   1.00
N144   N     0.27420   0.12760   0.95020   0.01267  Uiso   1.00
N145   N     0.01670   0.15610   0.20880   0.01267  Uiso   1.00
N146   N     0.86030   0.28380   0.07780   0.01267  Uiso   1.00
N147   N     0.85230   0.98690   0.01850   0.01267  Uiso   1.00
Cl148  Cl    0.53660   0.21450   0.98040   0.01267  Uiso   1.00
Cl149  Cl    0.92330   0.18040   0.97020   0.01267  Uiso   1.00
Cl150  Cl    0.83320   0.93240   0.84180   0.01267  Uiso   1.00
Cl151  Cl    0.78440   0.08910   0.13320   0.01267  Uiso   1.00
Cl152  Cl    0.99130   0.94420   0.37230   0.01267  Uiso   1.00
Cl153  Cl    0.16680   0.04490   0.12110   0.01267  Uiso   1.00
Cl154  Cl    0.70160   0.42400   0.56690   0.01267  Uiso   1.00
Cl155  Cl    0.52730   0.01170   0.05690   0.01267  Uiso   1.00
Cl156  Cl    0.91930   0.44330   0.33530   0.01267  Uiso   1.00
Cl157  Cl    0.19240   0.24600   0.04940   0.01267  Uiso   1.00
Cl158  Cl    0.57360   0.55810   0.79820   0.01267  Uiso   1.00
Cl159  Cl    0.78710   0.59680   0.16690   0.01267  Uiso   1.00
O160   O     0.39920   0.21430   0.45570   0.01267  Uiso   1.00
O161   O     0.56900   0.99950   0.60570   0.01267  Uiso   1.00
O162   O     0.32030   0.22740   0.58110   0.01267  Uiso   1.00
O163   O     0.24250   0.02470   0.56780   0.01267  Uiso   1.00
O164   O     0.46210   0.57630   0.17730   0.01267  Uiso   1.00
O165   O     0.46900   0.75860   0.99080   0.01267  Uiso   1.00
H166   H     0.45152   0.25098   0.47384   0.00000  Uiso   1.00
H167   H     0.46132   0.99527   0.61004   0.00000  Uiso   1.00
H168   H     0.32155   0.28220   0.58778   0.00000  Uiso   1.00
H169   H     0.31253   0.04010   0.59776   0.00000  Uiso   1.00
H170   H     0.55311   0.58588   0.19797   0.00000  Uiso   1.00
H171   H     0.50389   0.80460   0.00357   0.00000  Uiso   1.00
