data_image0
_cell_length_a       9.1332
_cell_length_b       13.8397
_cell_length_c       9.0847
_cell_angle_alpha    90
_cell_angle_beta     117.392
_cell_angle_gamma    90

_symmetry_space_group_name_H-M    "P 1"
_symmetry_int_tables_number       1

loop_
  _symmetry_equiv_pos_as_xyz
  'x, y, z'

loop_
  _atom_site_label
  _atom_site_occupancy
  _atom_site_fract_x
  _atom_site_fract_y
  _atom_site_fract_z
  _atom_site_thermal_displace_type
  _atom_site_B_iso_or_equiv
  _atom_site_type_symbol
  Co1      1.0000 0.27759  0.59584  0.22192  Biso   1.000  Co
  O1       1.0000 0.02080  0.60870  0.10640  Biso   1.000  O
  O2       1.0000 0.79370  0.53300  0.92370  Biso   1.000  O
  C1       1.0000 0.94550  0.53990  0.00900  Biso   1.000  C
  O3       1.0000 0.52610  0.55550  0.34080  Biso   1.000  O
  O4       1.0000 0.71200  0.48440  0.57270  Biso   1.000  O
  C2       1.0000 0.57070  0.51140  0.47620  Biso   1.000  C
  N1       1.0000 0.31310  0.72360  0.35790  Biso   1.000  N
  N2       1.0000 0.43200  0.78940  0.38350  Biso   1.000  N
  H1       1.0000 0.49580  0.78950  0.33460  Biso   1.000  H
  N3       1.0000 0.31730  0.83210  0.53940  Biso   1.000  N
  C3       1.0000 0.24800  0.75220  0.45350  Biso   1.000  C
  H2       1.0000 0.16030  0.71920  0.46050  Biso   1.000  H
  C4       1.0000 0.43710  0.85420  0.49500  Biso   1.000  C
  N4       1.0000 0.54200  0.92660  0.54000  Biso   1.000  N
  H3       1.0000 0.61030  0.93290  0.49680  Biso   1.000  H
  H4       1.0000 0.54430  0.96880  0.61360  Biso   1.000  H
  Co2      1.0000 0.72241  0.09584  0.27808  Biso   1.000  Co
  O5       1.0000 0.97920  0.10870  0.39360  Biso   1.000  O
  O6       1.0000 0.20630  0.03300  0.57630  Biso   1.000  O
  C5       1.0000 0.05450  0.03990  0.49100  Biso   1.000  C
  O7       1.0000 0.47390  0.05550  0.15920  Biso   1.000  O
  O8       1.0000 0.28800  0.98440  0.92730  Biso   1.000  O
  C6       1.0000 0.42930  0.01140  0.02380  Biso   1.000  C
  N5       1.0000 0.68690  0.22360  0.14210  Biso   1.000  N
  N6       1.0000 0.56800  0.28940  0.11650  Biso   1.000  N
  H5       1.0000 0.50420  0.28950  0.16540  Biso   1.000  H
  N7       1.0000 0.68270  0.33210  0.96060  Biso   1.000  N
  C7       1.0000 0.75200  0.25220  0.04650  Biso   1.000  C
  H6       1.0000 0.83970  0.21920  0.03950  Biso   1.000  H
  C8       1.0000 0.56290  0.35420  0.00500  Biso   1.000  C
  N8       1.0000 0.45800  0.42660  0.96000  Biso   1.000  N
  H7       1.0000 0.38970  0.43290  0.00320  Biso   1.000  H
  H8       1.0000 0.45570  0.46880  0.88640  Biso   1.000  H
  Co3      1.0000 0.72241  0.40416  0.77808  Biso   1.000  Co
  O9       1.0000 0.97920  0.39130  0.89360  Biso   1.000  O
  O10      1.0000 0.20630  0.46700  0.07630  Biso   1.000  O
  C9       1.0000 0.05450  0.46010  0.99100  Biso   1.000  C
  O11      1.0000 0.47390  0.44450  0.65920  Biso   1.000  O
  O12      1.0000 0.28800  0.51560  0.42730  Biso   1.000  O
  C10      1.0000 0.42930  0.48860  0.52380  Biso   1.000  C
  N9       1.0000 0.68690  0.27640  0.64210  Biso   1.000  N
  N10      1.0000 0.56800  0.21060  0.61650  Biso   1.000  N
  H9       1.0000 0.50420  0.21050  0.66540  Biso   1.000  H
  N11      1.0000 0.68270  0.16790  0.46060  Biso   1.000  N
  C11      1.0000 0.75200  0.24780  0.54650  Biso   1.000  C
  H10      1.0000 0.83970  0.28080  0.53950  Biso   1.000  H
  C12      1.0000 0.56290  0.14580  0.50500  Biso   1.000  C
  N12      1.0000 0.45800  0.07340  0.46000  Biso   1.000  N
  H11      1.0000 0.38970  0.06710  0.50320  Biso   1.000  H
  H12      1.0000 0.45570  0.03120  0.38640  Biso   1.000  H
  Co4      1.0000 0.27759  0.90416  0.72192  Biso   1.000  Co
  O13      1.0000 0.02080  0.89130  0.60640  Biso   1.000  O
  O14      1.0000 0.79370  0.96700  0.42370  Biso   1.000  O
  C13      1.0000 0.94550  0.96010  0.50900  Biso   1.000  C
  O15      1.0000 0.52610  0.94450  0.84080  Biso   1.000  O
  O16      1.0000 0.71200  0.01560  0.07270  Biso   1.000  O
  C14      1.0000 0.57070  0.98860  0.97620  Biso   1.000  C
  N13      1.0000 0.31310  0.77640  0.85790  Biso   1.000  N
  N14      1.0000 0.43200  0.71060  0.88350  Biso   1.000  N
  H13      1.0000 0.49580  0.71050  0.83460  Biso   1.000  H
  N15      1.0000 0.31730  0.66790  0.03940  Biso   1.000  N
  C15      1.0000 0.24800  0.74780  0.95350  Biso   1.000  C
  H14      1.0000 0.16030  0.78080  0.96050  Biso   1.000  H
  C16      1.0000 0.43710  0.64580  0.99500  Biso   1.000  C
  N16      1.0000 0.54200  0.57340  0.04000  Biso   1.000  N
  H15      1.0000 0.61030  0.56710  0.99680  Biso   1.000  H
  H16      1.0000 0.54430  0.53120  0.11360  Biso   1.000  H
