data_DATHAJ_clean
_audit_creation_date              2014-07-02
_audit_creation_method            'Materials Studio'
_symmetry_space_group_name_H-M    'P1'
_symmetry_Int_Tables_number       1
_symmetry_cell_setting            triclinic
loop_
_symmetry_equiv_pos_as_xyz
  x,y,z
_cell_length_a                    12.6096
_cell_length_b                    13.0079
_cell_length_c                    22.5014
_cell_angle_alpha                 90.0000
_cell_angle_beta                  90.0000
_cell_angle_gamma                 90.0000
loop_
_atom_site_label
_atom_site_type_symbol
_atom_site_fract_x
_atom_site_fract_y
_atom_site_fract_z
_atom_site_U_iso_or_equiv
_atom_site_adp_type
_atom_site_occupancy
Nd1    Nd    0.01142   0.83903   0.50732   0.01267  Uiso   1.00
Nd2    Nd    0.51142   0.66097   0.49268   0.01267  Uiso   1.00
Nd3    Nd    0.98858   0.16097   0.00732   0.01267  Uiso   1.00
Nd4    Nd    0.48858   0.33903   0.99268   0.01267  Uiso   1.00
Nd5    Nd    0.98858   0.16097   0.49268   0.01267  Uiso   1.00
Nd6    Nd    0.48858   0.33903   0.50732   0.01267  Uiso   1.00
Nd7    Nd    0.01142   0.83903   0.99268   0.01267  Uiso   1.00
Nd8    Nd    0.51142   0.66097   0.00732   0.01267  Uiso   1.00
Nd9    Nd    0.83655   0.70816   0.25000   0.01267  Uiso   1.00
Nd10   Nd    0.33655   0.79184   0.75000   0.01267  Uiso   1.00
Nd11   Nd    0.16345   0.29184   0.75000   0.01267  Uiso   1.00
Nd12   Nd    0.66345   0.20816   0.25000   0.01267  Uiso   1.00
H1     H     0.15370   0.47740   0.61000   0.01267  Uiso   1.00
H2     H     0.99100   0.55900   0.66030   0.01267  Uiso   1.00
H3     H     0.94650   0.65940   0.63060   0.01267  Uiso   1.00
H4     H     0.93070   0.46440   0.57430   0.01267  Uiso   1.00
H5     H     0.87560   0.56530   0.55180   0.01267  Uiso   1.00
H6     H     0.75820   0.56290   0.62970   0.01267  Uiso   1.00
H7     H     0.75700   0.45220   0.60230   0.01267  Uiso   1.00
H8     H     0.82030   0.47360   0.66090   0.01267  Uiso   1.00
H9     H     0.65370   0.02260   0.39000   0.01267  Uiso   1.00
H10    H     0.49100   0.94100   0.33970   0.01267  Uiso   1.00
H11    H     0.44650   0.84060   0.36940   0.01267  Uiso   1.00
H12    H     0.43070   0.03560   0.42570   0.01267  Uiso   1.00
H13    H     0.37560   0.93470   0.44820   0.01267  Uiso   1.00
H14    H     0.25820   0.93710   0.37030   0.01267  Uiso   1.00
H15    H     0.25700   0.04780   0.39770   0.01267  Uiso   1.00
H16    H     0.32030   0.02640   0.33910   0.01267  Uiso   1.00
H17    H     0.84630   0.52260   0.11000   0.01267  Uiso   1.00
H18    H     0.00900   0.44100   0.16030   0.01267  Uiso   1.00
H19    H     0.05350   0.34060   0.13060   0.01267  Uiso   1.00
H20    H     0.06930   0.53560   0.07430   0.01267  Uiso   1.00
H21    H     0.12440   0.43470   0.05180   0.01267  Uiso   1.00
H22    H     0.24180   0.43710   0.12970   0.01267  Uiso   1.00
H23    H     0.24300   0.54780   0.10230   0.01267  Uiso   1.00
H24    H     0.17970   0.52640   0.16090   0.01267  Uiso   1.00
H25    H     0.34630   0.97740   0.89000   0.01267  Uiso   1.00
H26    H     0.50900   0.05900   0.83970   0.01267  Uiso   1.00
H27    H     0.55350   0.15940   0.86940   0.01267  Uiso   1.00
H28    H     0.56930   0.96440   0.92570   0.01267  Uiso   1.00
H29    H     0.62440   0.06530   0.94820   0.01267  Uiso   1.00
H30    H     0.74180   0.06290   0.87030   0.01267  Uiso   1.00
H31    H     0.74300   0.95220   0.89770   0.01267  Uiso   1.00
H32    H     0.67970   0.97360   0.83910   0.01267  Uiso   1.00
H33    H     0.84630   0.52260   0.39000   0.01267  Uiso   1.00
H34    H     0.00900   0.44100   0.33970   0.01267  Uiso   1.00
H35    H     0.05350   0.34060   0.36940   0.01267  Uiso   1.00
H36    H     0.06930   0.53560   0.42570   0.01267  Uiso   1.00
H37    H     0.12440   0.43470   0.44820   0.01267  Uiso   1.00
H38    H     0.24180   0.43710   0.37030   0.01267  Uiso   1.00
H39    H     0.24300   0.54780   0.39770   0.01267  Uiso   1.00
H40    H     0.17970   0.52640   0.33910   0.01267  Uiso   1.00
H41    H     0.34630   0.97740   0.61000   0.01267  Uiso   1.00
H42    H     0.50900   0.05900   0.66030   0.01267  Uiso   1.00
H43    H     0.55350   0.15940   0.63060   0.01267  Uiso   1.00
H44    H     0.56930   0.96440   0.57430   0.01267  Uiso   1.00
H45    H     0.62440   0.06530   0.55180   0.01267  Uiso   1.00
H46    H     0.74180   0.06290   0.62970   0.01267  Uiso   1.00
H47    H     0.74300   0.95220   0.60230   0.01267  Uiso   1.00
H48    H     0.67970   0.97360   0.66090   0.01267  Uiso   1.00
H49    H     0.15370   0.47740   0.89000   0.01267  Uiso   1.00
H50    H     0.99100   0.55900   0.83970   0.01267  Uiso   1.00
H51    H     0.94650   0.65940   0.86940   0.01267  Uiso   1.00
H52    H     0.93070   0.46440   0.92570   0.01267  Uiso   1.00
H53    H     0.87560   0.56530   0.94820   0.01267  Uiso   1.00
H54    H     0.75820   0.56290   0.87030   0.01267  Uiso   1.00
H55    H     0.75700   0.45220   0.89770   0.01267  Uiso   1.00
H56    H     0.82030   0.47360   0.83910   0.01267  Uiso   1.00
H57    H     0.65370   0.02260   0.11000   0.01267  Uiso   1.00
H58    H     0.49100   0.94100   0.16030   0.01267  Uiso   1.00
H59    H     0.44650   0.84060   0.13060   0.01267  Uiso   1.00
H60    H     0.43070   0.03560   0.07430   0.01267  Uiso   1.00
H61    H     0.37560   0.93470   0.05180   0.01267  Uiso   1.00
H62    H     0.25820   0.93710   0.12970   0.01267  Uiso   1.00
H63    H     0.25700   0.04780   0.10230   0.01267  Uiso   1.00
H64    H     0.32030   0.02640   0.16090   0.01267  Uiso   1.00
H65    H     0.70250   0.47470   0.25000   0.01267  Uiso   1.00
H66    H     0.20250   0.02530   0.75000   0.01267  Uiso   1.00
H67    H     0.29750   0.52530   0.75000   0.01267  Uiso   1.00
H68    H     0.79750   0.97470   0.25000   0.01267  Uiso   1.00
C1     C     0.19900   0.65360   0.52599   0.01267  Uiso   1.00
C2     C     0.23180   0.56040   0.54895   0.01267  Uiso   1.00
C3     C     0.07760   0.60420   0.58863   0.01267  Uiso   1.00
C4     C     0.24130   0.72070   0.47742   0.01267  Uiso   1.00
C5     C     0.31830   0.48730   0.53714   0.01267  Uiso   1.00
C6     C     0.97660   0.59220   0.62256   0.01267  Uiso   1.00
C7     C     0.89680   0.52760   0.58710   0.01267  Uiso   1.00
C8     C     0.79910   0.50170   0.62330   0.01267  Uiso   1.00
C9     C     0.94520   0.82930   0.36565   0.01267  Uiso   1.00
C10    C     0.92620   0.71880   0.38930   0.01267  Uiso   1.00
C11    C     0.69900   0.84640   0.47401   0.01267  Uiso   1.00
C12    C     0.73180   0.93960   0.45105   0.01267  Uiso   1.00
C13    C     0.57760   0.89580   0.41137   0.01267  Uiso   1.00
C14    C     0.74130   0.77930   0.52258   0.01267  Uiso   1.00
C15    C     0.81830   0.01270   0.46286   0.01267  Uiso   1.00
C16    C     0.47660   0.90780   0.37744   0.01267  Uiso   1.00
C17    C     0.39680   0.97240   0.41290   0.01267  Uiso   1.00
C18    C     0.29910   0.99830   0.37670   0.01267  Uiso   1.00
C19    C     0.44520   0.67070   0.63435   0.01267  Uiso   1.00
C20    C     0.42620   0.78120   0.61070   0.01267  Uiso   1.00
C21    C     0.80100   0.34640   0.02599   0.01267  Uiso   1.00
C22    C     0.76820   0.43960   0.04895   0.01267  Uiso   1.00
C23    C     0.92240   0.39580   0.08863   0.01267  Uiso   1.00
C24    C     0.75870   0.27930   0.97742   0.01267  Uiso   1.00
C25    C     0.68170   0.51270   0.03714   0.01267  Uiso   1.00
C26    C     0.02340   0.40780   0.12256   0.01267  Uiso   1.00
C27    C     0.10320   0.47240   0.08710   0.01267  Uiso   1.00
C28    C     0.20090   0.49830   0.12330   0.01267  Uiso   1.00
C29    C     0.05480   0.17070   0.86565   0.01267  Uiso   1.00
C30    C     0.07380   0.28120   0.88930   0.01267  Uiso   1.00
C31    C     0.30100   0.15360   0.97401   0.01267  Uiso   1.00
C32    C     0.26820   0.06040   0.95105   0.01267  Uiso   1.00
C33    C     0.42240   0.10420   0.91137   0.01267  Uiso   1.00
C34    C     0.25870   0.22070   0.02258   0.01267  Uiso   1.00
C35    C     0.18170   0.98730   0.96286   0.01267  Uiso   1.00
C36    C     0.52340   0.09220   0.87744   0.01267  Uiso   1.00
C37    C     0.60320   0.02760   0.91290   0.01267  Uiso   1.00
C38    C     0.70090   0.00170   0.87670   0.01267  Uiso   1.00
C39    C     0.55480   0.32930   0.13435   0.01267  Uiso   1.00
C40    C     0.57380   0.21880   0.11070   0.01267  Uiso   1.00
C41    C     0.80100   0.34640   0.47401   0.01267  Uiso   1.00
C42    C     0.76820   0.43960   0.45105   0.01267  Uiso   1.00
C43    C     0.92240   0.39580   0.41137   0.01267  Uiso   1.00
C44    C     0.75870   0.27930   0.52258   0.01267  Uiso   1.00
C45    C     0.68170   0.51270   0.46286   0.01267  Uiso   1.00
C46    C     0.02340   0.40780   0.37744   0.01267  Uiso   1.00
C47    C     0.10320   0.47240   0.41290   0.01267  Uiso   1.00
C48    C     0.20090   0.49830   0.37670   0.01267  Uiso   1.00
C49    C     0.05480   0.17070   0.63435   0.01267  Uiso   1.00
C50    C     0.07380   0.28120   0.61070   0.01267  Uiso   1.00
C51    C     0.30100   0.15360   0.52599   0.01267  Uiso   1.00
C52    C     0.26820   0.06040   0.54895   0.01267  Uiso   1.00
C53    C     0.42240   0.10420   0.58863   0.01267  Uiso   1.00
C54    C     0.25870   0.22070   0.47742   0.01267  Uiso   1.00
C55    C     0.18170   0.98730   0.53714   0.01267  Uiso   1.00
C56    C     0.52340   0.09220   0.62256   0.01267  Uiso   1.00
C57    C     0.60320   0.02760   0.58710   0.01267  Uiso   1.00
C58    C     0.70090   0.00170   0.62330   0.01267  Uiso   1.00
C59    C     0.55480   0.32930   0.36565   0.01267  Uiso   1.00
C60    C     0.57380   0.21880   0.38930   0.01267  Uiso   1.00
C61    C     0.19900   0.65360   0.97401   0.01267  Uiso   1.00
C62    C     0.23180   0.56040   0.95105   0.01267  Uiso   1.00
C63    C     0.07760   0.60420   0.91137   0.01267  Uiso   1.00
C64    C     0.24130   0.72070   0.02258   0.01267  Uiso   1.00
C65    C     0.31830   0.48730   0.96286   0.01267  Uiso   1.00
C66    C     0.97660   0.59220   0.87744   0.01267  Uiso   1.00
C67    C     0.89680   0.52760   0.91290   0.01267  Uiso   1.00
C68    C     0.79910   0.50170   0.87670   0.01267  Uiso   1.00
C69    C     0.94520   0.82930   0.13435   0.01267  Uiso   1.00
C70    C     0.92620   0.71880   0.11070   0.01267  Uiso   1.00
C71    C     0.69900   0.84640   0.02599   0.01267  Uiso   1.00
C72    C     0.73180   0.93960   0.04895   0.01267  Uiso   1.00
C73    C     0.57760   0.89580   0.08863   0.01267  Uiso   1.00
C74    C     0.74130   0.77930   0.97742   0.01267  Uiso   1.00
C75    C     0.81830   0.01270   0.03714   0.01267  Uiso   1.00
C76    C     0.47660   0.90780   0.12256   0.01267  Uiso   1.00
C77    C     0.39680   0.97240   0.08710   0.01267  Uiso   1.00
C78    C     0.29910   0.99830   0.12330   0.01267  Uiso   1.00
C79    C     0.44520   0.67070   0.86565   0.01267  Uiso   1.00
C80    C     0.42620   0.78120   0.88930   0.01267  Uiso   1.00
C81    C     0.77260   0.45230   0.25000   0.01267  Uiso   1.00
C82    C     0.27260   0.04770   0.75000   0.01267  Uiso   1.00
C83    C     0.22740   0.54770   0.75000   0.01267  Uiso   1.00
C84    C     0.72740   0.95230   0.25000   0.01267  Uiso   1.00
N1     N     0.10250   0.67970   0.55105   0.01267  Uiso   1.00
N2     N     0.15360   0.53220   0.58869   0.01267  Uiso   1.00
N3     N     0.60250   0.82030   0.44895   0.01267  Uiso   1.00
N4     N     0.65360   0.96780   0.41131   0.01267  Uiso   1.00
N5     N     0.89750   0.32030   0.05105   0.01267  Uiso   1.00
N6     N     0.84640   0.46780   0.08869   0.01267  Uiso   1.00
N7     N     0.39750   0.17970   0.94895   0.01267  Uiso   1.00
N8     N     0.34640   0.03220   0.91131   0.01267  Uiso   1.00
N9     N     0.89750   0.32030   0.44895   0.01267  Uiso   1.00
N10    N     0.84640   0.46780   0.41131   0.01267  Uiso   1.00
N11    N     0.39750   0.17970   0.55105   0.01267  Uiso   1.00
N12    N     0.34640   0.03220   0.58869   0.01267  Uiso   1.00
N13    N     0.10250   0.67970   0.94895   0.01267  Uiso   1.00
N14    N     0.15360   0.53220   0.91131   0.01267  Uiso   1.00
N15    N     0.60250   0.82030   0.05105   0.01267  Uiso   1.00
N16    N     0.65360   0.96780   0.08869   0.01267  Uiso   1.00
O1     O     0.17495   0.78253   0.45524   0.01267  Uiso   1.00
O2     O     0.33507   0.71144   0.46037   0.01267  Uiso   1.00
O3     O     0.38998   0.50872   0.49884   0.01267  Uiso   1.00
O4     O     0.31909   0.40350   0.56451   0.01267  Uiso   1.00
O5     O     0.92090   0.84655   0.31312   0.01267  Uiso   1.00
O6     O     0.98395   0.89248   0.40229   0.01267  Uiso   1.00
O7     O     0.94810   0.70147   0.44216   0.01267  Uiso   1.00
O8     O     0.89130   0.65463   0.35231   0.01267  Uiso   1.00
O9     O     0.67495   0.71747   0.54476   0.01267  Uiso   1.00
O10    O     0.83507   0.78856   0.53963   0.01267  Uiso   1.00
O11    O     0.88998   0.99128   0.50116   0.01267  Uiso   1.00
O12    O     0.81909   0.09650   0.43549   0.01267  Uiso   1.00
O13    O     0.42090   0.65345   0.68688   0.01267  Uiso   1.00
O14    O     0.48395   0.60752   0.59771   0.01267  Uiso   1.00
O15    O     0.44810   0.79853   0.55784   0.01267  Uiso   1.00
O16    O     0.39130   0.84537   0.64769   0.01267  Uiso   1.00
O17    O     0.82505   0.21747   0.95524   0.01267  Uiso   1.00
O18    O     0.66493   0.28856   0.96037   0.01267  Uiso   1.00
O19    O     0.61002   0.49128   0.99884   0.01267  Uiso   1.00
O20    O     0.68091   0.59650   0.06451   0.01267  Uiso   1.00
O21    O     0.07910   0.15345   0.81312   0.01267  Uiso   1.00
O22    O     0.01605   0.10752   0.90229   0.01267  Uiso   1.00
O23    O     0.05190   0.29853   0.94216   0.01267  Uiso   1.00
O24    O     0.10870   0.34537   0.85231   0.01267  Uiso   1.00
O25    O     0.32505   0.28253   0.04476   0.01267  Uiso   1.00
O26    O     0.16493   0.21144   0.03963   0.01267  Uiso   1.00
O27    O     0.11002   0.00872   0.00116   0.01267  Uiso   1.00
O28    O     0.18091   0.90350   0.93549   0.01267  Uiso   1.00
O29    O     0.57910   0.34655   0.18688   0.01267  Uiso   1.00
O30    O     0.51605   0.39248   0.09771   0.01267  Uiso   1.00
O31    O     0.55190   0.20147   0.05784   0.01267  Uiso   1.00
O32    O     0.60870   0.15463   0.14769   0.01267  Uiso   1.00
O33    O     0.82505   0.21747   0.54476   0.01267  Uiso   1.00
O34    O     0.66493   0.28856   0.53963   0.01267  Uiso   1.00
O35    O     0.61002   0.49128   0.50116   0.01267  Uiso   1.00
O36    O     0.68091   0.59650   0.43549   0.01267  Uiso   1.00
O37    O     0.07910   0.15345   0.68688   0.01267  Uiso   1.00
O38    O     0.01605   0.10752   0.59771   0.01267  Uiso   1.00
O39    O     0.05190   0.29853   0.55784   0.01267  Uiso   1.00
O40    O     0.10870   0.34537   0.64769   0.01267  Uiso   1.00
O41    O     0.32505   0.28253   0.45524   0.01267  Uiso   1.00
O42    O     0.16493   0.21144   0.46037   0.01267  Uiso   1.00
O43    O     0.11002   0.00872   0.49884   0.01267  Uiso   1.00
O44    O     0.18091   0.90350   0.56451   0.01267  Uiso   1.00
O45    O     0.57910   0.34655   0.31312   0.01267  Uiso   1.00
O46    O     0.51605   0.39248   0.40229   0.01267  Uiso   1.00
O47    O     0.55190   0.20147   0.44216   0.01267  Uiso   1.00
O48    O     0.60870   0.15463   0.35231   0.01267  Uiso   1.00
O49    O     0.17495   0.78253   0.04476   0.01267  Uiso   1.00
O50    O     0.33507   0.71144   0.03963   0.01267  Uiso   1.00
O51    O     0.38998   0.50872   0.00116   0.01267  Uiso   1.00
O52    O     0.31909   0.40350   0.93549   0.01267  Uiso   1.00
O53    O     0.92090   0.84655   0.18688   0.01267  Uiso   1.00
O54    O     0.98395   0.89248   0.09771   0.01267  Uiso   1.00
O55    O     0.94810   0.70147   0.05784   0.01267  Uiso   1.00
O56    O     0.89130   0.65463   0.14769   0.01267  Uiso   1.00
O57    O     0.67495   0.71747   0.95524   0.01267  Uiso   1.00
O58    O     0.83507   0.78856   0.96037   0.01267  Uiso   1.00
O59    O     0.88998   0.99128   0.99884   0.01267  Uiso   1.00
O60    O     0.81909   0.09650   0.06451   0.01267  Uiso   1.00
O61    O     0.42090   0.65345   0.81312   0.01267  Uiso   1.00
O62    O     0.48395   0.60752   0.90229   0.01267  Uiso   1.00
O63    O     0.44810   0.79853   0.94216   0.01267  Uiso   1.00
O64    O     0.39130   0.84537   0.85231   0.01267  Uiso   1.00
O65    O     0.84140   0.51930   0.25000   0.01267  Uiso   1.00
O66    O     0.78720   0.35730   0.25000   0.01267  Uiso   1.00
O67    O     0.34140   0.98070   0.75000   0.01267  Uiso   1.00
O68    O     0.28720   0.14270   0.75000   0.01267  Uiso   1.00
O69    O     0.15860   0.48070   0.75000   0.01267  Uiso   1.00
O70    O     0.21280   0.64270   0.75000   0.01267  Uiso   1.00
O71    O     0.65860   0.01930   0.25000   0.01267  Uiso   1.00
O72    O     0.71280   0.85730   0.25000   0.01267  Uiso   1.00
