data_DAWCAH_clean
_audit_creation_date              2014-07-02
_audit_creation_method            'Materials Studio'
_symmetry_space_group_name_H-M    'P1'
_symmetry_Int_Tables_number       1
_symmetry_cell_setting            triclinic
loop_
_symmetry_equiv_pos_as_xyz
  x,y,z
_cell_length_a                    6.6856
_cell_length_b                    26.9967
_cell_length_c                    7.6377
_cell_angle_alpha                 90.0000
_cell_angle_beta                  90.0000
_cell_angle_gamma                 90.0000
loop_
_atom_site_label
_atom_site_type_symbol
_atom_site_fract_x
_atom_site_fract_y
_atom_site_fract_z
_atom_site_U_iso_or_equiv
_atom_site_adp_type
_atom_site_occupancy
Ni1    Ni    0.49965   0.28242   0.74604   0.01267  Uiso   1.00
Ni2    Ni    0.50035   0.71758   0.74604   0.01267  Uiso   1.00
Ni3    Ni    0.99965   0.21758   0.25396   0.01267  Uiso   1.00
Ni4    Ni    0.00035   0.78242   0.25396   0.01267  Uiso   1.00
H1     H     0.35390   0.46130   0.61900   0.01267  Uiso   1.00
H2     H     0.50760   0.15140   0.59510   0.01267  Uiso   1.00
H3     H     0.88840   0.38650   0.80370   0.01267  Uiso   1.00
H4     H     0.53230   0.39020   0.62610   0.01267  Uiso   1.00
H5     H     0.08270   0.31790   0.82520   0.01267  Uiso   1.00
H6     H     0.83050   0.47170   0.71190   0.01267  Uiso   1.00
H7     H     0.40420   0.14110   0.87110   0.01267  Uiso   1.00
H8     H     0.21320   0.14760   0.75580   0.01267  Uiso   1.00
H9     H     0.64610   0.53870   0.61900   0.01267  Uiso   1.00
H10    H     0.49240   0.84860   0.59510   0.01267  Uiso   1.00
H11    H     0.11160   0.61350   0.80370   0.01267  Uiso   1.00
H12    H     0.46770   0.60980   0.62610   0.01267  Uiso   1.00
H13    H     0.91730   0.68210   0.82520   0.01267  Uiso   1.00
H14    H     0.16950   0.52830   0.71190   0.01267  Uiso   1.00
H15    H     0.59580   0.85890   0.87110   0.01267  Uiso   1.00
H16    H     0.78680   0.85240   0.75580   0.01267  Uiso   1.00
H17    H     0.85390   0.03870   0.38100   0.01267  Uiso   1.00
H18    H     0.00760   0.34860   0.40490   0.01267  Uiso   1.00
H19    H     0.38840   0.11350   0.19630   0.01267  Uiso   1.00
H20    H     0.03230   0.10980   0.37390   0.01267  Uiso   1.00
H21    H     0.58270   0.18210   0.17480   0.01267  Uiso   1.00
H22    H     0.33050   0.02830   0.28810   0.01267  Uiso   1.00
H23    H     0.90420   0.35890   0.12890   0.01267  Uiso   1.00
H24    H     0.71320   0.35240   0.24420   0.01267  Uiso   1.00
H25    H     0.14610   0.96130   0.38100   0.01267  Uiso   1.00
H26    H     0.99240   0.65140   0.40490   0.01267  Uiso   1.00
H27    H     0.61160   0.88650   0.19630   0.01267  Uiso   1.00
H28    H     0.96770   0.89020   0.37390   0.01267  Uiso   1.00
H29    H     0.41730   0.81790   0.17480   0.01267  Uiso   1.00
H30    H     0.66950   0.97170   0.28810   0.01267  Uiso   1.00
H31    H     0.09580   0.64110   0.12890   0.01267  Uiso   1.00
H32    H     0.28680   0.64760   0.24420   0.01267  Uiso   1.00
C1     C     0.09570   0.43220   0.71480   0.01267  Uiso   1.00
C2     C     0.29510   0.43230   0.66000   0.01267  Uiso   1.00
C3     C     0.45470   0.18090   0.65410   0.01267  Uiso   1.00
C4     C     0.02220   0.38850   0.77120   0.01267  Uiso   1.00
C5     C     0.40170   0.38980   0.66790   0.01267  Uiso   1.00
C6     C     0.13920   0.34690   0.78190   0.01267  Uiso   1.00
C7     C     0.25260   0.20390   0.92670   0.01267  Uiso   1.00
C8     C     0.96810   0.47670   0.71310   0.01267  Uiso   1.00
C9     C     0.32830   0.16490   0.80320   0.01267  Uiso   1.00
C10    C     0.32680   0.21120   0.52080   0.01267  Uiso   1.00
C11    C     0.90430   0.56780   0.71480   0.01267  Uiso   1.00
C12    C     0.70490   0.56770   0.66000   0.01267  Uiso   1.00
C13    C     0.54530   0.81910   0.65410   0.01267  Uiso   1.00
C14    C     0.97780   0.61150   0.77120   0.01267  Uiso   1.00
C15    C     0.59830   0.61020   0.66790   0.01267  Uiso   1.00
C16    C     0.86080   0.65310   0.78190   0.01267  Uiso   1.00
C17    C     0.74740   0.79610   0.92670   0.01267  Uiso   1.00
C18    C     0.03190   0.52330   0.71310   0.01267  Uiso   1.00
C19    C     0.67170   0.83510   0.80320   0.01267  Uiso   1.00
C20    C     0.67320   0.78880   0.52080   0.01267  Uiso   1.00
C21    C     0.59570   0.06780   0.28520   0.01267  Uiso   1.00
C22    C     0.79510   0.06770   0.34000   0.01267  Uiso   1.00
C23    C     0.95470   0.31910   0.34590   0.01267  Uiso   1.00
C24    C     0.52220   0.11150   0.22880   0.01267  Uiso   1.00
C25    C     0.90170   0.11020   0.33210   0.01267  Uiso   1.00
C26    C     0.63920   0.15310   0.21810   0.01267  Uiso   1.00
C27    C     0.75260   0.29610   0.07330   0.01267  Uiso   1.00
C28    C     0.46810   0.02330   0.28690   0.01267  Uiso   1.00
C29    C     0.82830   0.33510   0.19680   0.01267  Uiso   1.00
C30    C     0.82680   0.28880   0.47920   0.01267  Uiso   1.00
C31    C     0.40430   0.93220   0.28520   0.01267  Uiso   1.00
C32    C     0.20490   0.93230   0.34000   0.01267  Uiso   1.00
C33    C     0.04530   0.68090   0.34590   0.01267  Uiso   1.00
C34    C     0.47780   0.88850   0.22880   0.01267  Uiso   1.00
C35    C     0.09830   0.88980   0.33210   0.01267  Uiso   1.00
C36    C     0.36080   0.84690   0.21810   0.01267  Uiso   1.00
C37    C     0.24740   0.70390   0.07330   0.01267  Uiso   1.00
C38    C     0.53190   0.97670   0.28690   0.01267  Uiso   1.00
C39    C     0.17170   0.66490   0.19680   0.01267  Uiso   1.00
C40    C     0.17320   0.71120   0.47920   0.01267  Uiso   1.00
N1     N     0.32950   0.34640   0.73310   0.01267  Uiso   1.00
N2     N     0.67050   0.65360   0.73310   0.01267  Uiso   1.00
N3     N     0.82950   0.15360   0.26690   0.01267  Uiso   1.00
N4     N     0.17050   0.84640   0.26690   0.01267  Uiso   1.00
O1     O     0.61760   0.20940   0.71930   0.01267  Uiso   1.00
O2     O     0.29110   0.24870   0.90430   0.01267  Uiso   1.00
O3     O     0.21580   0.18800   0.42000   0.01267  Uiso   1.00
O4     O     0.34940   0.25760   0.52590   0.01267  Uiso   1.00
O5     O     0.15080   0.18720   0.05170   0.01267  Uiso   1.00
O6     O     0.38240   0.79060   0.71930   0.01267  Uiso   1.00
O7     O     0.70890   0.75130   0.90430   0.01267  Uiso   1.00
O8     O     0.78420   0.81200   0.42000   0.01267  Uiso   1.00
O9     O     0.65060   0.74240   0.52590   0.01267  Uiso   1.00
O10    O     0.84920   0.81280   0.05170   0.01267  Uiso   1.00
O11    O     0.11760   0.29060   0.28070   0.01267  Uiso   1.00
O12    O     0.79110   0.25130   0.09570   0.01267  Uiso   1.00
O13    O     0.71580   0.31200   0.58000   0.01267  Uiso   1.00
O14    O     0.84940   0.24240   0.47410   0.01267  Uiso   1.00
O15    O     0.65080   0.31280   0.94830   0.01267  Uiso   1.00
O16    O     0.88240   0.70940   0.28070   0.01267  Uiso   1.00
O17    O     0.20890   0.74870   0.09570   0.01267  Uiso   1.00
O18    O     0.28420   0.68800   0.58000   0.01267  Uiso   1.00
O19    O     0.15060   0.75760   0.47410   0.01267  Uiso   1.00
O20    O     0.34920   0.68720   0.94830   0.01267  Uiso   1.00
