data_DAWCOV_clean
_audit_creation_date              2014-07-02
_audit_creation_method            'Materials Studio'
_symmetry_space_group_name_H-M    'P1'
_symmetry_Int_Tables_number       1
_symmetry_cell_setting            triclinic
loop_
_symmetry_equiv_pos_as_xyz
  x,y,z
_cell_length_a                    13.5520
_cell_length_b                    16.3329
_cell_length_c                    17.3469
_cell_angle_alpha                 67.2932
_cell_angle_beta                  67.0070
_cell_angle_gamma                 65.4890
loop_
_atom_site_label
_atom_site_type_symbol
_atom_site_fract_x
_atom_site_fract_y
_atom_site_fract_z
_atom_site_U_iso_or_equiv
_atom_site_adp_type
_atom_site_occupancy
Mn1    Mn    0.41156   0.46874   0.60204   0.01267  Uiso   1.00
Mn2    Mn    0.48234   0.03126   0.89796   0.01267  Uiso   1.00
Mn3    Mn    0.58844   0.53126   0.39796   0.01267  Uiso   1.00
Mn4    Mn    0.51766   0.96874   0.10204   0.01267  Uiso   1.00
Mn5    Mn    0.45586   0.25000   0.75000   0.01267  Uiso   1.00
Mn6    Mn    0.54414   0.75000   0.25000   0.01267  Uiso   1.00
H1     H     0.05850   0.58380   0.74960   0.01267  Uiso   1.00
H2     H     0.87040   0.60770   0.81890   0.01267  Uiso   1.00
H3     H     0.92350   0.33540   0.90920   0.01267  Uiso   1.00
H4     H     0.11380   0.31170   0.84210   0.01267  Uiso   1.00
H5     H     0.74980   0.43570   0.97450   0.01267  Uiso   1.00
H6     H     0.77830   0.52710   0.04210   0.01267  Uiso   1.00
H7     H     0.70780   0.65790   0.08990   0.01267  Uiso   1.00
H8     H     0.53610   0.79270   0.91250   0.01267  Uiso   1.00
H9     H     0.60170   0.65760   0.86800   0.01267  Uiso   1.00
H10    H     0.61040   0.39610   0.97070   0.01267  Uiso   1.00
H11    H     0.52820   0.36480   0.89660   0.01267  Uiso   1.00
H12    H     0.66590   0.52730   0.67730   0.01267  Uiso   1.00
H13    H     0.75460   0.55220   0.75160   0.01267  Uiso   1.00
H14    H     0.39190   0.91620   0.75040   0.01267  Uiso   1.00
H15    H     0.29700   0.89230   0.68110   0.01267  Uiso   1.00
H16    H     0.16810   0.16460   0.59080   0.01267  Uiso   1.00
H17    H     0.26760   0.18830   0.65790   0.01267  Uiso   1.00
H18    H     0.16000   0.06430   0.52550   0.01267  Uiso   1.00
H19    H     0.34750   0.97290   0.45790   0.01267  Uiso   1.00
H20    H     0.45560   0.84210   0.41010   0.01267  Uiso   1.00
H21    H     0.24130   0.70730   0.58750   0.01267  Uiso   1.00
H22    H     0.12730   0.84240   0.63200   0.01267  Uiso   1.00
H23    H     0.97720   0.10390   0.52930   0.01267  Uiso   1.00
H24    H     0.78960   0.13520   0.60340   0.01267  Uiso   1.00
H25    H     0.87050   0.97270   0.82270   0.01267  Uiso   1.00
H26    H     0.05840   0.94780   0.74840   0.01267  Uiso   1.00
H27    H     0.94150   0.41620   0.25040   0.01267  Uiso   1.00
H28    H     0.12960   0.39230   0.18110   0.01267  Uiso   1.00
H29    H     0.07650   0.66460   0.09080   0.01267  Uiso   1.00
H30    H     0.88620   0.68830   0.15790   0.01267  Uiso   1.00
H31    H     0.25020   0.56430   0.02550   0.01267  Uiso   1.00
H32    H     0.22170   0.47290   0.95790   0.01267  Uiso   1.00
H33    H     0.29220   0.34210   0.91010   0.01267  Uiso   1.00
H34    H     0.46390   0.20730   0.08750   0.01267  Uiso   1.00
H35    H     0.39830   0.34240   0.13200   0.01267  Uiso   1.00
H36    H     0.38960   0.60390   0.02930   0.01267  Uiso   1.00
H37    H     0.47180   0.63520   0.10340   0.01267  Uiso   1.00
H38    H     0.33410   0.47270   0.32270   0.01267  Uiso   1.00
H39    H     0.24540   0.44780   0.24840   0.01267  Uiso   1.00
H40    H     0.60810   0.08380   0.24960   0.01267  Uiso   1.00
H41    H     0.70300   0.10770   0.31890   0.01267  Uiso   1.00
H42    H     0.83190   0.83540   0.40920   0.01267  Uiso   1.00
H43    H     0.73240   0.81170   0.34210   0.01267  Uiso   1.00
H44    H     0.84000   0.93570   0.47450   0.01267  Uiso   1.00
H45    H     0.65250   0.02710   0.54210   0.01267  Uiso   1.00
H46    H     0.54440   0.15790   0.58990   0.01267  Uiso   1.00
H47    H     0.75870   0.29270   0.41250   0.01267  Uiso   1.00
H48    H     0.87270   0.15760   0.36800   0.01267  Uiso   1.00
H49    H     0.02280   0.89610   0.47070   0.01267  Uiso   1.00
H50    H     0.21040   0.86480   0.39660   0.01267  Uiso   1.00
H51    H     0.12950   0.02730   0.17730   0.01267  Uiso   1.00
H52    H     0.94160   0.05220   0.25160   0.01267  Uiso   1.00
C1     C     0.22729   0.42812   0.74330   0.01267  Uiso   1.00
C2     C     0.10571   0.44521   0.78917   0.01267  Uiso   1.00
C3     C     0.03231   0.53278   0.78260   0.01267  Uiso   1.00
C4     C     0.91936   0.54688   0.82440   0.01267  Uiso   1.00
C5     C     0.87689   0.47453   0.87349   0.01267  Uiso   1.00
C6     C     0.95007   0.38646   0.87820   0.01267  Uiso   1.00
C7     C     0.06445   0.37240   0.83690   0.01267  Uiso   1.00
C8     C     0.75266   0.48723   0.92117   0.01267  Uiso   1.00
C9     C     0.69837   0.57817   0.94985   0.01267  Uiso   1.00
C10    C     0.72855   0.58040   0.01590   0.01267  Uiso   1.00
C11    C     0.68738   0.65887   0.04417   0.01267  Uiso   1.00
C12    C     0.61617   0.73883   0.00523   0.01267  Uiso   1.00
C13    C     0.58444   0.73875   0.93917   0.01267  Uiso   1.00
C14    C     0.62472   0.65768   0.91188   0.01267  Uiso   1.00
C15    C     0.57303   0.82431   0.03523   0.01267  Uiso   1.00
C16    C     0.69281   0.47700   0.86878   0.01267  Uiso   1.00
C17    C     0.62378   0.42174   0.91090   0.01267  Uiso   1.00
C18    C     0.57376   0.40338   0.86630   0.01267  Uiso   1.00
C19    C     0.59026   0.44086   0.77782   0.01267  Uiso   1.00
C20    C     0.65593   0.49849   0.73645   0.01267  Uiso   1.00
C21    C     0.70805   0.51457   0.78173   0.01267  Uiso   1.00
C22    C     0.53689   0.41638   0.73224   0.01267  Uiso   1.00
C23    C     0.39871   0.07188   0.75670   0.01267  Uiso   1.00
C24    C     0.34009   0.05479   0.71083   0.01267  Uiso   1.00
C25    C     0.34769   0.96722   0.71740   0.01267  Uiso   1.00
C26    C     0.29064   0.95312   0.67560   0.01267  Uiso   1.00
C27    C     0.22491   0.02547   0.62651   0.01267  Uiso   1.00
C28    C     0.21473   0.11354   0.62180   0.01267  Uiso   1.00
C29    C     0.27375   0.12760   0.66310   0.01267  Uiso   1.00
C30    C     0.16106   0.01277   0.57883   0.01267  Uiso   1.00
C31    C     0.22639   0.92183   0.55015   0.01267  Uiso   1.00
C32    C     0.32485   0.91960   0.48410   0.01267  Uiso   1.00
C33    C     0.39042   0.84113   0.45583   0.01267  Uiso   1.00
C34    C     0.36023   0.76117   0.49477   0.01267  Uiso   1.00
C35    C     0.26236   0.76125   0.56083   0.01267  Uiso   1.00
C36    C     0.19428   0.84232   0.58812   0.01267  Uiso   1.00
C37    C     0.43257   0.67569   0.46477   0.01267  Uiso   1.00
C38    C     0.03859   0.02300   0.63122   0.01267  Uiso   1.00
C39    C     0.95642   0.07826   0.58910   0.01267  Uiso   1.00
C40    C     0.84344   0.09662   0.63370   0.01267  Uiso   1.00
C41    C     0.80894   0.05914   0.72218   0.01267  Uiso   1.00
C42    C     0.89087   0.00151   0.76355   0.01267  Uiso   1.00
C43    C     0.00435   0.98543   0.71827   0.01267  Uiso   1.00
C44    C     0.68551   0.08362   0.76776   0.01267  Uiso   1.00
C45    C     0.77271   0.57188   0.25670   0.01267  Uiso   1.00
C46    C     0.89429   0.55479   0.21083   0.01267  Uiso   1.00
C47    C     0.96769   0.46722   0.21740   0.01267  Uiso   1.00
C48    C     0.08064   0.45312   0.17560   0.01267  Uiso   1.00
C49    C     0.12311   0.52547   0.12651   0.01267  Uiso   1.00
C50    C     0.04993   0.61354   0.12180   0.01267  Uiso   1.00
C51    C     0.93555   0.62760   0.16310   0.01267  Uiso   1.00
C52    C     0.24734   0.51277   0.07883   0.01267  Uiso   1.00
C53    C     0.30163   0.42183   0.05015   0.01267  Uiso   1.00
C54    C     0.27145   0.41960   0.98410   0.01267  Uiso   1.00
C55    C     0.31262   0.34113   0.95583   0.01267  Uiso   1.00
C56    C     0.38383   0.26117   0.99477   0.01267  Uiso   1.00
C57    C     0.41556   0.26125   0.06083   0.01267  Uiso   1.00
C58    C     0.37528   0.34232   0.08812   0.01267  Uiso   1.00
C59    C     0.42697   0.17569   0.96477   0.01267  Uiso   1.00
C60    C     0.30719   0.52300   0.13122   0.01267  Uiso   1.00
C61    C     0.37622   0.57826   0.08910   0.01267  Uiso   1.00
C62    C     0.42624   0.59662   0.13370   0.01267  Uiso   1.00
C63    C     0.40974   0.55914   0.22218   0.01267  Uiso   1.00
C64    C     0.34407   0.50151   0.26355   0.01267  Uiso   1.00
C65    C     0.29195   0.48543   0.21827   0.01267  Uiso   1.00
C66    C     0.46311   0.58362   0.26776   0.01267  Uiso   1.00
C67    C     0.60129   0.92812   0.24330   0.01267  Uiso   1.00
C68    C     0.65991   0.94521   0.28917   0.01267  Uiso   1.00
C69    C     0.65231   0.03278   0.28260   0.01267  Uiso   1.00
C70    C     0.70936   0.04688   0.32440   0.01267  Uiso   1.00
C71    C     0.77509   0.97453   0.37349   0.01267  Uiso   1.00
C72    C     0.78527   0.88646   0.37820   0.01267  Uiso   1.00
C73    C     0.72625   0.87240   0.33690   0.01267  Uiso   1.00
C74    C     0.83894   0.98723   0.42117   0.01267  Uiso   1.00
C75    C     0.77361   0.07817   0.44985   0.01267  Uiso   1.00
C76    C     0.67515   0.08040   0.51590   0.01267  Uiso   1.00
C77    C     0.60958   0.15887   0.54417   0.01267  Uiso   1.00
C78    C     0.63977   0.23883   0.50523   0.01267  Uiso   1.00
C79    C     0.73764   0.23875   0.43917   0.01267  Uiso   1.00
C80    C     0.80572   0.15768   0.41188   0.01267  Uiso   1.00
C81    C     0.56743   0.32431   0.53523   0.01267  Uiso   1.00
C82    C     0.96141   0.97700   0.36878   0.01267  Uiso   1.00
C83    C     0.04358   0.92174   0.41090   0.01267  Uiso   1.00
C84    C     0.15656   0.90338   0.36630   0.01267  Uiso   1.00
C85    C     0.19106   0.94086   0.27782   0.01267  Uiso   1.00
C86    C     0.10913   0.99849   0.23645   0.01267  Uiso   1.00
C87    C     0.99565   0.01457   0.28173   0.01267  Uiso   1.00
C88    C     0.31449   0.91638   0.23224   0.01267  Uiso   1.00
O1     O     0.29137   0.34608   0.75512   0.01267  Uiso   1.00
O2     O     0.25963   0.49609   0.69491   0.01267  Uiso   1.00
O3     O     0.53124   0.90137   0.98843   0.01267  Uiso   1.00
O4     O     0.58151   0.81798   0.10744   0.01267  Uiso   1.00
O5     O     0.52345   0.47079   0.65931   0.01267  Uiso   1.00
O6     O     0.50776   0.34497   0.76885   0.01267  Uiso   1.00
O7     O     0.39257   0.15392   0.74488   0.01267  Uiso   1.00
O8     O     0.45063   0.00391   0.80509   0.01267  Uiso   1.00
O9     O     0.42104   0.59863   0.51157   0.01267  Uiso   1.00
O10    O     0.50693   0.68202   0.39256   0.01267  Uiso   1.00
O11    O     0.65355   0.02921   0.84069   0.01267  Uiso   1.00
O12    O     0.62158   0.15503   0.73115   0.01267  Uiso   1.00
O13    O     0.70863   0.65392   0.24488   0.01267  Uiso   1.00
O14    O     0.74037   0.50391   0.30509   0.01267  Uiso   1.00
O15    O     0.46876   0.09863   0.01157   0.01267  Uiso   1.00
O16    O     0.41849   0.18202   0.89256   0.01267  Uiso   1.00
O17    O     0.47655   0.52921   0.34069   0.01267  Uiso   1.00
O18    O     0.49224   0.65503   0.23115   0.01267  Uiso   1.00
O19    O     0.60743   0.84608   0.25512   0.01267  Uiso   1.00
O20    O     0.54937   0.99609   0.19491   0.01267  Uiso   1.00
O21    O     0.57896   0.40137   0.48843   0.01267  Uiso   1.00
O22    O     0.49307   0.31798   0.60744   0.01267  Uiso   1.00
O23    O     0.34645   0.97079   0.15931   0.01267  Uiso   1.00
O24    O     0.37842   0.84497   0.26885   0.01267  Uiso   1.00
