data_DAWDAI_clean
_audit_creation_date              2014-07-02
_audit_creation_method            'Materials Studio'
_symmetry_space_group_name_H-M    'P1'
_symmetry_Int_Tables_number       1
_symmetry_cell_setting            triclinic
loop_
_symmetry_equiv_pos_as_xyz
  x,y,z
_cell_length_a                    9.4298
_cell_length_b                    13.3185
_cell_length_c                    23.2240
_cell_angle_alpha                 94.5840
_cell_angle_beta                  90.0000
_cell_angle_gamma                 90.0000
loop_
_atom_site_label
_atom_site_type_symbol
_atom_site_fract_x
_atom_site_fract_y
_atom_site_fract_z
_atom_site_U_iso_or_equiv
_atom_site_adp_type
_atom_site_occupancy
Cd1    Cd    0.34797   0.02746   0.95459   0.01267  Uiso   1.00
Cd2    Cd    0.34797   0.47254   0.54541   0.01267  Uiso   1.00
Cd3    Cd    0.65203   0.97254   0.04541   0.01267  Uiso   1.00
Cd4    Cd    0.65203   0.52746   0.45459   0.01267  Uiso   1.00
Cd5    Cd    0.00000   0.50000   0.50000   0.01267  Uiso   1.00
Cd6    Cd    0.00000   0.00000   0.00000   0.01267  Uiso   1.00
H1     H     0.14710   0.33560   0.72350   0.01267  Uiso   1.00
H2     H     0.98400   0.33990   0.79710   0.01267  Uiso   1.00
H3     H     0.73770   0.51530   0.71200   0.01267  Uiso   1.00
H4     H     0.89640   0.50810   0.63680   0.01267  Uiso   1.00
H5     H     0.64420   0.44330   0.79280   0.01267  Uiso   1.00
H6     H     0.96340   0.56070   0.83680   0.01267  Uiso   1.00
H7     H     0.98170   0.71250   0.89200   0.01267  Uiso   1.00
H8     H     0.57040   0.70500   0.92470   0.01267  Uiso   1.00
H9     H     0.54940   0.55780   0.86870   0.01267  Uiso   1.00
H10    H     0.56230   0.28830   0.81140   0.01267  Uiso   1.00
H11    H     0.53990   0.15860   0.87140   0.01267  Uiso   1.00
H12    H     0.88410   0.25940   0.95870   0.01267  Uiso   1.00
H13    H     0.90090   0.39050   0.90030   0.01267  Uiso   1.00
H14    H     0.57470   0.93280   0.86110   0.01267  Uiso   1.00
H15    H     0.58550   0.83280   0.77630   0.01267  Uiso   1.00
H16    H     0.18960   0.74530   0.80370   0.01267  Uiso   1.00
H17    H     0.19400   0.84040   0.88970   0.01267  Uiso   1.00
H18    H     0.14710   0.16440   0.77650   0.01267  Uiso   1.00
H19    H     0.98400   0.16010   0.70290   0.01267  Uiso   1.00
H20    H     0.73770   0.98470   0.78800   0.01267  Uiso   1.00
H21    H     0.89640   0.99190   0.86320   0.01267  Uiso   1.00
H22    H     0.64420   0.05670   0.70720   0.01267  Uiso   1.00
H23    H     0.96340   0.93930   0.66320   0.01267  Uiso   1.00
H24    H     0.98170   0.78750   0.60800   0.01267  Uiso   1.00
H25    H     0.57040   0.79500   0.57530   0.01267  Uiso   1.00
H26    H     0.54940   0.94220   0.63130   0.01267  Uiso   1.00
H27    H     0.56230   0.21170   0.68860   0.01267  Uiso   1.00
H28    H     0.53990   0.34140   0.62860   0.01267  Uiso   1.00
H29    H     0.88410   0.24060   0.54130   0.01267  Uiso   1.00
H30    H     0.90090   0.10950   0.59970   0.01267  Uiso   1.00
H31    H     0.57470   0.56720   0.63890   0.01267  Uiso   1.00
H32    H     0.58550   0.66720   0.72370   0.01267  Uiso   1.00
H33    H     0.18960   0.75470   0.69630   0.01267  Uiso   1.00
H34    H     0.19400   0.65960   0.61030   0.01267  Uiso   1.00
H35    H     0.85290   0.66440   0.27650   0.01267  Uiso   1.00
H36    H     0.01600   0.66010   0.20290   0.01267  Uiso   1.00
H37    H     0.26230   0.48470   0.28800   0.01267  Uiso   1.00
H38    H     0.10360   0.49190   0.36320   0.01267  Uiso   1.00
H39    H     0.35580   0.55670   0.20720   0.01267  Uiso   1.00
H40    H     0.03660   0.43930   0.16320   0.01267  Uiso   1.00
H41    H     0.01830   0.28750   0.10800   0.01267  Uiso   1.00
H42    H     0.42960   0.29500   0.07530   0.01267  Uiso   1.00
H43    H     0.45060   0.44220   0.13130   0.01267  Uiso   1.00
H44    H     0.43770   0.71170   0.18860   0.01267  Uiso   1.00
H45    H     0.46010   0.84140   0.12860   0.01267  Uiso   1.00
H46    H     0.11590   0.74060   0.04130   0.01267  Uiso   1.00
H47    H     0.09910   0.60950   0.09970   0.01267  Uiso   1.00
H48    H     0.42530   0.06720   0.13890   0.01267  Uiso   1.00
H49    H     0.41450   0.16720   0.22370   0.01267  Uiso   1.00
H50    H     0.81040   0.25470   0.19630   0.01267  Uiso   1.00
H51    H     0.80600   0.15960   0.11030   0.01267  Uiso   1.00
H52    H     0.85290   0.83560   0.22350   0.01267  Uiso   1.00
H53    H     0.01600   0.83990   0.29710   0.01267  Uiso   1.00
H54    H     0.26230   0.01530   0.21200   0.01267  Uiso   1.00
H55    H     0.10360   0.00810   0.13680   0.01267  Uiso   1.00
H56    H     0.35580   0.94330   0.29280   0.01267  Uiso   1.00
H57    H     0.03660   0.06070   0.33680   0.01267  Uiso   1.00
H58    H     0.01830   0.21250   0.39200   0.01267  Uiso   1.00
H59    H     0.42960   0.20500   0.42470   0.01267  Uiso   1.00
H60    H     0.45060   0.05780   0.36870   0.01267  Uiso   1.00
H61    H     0.43770   0.78830   0.31140   0.01267  Uiso   1.00
H62    H     0.46010   0.65860   0.37140   0.01267  Uiso   1.00
H63    H     0.11590   0.75940   0.45870   0.01267  Uiso   1.00
H64    H     0.09910   0.89050   0.40030   0.01267  Uiso   1.00
H65    H     0.42530   0.43280   0.36110   0.01267  Uiso   1.00
H66    H     0.41450   0.33280   0.27630   0.01267  Uiso   1.00
H67    H     0.81040   0.24530   0.30370   0.01267  Uiso   1.00
H68    H     0.80600   0.34040   0.38970   0.01267  Uiso   1.00
C1     C     0.14700   0.42239   0.62559   0.01267  Uiso   1.00
C2     C     0.04040   0.42147   0.67307   0.01267  Uiso   1.00
C3     C     0.06380   0.37220   0.72050   0.01267  Uiso   1.00
C4     C     0.96600   0.37540   0.76500   0.01267  Uiso   1.00
C5     C     0.84520   0.42869   0.76269   0.01267  Uiso   1.00
C6     C     0.82070   0.47830   0.71460   0.01267  Uiso   1.00
C7     C     0.91600   0.47460   0.66950   0.01267  Uiso   1.00
C8     C     0.73740   0.44093   0.81133   0.01267  Uiso   1.00
C9     C     0.75520   0.54193   0.84663   0.01267  Uiso   1.00
C10    C     0.88280   0.58940   0.85430   0.01267  Uiso   1.00
C11    C     0.89410   0.68060   0.88810   0.01267  Uiso   1.00
C12    C     0.77940   0.72360   0.91540   0.01267  Uiso   1.00
C13    C     0.65070   0.67610   0.90700   0.01267  Uiso   1.00
C14    C     0.63810   0.58790   0.87360   0.01267  Uiso   1.00
C15    C     0.79080   0.81971   0.95321   0.01267  Uiso   1.00
C16    C     0.73120   0.35354   0.85014   0.01267  Uiso   1.00
C17    C     0.62620   0.28350   0.84160   0.01267  Uiso   1.00
C18    C     0.61340   0.20490   0.87710   0.01267  Uiso   1.00
C19    C     0.71130   0.19569   0.92149   0.01267  Uiso   1.00
C20    C     0.81800   0.26520   0.92950   0.01267  Uiso   1.00
C21    C     0.82820   0.34370   0.89430   0.01267  Uiso   1.00
C22    C     0.69630   0.11285   0.96045   0.01267  Uiso   1.00
C23    C     0.49590   0.89410   0.84980   0.01267  Uiso   1.00
C24    C     0.50240   0.83490   0.79790   0.01267  Uiso   1.00
C25    C     0.38760   0.77980   0.77820   0.01267  Uiso   1.00
C26    C     0.27000   0.78270   0.81440   0.01267  Uiso   1.00
C27    C     0.27310   0.84070   0.86590   0.01267  Uiso   1.00
C28    C     0.14700   0.07761   0.87441   0.01267  Uiso   1.00
C29    C     0.04040   0.07853   0.82693   0.01267  Uiso   1.00
C30    C     0.06380   0.12780   0.77950   0.01267  Uiso   1.00
C31    C     0.96600   0.12460   0.73500   0.01267  Uiso   1.00
C32    C     0.84520   0.07131   0.73731   0.01267  Uiso   1.00
C33    C     0.82070   0.02170   0.78540   0.01267  Uiso   1.00
C34    C     0.91600   0.02540   0.83050   0.01267  Uiso   1.00
C35    C     0.73740   0.05907   0.68867   0.01267  Uiso   1.00
C36    C     0.75520   0.95807   0.65337   0.01267  Uiso   1.00
C37    C     0.88280   0.91060   0.64570   0.01267  Uiso   1.00
C38    C     0.89410   0.81940   0.61190   0.01267  Uiso   1.00
C39    C     0.77940   0.77640   0.58460   0.01267  Uiso   1.00
C40    C     0.65070   0.82390   0.59300   0.01267  Uiso   1.00
C41    C     0.63810   0.91210   0.62640   0.01267  Uiso   1.00
C42    C     0.79080   0.68029   0.54679   0.01267  Uiso   1.00
C43    C     0.73120   0.14646   0.64986   0.01267  Uiso   1.00
C44    C     0.62620   0.21650   0.65840   0.01267  Uiso   1.00
C45    C     0.61340   0.29510   0.62290   0.01267  Uiso   1.00
C46    C     0.71130   0.30431   0.57851   0.01267  Uiso   1.00
C47    C     0.81800   0.23480   0.57050   0.01267  Uiso   1.00
C48    C     0.82820   0.15630   0.60570   0.01267  Uiso   1.00
C49    C     0.69630   0.38715   0.53955   0.01267  Uiso   1.00
C50    C     0.49590   0.60590   0.65020   0.01267  Uiso   1.00
C51    C     0.50240   0.66510   0.70210   0.01267  Uiso   1.00
C52    C     0.38760   0.72020   0.72180   0.01267  Uiso   1.00
C53    C     0.27000   0.71730   0.68560   0.01267  Uiso   1.00
C54    C     0.27310   0.65930   0.63410   0.01267  Uiso   1.00
C55    C     0.85300   0.57761   0.37441   0.01267  Uiso   1.00
C56    C     0.95960   0.57853   0.32693   0.01267  Uiso   1.00
C57    C     0.93620   0.62780   0.27950   0.01267  Uiso   1.00
C58    C     0.03400   0.62460   0.23500   0.01267  Uiso   1.00
C59    C     0.15480   0.57131   0.23731   0.01267  Uiso   1.00
C60    C     0.17930   0.52170   0.28540   0.01267  Uiso   1.00
C61    C     0.08400   0.52540   0.33050   0.01267  Uiso   1.00
C62    C     0.26260   0.55907   0.18867   0.01267  Uiso   1.00
C63    C     0.24480   0.45807   0.15337   0.01267  Uiso   1.00
C64    C     0.11720   0.41060   0.14570   0.01267  Uiso   1.00
C65    C     0.10590   0.31940   0.11190   0.01267  Uiso   1.00
C66    C     0.22060   0.27640   0.08460   0.01267  Uiso   1.00
C67    C     0.34930   0.32390   0.09300   0.01267  Uiso   1.00
C68    C     0.36190   0.41210   0.12640   0.01267  Uiso   1.00
C69    C     0.20920   0.18029   0.04679   0.01267  Uiso   1.00
C70    C     0.26880   0.64646   0.14986   0.01267  Uiso   1.00
C71    C     0.37380   0.71650   0.15840   0.01267  Uiso   1.00
C72    C     0.38660   0.79510   0.12290   0.01267  Uiso   1.00
C73    C     0.28870   0.80431   0.07851   0.01267  Uiso   1.00
C74    C     0.18200   0.73480   0.07050   0.01267  Uiso   1.00
C75    C     0.17180   0.65630   0.10570   0.01267  Uiso   1.00
C76    C     0.30370   0.88715   0.03955   0.01267  Uiso   1.00
C77    C     0.50410   0.10590   0.15020   0.01267  Uiso   1.00
C78    C     0.49760   0.16510   0.20210   0.01267  Uiso   1.00
C79    C     0.61240   0.22020   0.22180   0.01267  Uiso   1.00
C80    C     0.73000   0.21730   0.18560   0.01267  Uiso   1.00
C81    C     0.72690   0.15930   0.13410   0.01267  Uiso   1.00
C82    C     0.85300   0.92239   0.12559   0.01267  Uiso   1.00
C83    C     0.95960   0.92147   0.17307   0.01267  Uiso   1.00
C84    C     0.93620   0.87220   0.22050   0.01267  Uiso   1.00
C85    C     0.03400   0.87540   0.26500   0.01267  Uiso   1.00
C86    C     0.15480   0.92869   0.26269   0.01267  Uiso   1.00
C87    C     0.17930   0.97830   0.21460   0.01267  Uiso   1.00
C88    C     0.08400   0.97460   0.16950   0.01267  Uiso   1.00
C89    C     0.26260   0.94093   0.31133   0.01267  Uiso   1.00
C90    C     0.24480   0.04193   0.34663   0.01267  Uiso   1.00
C91    C     0.11720   0.08940   0.35430   0.01267  Uiso   1.00
C92    C     0.10590   0.18060   0.38810   0.01267  Uiso   1.00
C93    C     0.22060   0.22360   0.41540   0.01267  Uiso   1.00
C94    C     0.34930   0.17610   0.40700   0.01267  Uiso   1.00
C95    C     0.36190   0.08790   0.37360   0.01267  Uiso   1.00
C96    C     0.20920   0.31971   0.45321   0.01267  Uiso   1.00
C97    C     0.26880   0.85354   0.35014   0.01267  Uiso   1.00
C98    C     0.37380   0.78350   0.34160   0.01267  Uiso   1.00
C99    C     0.38660   0.70490   0.37710   0.01267  Uiso   1.00
C100   C     0.28870   0.69569   0.42149   0.01267  Uiso   1.00
C101   C     0.18200   0.76520   0.42950   0.01267  Uiso   1.00
C102   C     0.17180   0.84370   0.39430   0.01267  Uiso   1.00
C103   C     0.30370   0.61285   0.46045   0.01267  Uiso   1.00
C104   C     0.50410   0.39410   0.34980   0.01267  Uiso   1.00
C105   C     0.49760   0.33490   0.29790   0.01267  Uiso   1.00
C106   C     0.61240   0.27980   0.27820   0.01267  Uiso   1.00
C107   C     0.73000   0.28270   0.31440   0.01267  Uiso   1.00
C108   C     0.72690   0.34070   0.36590   0.01267  Uiso   1.00
N1     N     0.38490   0.89815   0.88365   0.01267  Uiso   1.00
N2     N     0.38490   0.60185   0.61635   0.01267  Uiso   1.00
N3     N     0.61510   0.10185   0.11635   0.01267  Uiso   1.00
N4     N     0.61510   0.39815   0.38365   0.01267  Uiso   1.00
O1     O     0.11340   0.46473   0.58083   0.01267  Uiso   1.00
O2     O     0.26810   0.38772   0.63132   0.01267  Uiso   1.00
O3     O     0.58440   0.06140   0.95970   0.01267  Uiso   1.00
O4     O     0.79320   0.09712   0.99502   0.01267  Uiso   1.00
O5     O     0.90380   0.86909   0.95129   0.01267  Uiso   1.00
O6     O     0.68540   0.84285   0.98325   0.01267  Uiso   1.00
O7     O     0.11340   0.03527   0.91917   0.01267  Uiso   1.00
O8     O     0.26810   0.11228   0.86868   0.01267  Uiso   1.00
O9     O     0.58440   0.43860   0.54030   0.01267  Uiso   1.00
O10    O     0.79320   0.40288   0.50498   0.01267  Uiso   1.00
O11    O     0.90380   0.63091   0.54871   0.01267  Uiso   1.00
O12    O     0.68540   0.65715   0.51675   0.01267  Uiso   1.00
O13    O     0.88660   0.53527   0.41917   0.01267  Uiso   1.00
O14    O     0.73190   0.61228   0.36868   0.01267  Uiso   1.00
O15    O     0.41560   0.93860   0.04030   0.01267  Uiso   1.00
O16    O     0.20680   0.90288   0.00498   0.01267  Uiso   1.00
O17    O     0.09620   0.13091   0.04871   0.01267  Uiso   1.00
O18    O     0.31460   0.15715   0.01675   0.01267  Uiso   1.00
O19    O     0.88660   0.96473   0.08083   0.01267  Uiso   1.00
O20    O     0.73190   0.88772   0.13132   0.01267  Uiso   1.00
O21    O     0.41560   0.56140   0.45970   0.01267  Uiso   1.00
O22    O     0.20680   0.59712   0.49502   0.01267  Uiso   1.00
O23    O     0.09620   0.36909   0.45129   0.01267  Uiso   1.00
O24    O     0.31460   0.34285   0.48325   0.01267  Uiso   1.00
