data_image0
_cell_length_a       14.2938
_cell_length_b       14.8561
_cell_length_c       23.1087
_cell_angle_alpha    92.7867
_cell_angle_beta     91.5679
_cell_angle_gamma    109.889

_symmetry_space_group_name_H-M    "P 1"
_symmetry_int_tables_number       1

loop_
  _symmetry_equiv_pos_as_xyz
  'x, y, z'

loop_
  _atom_site_label
  _atom_site_occupancy
  _atom_site_fract_x
  _atom_site_fract_y
  _atom_site_fract_z
  _atom_site_thermal_displace_type
  _atom_site_B_iso_or_equiv
  _atom_site_type_symbol
  Cu1      1.0000 0.14560  0.77030  0.19256  Biso   1.000  Cu
  Cu2      1.0000 0.06780  0.42790  0.02455  Biso   1.000  Cu
  Cu3      1.0000 0.07880  0.32120  0.66095  Biso   1.000  Cu
  Cu4      1.0000 0.13650  0.02790  0.40075  Biso   1.000  Cu
  Cu5      1.0000 0.96240  0.20380  0.22981  Biso   1.000  Cu
  Cu6      1.0000 0.07870  0.95640  0.53804  Biso   1.000  Cu
  Cu7      1.0000 0.12820  0.51890  0.89475  Biso   1.000  Cu
  N1       1.0000 0.04320  0.80730  0.14840  Biso   1.000  N
  N2       1.0000 0.11810  0.67590  0.12520  Biso   1.000  N
  N3       1.0000 0.09350  0.87730  0.29940  Biso   1.000  N
  N4       1.0000 0.14210  0.82750  0.26730  Biso   1.000  N
  C1       1.0000 0.55710  0.03820  0.37570  Biso   1.000  C
  H1       1.0000 0.61420  0.02300  0.38260  Biso   1.000  H
  N5       1.0000 0.26800  0.74990  0.22600  Biso   1.000  N
  N6       1.0000 0.98550  0.34250  0.08120  Biso   1.000  N
  N7       1.0000 0.36790  0.01800  0.49830  Biso   1.000  N
  N8       1.0000 0.94750  0.25360  0.15450  Biso   1.000  N
  N9       1.0000 0.29880  0.98920  0.53570  Biso   1.000  N
  N10      1.0000 0.07240  0.55140  0.06880  Biso   1.000  N
  N11      1.0000 0.21890  0.00070  0.51040  Biso   1.000  N
  N12      1.0000 0.14000  0.90510  0.35000  Biso   1.000  N
  N13      1.0000 0.05420  0.09230  0.36540  Biso   1.000  N
  N14      1.0000 0.05150  0.39690  0.72350  Biso   1.000  N
  N15      1.0000 0.85490  0.26090  0.25020  Biso   1.000  N
  N16      1.0000 0.00610  0.27850  0.10880  Biso   1.000  N
  N17      1.0000 0.01050  0.48780  0.78730  Biso   1.000  N
  N18      1.0000 0.92680  0.14400  0.35680  Biso   1.000  N
  N19      1.0000 0.22040  0.48230  0.94360  Biso   1.000  N
  N20      1.0000 0.98840  0.34400  0.59540  Biso   1.000  N
  N21      1.0000 0.10690  0.14260  0.60390  Biso   1.000  N
  N22      1.0000 0.01810  0.60430  0.05110  Biso   1.000  N
  N23      1.0000 0.07460  0.45530  0.81640  Biso   1.000  N
  N24      1.0000 0.91000  0.36490  0.10860  Biso   1.000  N
  N25      1.0000 0.23570  0.03240  0.45730  Biso   1.000  N
  N26      1.0000 0.99420  0.45370  0.73240  Biso   1.000  N
  N27      1.0000 0.07880  0.21760  0.60560  Biso   1.000  N
  N28      1.0000 0.20440  0.45560  0.99900  Biso   1.000  N
  N29      1.0000 0.13490  0.59580  0.11340  Biso   1.000  N
  N30      1.0000 0.16620  0.29840  0.72560  Biso   1.000  N
  N31      1.0000 0.06620  0.08820  0.56110  Biso   1.000  N
  N32      1.0000 0.00470  0.12570  0.52910  Biso   1.000  N
  N33      1.0000 0.22080  0.87880  0.35330  Biso   1.000  N
  N34      1.0000 0.36700  0.49940  0.98050  Biso   1.000  N
  N35      1.0000 0.98690  0.17380  0.30900  Biso   1.000  N
  N36      1.0000 0.31640  0.50910  0.92850  Biso   1.000  N
  N37      1.0000 0.97450  0.10360  0.38820  Biso   1.000  N
  N38      1.0000 0.43800  0.46300  0.07970  Biso   1.000  N
  C2       1.0000 0.80100  0.25700  0.29660  Biso   1.000  C
  H2       1.0000 0.81570  0.22550  0.32780  Biso   1.000  H
  C3       1.0000 0.75100  0.34100  0.20450  Biso   1.000  C
  H3       1.0000 0.72990  0.36540  0.17190  Biso   1.000  H
  C4       1.0000 0.72800  0.29300  0.30270  Biso   1.000  C
  H4       1.0000 0.69450  0.28690  0.33700  Biso   1.000  H
  C5       1.0000 0.70300  0.33900  0.25730  Biso   1.000  C
  H5       1.0000 0.65590  0.36890  0.26170  Biso   1.000  H
  C6       1.0000 0.33000  0.71800  0.20120  Biso   1.000  C
  H6       1.0000 0.31340  0.69410  0.16290  Biso   1.000  H
  C7       1.0000 0.41500  0.71500  0.22410  Biso   1.000  C
  H7       1.0000 0.45190  0.68240  0.20530  Biso   1.000  H
  C8       1.0000 0.44600  0.76400  0.27780  Biso   1.000  C
  H8       1.0000 0.51040  0.77440  0.29280  Biso   1.000  H
  C9       1.0000 0.38300  0.79800  0.30930  Biso   1.000  C
  H9       1.0000 0.40000  0.82570  0.34680  Biso   1.000  H
  C10      1.0000 0.42500  0.42700  0.17910  Biso   1.000  C
  H10      1.0000 0.45810  0.42170  0.21340  Biso   1.000  H
  C11      1.0000 0.33800  0.45500  0.07500  Biso   1.000  C
  C12      1.0000 0.47400  0.44500  0.12840  Biso   1.000  C
  H11      1.0000 0.53940  0.44460  0.12890  Biso   1.000  H
  C13      1.0000 0.32200  0.41600  0.17760  Biso   1.000  C
  H12      1.0000 0.28360  0.39780  0.20990  Biso   1.000  H
  C14      1.0000 0.27800  0.43400  0.12340  Biso   1.000  C
  H13      1.0000 0.21250  0.43210  0.12090  Biso   1.000  H
  C15      1.0000 0.82800  0.30700  0.20260  Biso   1.000  C
  C16      1.0000 0.29000  0.78800  0.28100  Biso   1.000  C
  C17      1.0000 0.92200  0.86200  0.07130  Biso   1.000  C
  H14      1.0000 0.88330  0.88070  0.04420  Biso   1.000  H
  C18      1.0000 0.95300  0.78600  0.06060  Biso   1.000  C
  H15      1.0000 0.93180  0.74910  0.02600  Biso   1.000  H
  C19      1.0000 0.01400  0.76200  0.09920  Biso   1.000  C
  C20      1.0000 0.01100  0.88200  0.16370  Biso   1.000  C
  H16      1.0000 0.02860  0.91560  0.19970  Biso   1.000  H
  C21      1.0000 0.94900  0.90700  0.12090  Biso   1.000  C
  H17      1.0000 0.92700  0.95770  0.13030  Biso   1.000  H
  C22      1.0000 0.16100  0.34400  0.77690  Biso   1.000  C
  C23      1.0000 0.21600  0.32900  0.82670  Biso   1.000  C
  H18      1.0000 0.21200  0.35810  0.86270  Biso   1.000  H
  C24      1.0000 0.22000  0.24000  0.72440  Biso   1.000  C
  H19      1.0000 0.21920  0.20460  0.69000  Biso   1.000  H
  C25      1.0000 0.27600  0.27000  0.82060  Biso   1.000  C
  H20      1.0000 0.31310  0.26180  0.85210  Biso   1.000  H
  C26      1.0000 0.27700  0.22900  0.77040  Biso   1.000  C
  H21      1.0000 0.31730  0.19200  0.76540  Biso   1.000  H
  N39      1.0000 0.49010  0.03080  0.41920  Biso   1.000  N
  C27      1.0000 0.92300  0.28900  0.49900  Biso   1.000  C
  H22      1.0000 0.91730  0.24820  0.46600  Biso   1.000  H
  C28      1.0000 0.88900  0.36200  0.49940  Biso   1.000  C
  H23      1.0000 0.85560  0.36900  0.46570  Biso   1.000  H
  C29      1.0000 0.96800  0.27600  0.55040  Biso   1.000  C
  C30      1.0000 0.95800  0.41500  0.59260  Biso   1.000  C
  H24      1.0000 0.97470  0.46150  0.62320  Biso   1.000  H
  C31      1.0000 0.89800  0.42700  0.54410  Biso   1.000  C
  H25      1.0000 0.86900  0.47390  0.54380  Biso   1.000  H
  C32      1.0000 0.40480  0.05360  0.40890  Biso   1.000  C
  C33      1.0000 0.38640  0.08380  0.35510  Biso   1.000  C
  H26      1.0000 0.32930  0.09900  0.34820  Biso   1.000  H
  C34      1.0000 0.45350  0.09110  0.31160  Biso   1.000  C
  H27      1.0000 0.44120  0.11130  0.27560  Biso   1.000  H
  C35      1.0000 0.53880  0.06830  0.32190  Biso   1.000  C
  H28      1.0000 0.58360  0.07330  0.29280  Biso   1.000  H
  C36      1.0000 0.04700  0.68100  0.08820  Biso   1.000  C
  C37      1.0000 0.21800  0.83100  0.30370  Biso   1.000  C
  C38      1.0000 0.33100  0.03800  0.45270  Biso   1.000  C
  C39      1.0000 0.30000  0.47000  0.01800  Biso   1.000  C
  C40      1.0000 0.01700  0.20600  0.55900  Biso   1.000  C
  C41      1.0000 0.89100  0.30700  0.15400  Biso   1.000  C
  C42      1.0000 0.09900  0.40100  0.77540  Biso   1.000  C
  C43      1.0000 0.05800  0.13000  0.31230  Biso   1.000  C
  C44      1.0000 0.23000  0.15860  0.16970  Biso   1.000  C
  H29      1.0000 0.26690  0.16510  0.13670  Biso   1.000  H
  C45      1.0000 0.14000  0.17510  0.16820  Biso   1.000  C
  H30      1.0000 0.11660  0.19270  0.13410  Biso   1.000  H
  N40      1.0000 0.08490  0.16550  0.21750  Biso   1.000  N
  C46      1.0000 0.11980  0.13930  0.26850  Biso   1.000  C
  C47      1.0000 0.20990  0.12280  0.27010  Biso   1.000  C
  H31      1.0000 0.23320  0.10520  0.30420  Biso   1.000  H
  C48      1.0000 0.26500  0.13240  0.22070  Biso   1.000  C
  H32      1.0000 0.32520  0.12140  0.22170  Biso   1.000  H
  Cu8      1.0000 0.85440  0.22970  0.80744  Biso   1.000  Cu
  Cu9      1.0000 0.93220  0.57210  0.97545  Biso   1.000  Cu
  Cu10     1.0000 0.92120  0.67880  0.33905  Biso   1.000  Cu
  Cu11     1.0000 0.86350  0.97210  0.59925  Biso   1.000  Cu
  Cu12     1.0000 0.03760  0.79620  0.77019  Biso   1.000  Cu
  Cu13     1.0000 0.92130  0.04360  0.46196  Biso   1.000  Cu
  Cu14     1.0000 0.87180  0.48110  0.10525  Biso   1.000  Cu
  N41      1.0000 0.95680  0.19270  0.85160  Biso   1.000  N
  N42      1.0000 0.88190  0.32410  0.87480  Biso   1.000  N
  N43      1.0000 0.90650  0.12270  0.70060  Biso   1.000  N
  N44      1.0000 0.85790  0.17250  0.73270  Biso   1.000  N
  C49      1.0000 0.44290  0.96180  0.62430  Biso   1.000  C
  H33      1.0000 0.38580  0.97700  0.61740  Biso   1.000  H
  N45      1.0000 0.73200  0.25010  0.77400  Biso   1.000  N
  N46      1.0000 0.01450  0.65750  0.91880  Biso   1.000  N
  N47      1.0000 0.63210  0.98200  0.50170  Biso   1.000  N
  N48      1.0000 0.05250  0.74640  0.84550  Biso   1.000  N
  N49      1.0000 0.70120  0.01080  0.46430  Biso   1.000  N
  N50      1.0000 0.92760  0.44860  0.93120  Biso   1.000  N
  N51      1.0000 0.78110  0.99930  0.48960  Biso   1.000  N
  N52      1.0000 0.86000  0.09490  0.65000  Biso   1.000  N
  N53      1.0000 0.94580  0.90770  0.63460  Biso   1.000  N
  N54      1.0000 0.94850  0.60310  0.27650  Biso   1.000  N
  N55      1.0000 0.14510  0.73910  0.74980  Biso   1.000  N
  N56      1.0000 0.99390  0.72150  0.89120  Biso   1.000  N
  N57      1.0000 0.98950  0.51220  0.21270  Biso   1.000  N
  N58      1.0000 0.07320  0.85600  0.64320  Biso   1.000  N
  N59      1.0000 0.77960  0.51770  0.05640  Biso   1.000  N
  N60      1.0000 0.01160  0.65600  0.40460  Biso   1.000  N
  N61      1.0000 0.89310  0.85740  0.39610  Biso   1.000  N
  N62      1.0000 0.98190  0.39570  0.94890  Biso   1.000  N
  N63      1.0000 0.92540  0.54470  0.18360  Biso   1.000  N
  N64      1.0000 0.09000  0.63510  0.89140  Biso   1.000  N
  N65      1.0000 0.76430  0.96760  0.54270  Biso   1.000  N
  N66      1.0000 0.00580  0.54630  0.26760  Biso   1.000  N
  N67      1.0000 0.92120  0.78240  0.39440  Biso   1.000  N
  N68      1.0000 0.79560  0.54440  0.00100  Biso   1.000  N
  N69      1.0000 0.86510  0.40420  0.88660  Biso   1.000  N
  N70      1.0000 0.83380  0.70160  0.27440  Biso   1.000  N
  N71      1.0000 0.93380  0.91180  0.43890  Biso   1.000  N
  N72      1.0000 0.99530  0.87430  0.47090  Biso   1.000  N
  N73      1.0000 0.77920  0.12120  0.64670  Biso   1.000  N
  N74      1.0000 0.63300  0.50060  0.01950  Biso   1.000  N
  N75      1.0000 0.01310  0.82620  0.69100  Biso   1.000  N
  N76      1.0000 0.68360  0.49090  0.07150  Biso   1.000  N
  N77      1.0000 0.02550  0.89640  0.61180  Biso   1.000  N
  N78      1.0000 0.56200  0.53700  0.92030  Biso   1.000  N
  C50      1.0000 0.19900  0.74300  0.70340  Biso   1.000  C
  H34      1.0000 0.18430  0.77450  0.67220  Biso   1.000  H
  C51      1.0000 0.24900  0.65900  0.79550  Biso   1.000  C
  H35      1.0000 0.27010  0.63460  0.82810  Biso   1.000  H
  C52      1.0000 0.27200  0.70700  0.69730  Biso   1.000  C
  H36      1.0000 0.30550  0.71310  0.66300  Biso   1.000  H
  C53      1.0000 0.29700  0.66100  0.74270  Biso   1.000  C
  H37      1.0000 0.34410  0.63110  0.73830  Biso   1.000  H
  C54      1.0000 0.67000  0.28200  0.79880  Biso   1.000  C
  H38      1.0000 0.68660  0.30590  0.83710  Biso   1.000  H
  C55      1.0000 0.58500  0.28500  0.77590  Biso   1.000  C
  H39      1.0000 0.54810  0.31760  0.79470  Biso   1.000  H
  C56      1.0000 0.55400  0.23600  0.72220  Biso   1.000  C
  H40      1.0000 0.48960  0.22560  0.70720  Biso   1.000  H
  C57      1.0000 0.61700  0.20200  0.69070  Biso   1.000  C
  H41      1.0000 0.60000  0.17430  0.65320  Biso   1.000  H
  C58      1.0000 0.57500  0.57300  0.82090  Biso   1.000  C
  H42      1.0000 0.54190  0.57830  0.78660  Biso   1.000  H
  C59      1.0000 0.66200  0.54500  0.92500  Biso   1.000  C
  C60      1.0000 0.52600  0.55500  0.87160  Biso   1.000  C
  H43      1.0000 0.46060  0.55540  0.87110  Biso   1.000  H
  C61      1.0000 0.67800  0.58400  0.82240  Biso   1.000  C
  H44      1.0000 0.71640  0.60220  0.79010  Biso   1.000  H
  C62      1.0000 0.72200  0.56600  0.87660  Biso   1.000  C
  H45      1.0000 0.78750  0.56790  0.87910  Biso   1.000  H
  C63      1.0000 0.17200  0.69300  0.79740  Biso   1.000  C
  C64      1.0000 0.71000  0.21200  0.71900  Biso   1.000  C
  C65      1.0000 0.07800  0.13800  0.92870  Biso   1.000  C
  H46      1.0000 0.11670  0.11930  0.95580  Biso   1.000  H
  C66      1.0000 0.04700  0.21400  0.93940  Biso   1.000  C
  H47      1.0000 0.06820  0.25090  0.97400  Biso   1.000  H
  C67      1.0000 0.98600  0.23800  0.90080  Biso   1.000  C
  C68      1.0000 0.98900  0.11800  0.83630  Biso   1.000  C
  H48      1.0000 0.97140  0.08440  0.80030  Biso   1.000  H
  C69      1.0000 0.05100  0.09300  0.87910  Biso   1.000  C
  H49      1.0000 0.07300  0.04230  0.86970  Biso   1.000  H
  C70      1.0000 0.83900  0.65600  0.22310  Biso   1.000  C
  C71      1.0000 0.78400  0.67100  0.17330  Biso   1.000  C
  H50      1.0000 0.78800  0.64190  0.13730  Biso   1.000  H
  C72      1.0000 0.78000  0.76000  0.27560  Biso   1.000  C
  H51      1.0000 0.78080  0.79540  0.31000  Biso   1.000  H
  C73      1.0000 0.72400  0.73000  0.17940  Biso   1.000  C
  H52      1.0000 0.68690  0.73820  0.14790  Biso   1.000  H
  C74      1.0000 0.72300  0.77100  0.22960  Biso   1.000  C
  H53      1.0000 0.68270  0.80800  0.23460  Biso   1.000  H
  N79      1.0000 0.50990  0.96920  0.58080  Biso   1.000  N
  C75      1.0000 0.07700  0.71100  0.50100  Biso   1.000  C
  H54      1.0000 0.08270  0.75180  0.53400  Biso   1.000  H
  C76      1.0000 0.11100  0.63800  0.50060  Biso   1.000  C
  H55      1.0000 0.14440  0.63100  0.53430  Biso   1.000  H
  C77      1.0000 0.03200  0.72400  0.44960  Biso   1.000  C
  C78      1.0000 0.04200  0.58500  0.40740  Biso   1.000  C
  H56      1.0000 0.02530  0.53850  0.37680  Biso   1.000  H
  C79      1.0000 0.10200  0.57300  0.45590  Biso   1.000  C
  H57      1.0000 0.13100  0.52610  0.45620  Biso   1.000  H
  C80      1.0000 0.59520  0.94640  0.59110  Biso   1.000  C
  C81      1.0000 0.61360  0.91620  0.64490  Biso   1.000  C
  H58      1.0000 0.67070  0.90100  0.65180  Biso   1.000  H
  C82      1.0000 0.54650  0.90890  0.68840  Biso   1.000  C
  H59      1.0000 0.55880  0.88870  0.72440  Biso   1.000  H
  C83      1.0000 0.46120  0.93170  0.67810  Biso   1.000  C
  H60      1.0000 0.41640  0.92670  0.70720  Biso   1.000  H
  C84      1.0000 0.95300  0.31900  0.91180  Biso   1.000  C
  C85      1.0000 0.78200  0.16900  0.69630  Biso   1.000  C
  C86      1.0000 0.66900  0.96200  0.54730  Biso   1.000  C
  C87      1.0000 0.70000  0.53000  0.98200  Biso   1.000  C
  C88      1.0000 0.98300  0.79400  0.44100  Biso   1.000  C
  C89      1.0000 0.10900  0.69300  0.84600  Biso   1.000  C
  C90      1.0000 0.90100  0.59900  0.22460  Biso   1.000  C
  C91      1.0000 0.94200  0.87000  0.68770  Biso   1.000  C
  C92      1.0000 0.77000  0.84140  0.83030  Biso   1.000  C
  H61      1.0000 0.73310  0.83490  0.86330  Biso   1.000  H
  C93      1.0000 0.86000  0.82490  0.83180  Biso   1.000  C
  H62      1.0000 0.88340  0.80730  0.86590  Biso   1.000  H
  N80      1.0000 0.91510  0.83450  0.78250  Biso   1.000  N
  C94      1.0000 0.88020  0.86070  0.73150  Biso   1.000  C
  C95      1.0000 0.79010  0.87720  0.72990  Biso   1.000  C
  H63      1.0000 0.76680  0.89480  0.69580  Biso   1.000  H
  C96      1.0000 0.73500  0.86760  0.77930  Biso   1.000  C
  H64      1.0000 0.67480  0.87860  0.77830  Biso   1.000  H
  Cu15     1.0000 0.50000  0.50000  0.00000  Biso   1.000  Cu
  Cu16     1.0000 0.50000  0.00000  0.50000  Biso   1.000  Cu
