data_image0
_cell_length_a       24.001
_cell_length_b       17.455
_cell_length_c       11.676
_cell_angle_alpha    90
_cell_angle_beta     105.096
_cell_angle_gamma    90

_symmetry_space_group_name_H-M    "P 1"
_symmetry_int_tables_number       1

loop_
  _symmetry_equiv_pos_as_xyz
  'x, y, z'

loop_
  _atom_site_label
  _atom_site_occupancy
  _atom_site_fract_x
  _atom_site_fract_y
  _atom_site_fract_z
  _atom_site_thermal_displace_type
  _atom_site_B_iso_or_equiv
  _atom_site_type_symbol
  Cl1      1.0000 0.12100  0.32000  0.75430  Biso   1.000  Cl
  C1       1.0000 0.85700  0.54000  0.16200  Biso   1.000  C
  C2       1.0000 0.85200  0.48800  0.05400  Biso   1.000  C
  Cu1      1.0000 0.05330  0.25500  0.61100  Biso   1.000  Cu
  Cu2      1.0000 0.89200  0.24400  0.39300  Biso   1.000  Cu
  Cu3      1.0000 0.03590  0.40800  0.87800  Biso   1.000  Cu
  Cu4      1.0000 0.87890  0.32140  0.83490  Biso   1.000  Cu
  Cu5      1.0000 0.03270  0.22520  0.88500  Biso   1.000  Cu
  Cu6      1.0000 0.74960  0.57240  0.99900  Biso   1.000  Cu
  Cu7      1.0000 0.05860  0.38200  0.61200  Biso   1.000  Cu
  Cu8      1.0000 0.89000  0.40200  0.38800  Biso   1.000  Cu
  N1       1.0000 0.80900  0.49700  0.95900  Biso   1.000  N
  N2       1.0000 0.88700  0.43800  0.03100  Biso   1.000  N
  N3       1.0000 0.81200  0.45200  0.88700  Biso   1.000  N
  N4       1.0000 0.86000  0.42000  0.92300  Biso   1.000  N
  N5       1.0000 0.81000  0.58700  0.15400  Biso   1.000  N
  C3       1.0000 0.90400  0.54200  0.24600  Biso   1.000  C
  H1       1.0000 0.93480  0.51010  0.24500  Biso   1.000  H
  C4       1.0000 0.90800  0.59600  0.34500  Biso   1.000  C
  H2       1.0000 0.94010  0.59800  0.40970  Biso   1.000  H
  C5       1.0000 0.86200  0.64300  0.33700  Biso   1.000  C
  H3       1.0000 0.86170  0.67730  0.39750  Biso   1.000  H
  C6       1.0000 0.81600  0.63900  0.23600  Biso   1.000  C
  H4       1.0000 0.78650  0.67590  0.22770  Biso   1.000  H
  C7       1.0000 0.23400  0.48100  0.63300  Biso   1.000  C
  H5       1.0000 0.24660  0.45980  0.70760  Biso   1.000  H
  C8       1.0000 0.26800  0.53200  0.59100  Biso   1.000  C
  H6       1.0000 0.30490  0.54460  0.63840  Biso   1.000  H
  C9       1.0000 0.24900  0.56500  0.47900  Biso   1.000  C
  H7       1.0000 0.27210  0.59860  0.45140  Biso   1.000  H
  C10      1.0000 0.19400  0.54600  0.40800  Biso   1.000  C
  H8       1.0000 0.18120  0.56790  0.33350  Biso   1.000  H
  C11      1.0000 0.15900  0.49500  0.45000  Biso   1.000  C
  N6       1.0000 0.17900  0.46300  0.56200  Biso   1.000  N
  C12      1.0000 0.08800  0.08700  0.74200  Biso   1.000  C
  H9       1.0000 0.05330  0.11150  0.73780  Biso   1.000  H
  C13      1.0000 0.13400  0.09500  0.84300  Biso   1.000  C
  N7       1.0000 0.18600  0.05800  0.84900  Biso   1.000  N
  C14      1.0000 0.19300  0.01400  0.75400  Biso   1.000  C
  H10      1.0000 0.22740  0.98940  0.75840  Biso   1.000  H
  C15      1.0000 0.14700  0.00600  0.65400  Biso   1.000  C
  H11      1.0000 0.15110  0.97630  0.59040  Biso   1.000  H
  C16      1.0000 0.09500  0.04300  0.64700  Biso   1.000  C
  H12      1.0000 0.06410  0.03740  0.58010  Biso   1.000  H
  N8       1.0000 0.80900  0.30900  0.65700  Biso   1.000  N
  C17      1.0000 0.75200  0.33300  0.63700  Biso   1.000  C
  H13      1.0000 0.73880  0.35310  0.69860  Biso   1.000  H
  C18      1.0000 0.71500  0.32800  0.52300  Biso   1.000  C
  H14      1.0000 0.67700  0.34430  0.50980  Biso   1.000  H
  C19      1.0000 0.73500  0.29800  0.43100  Biso   1.000  C
  H15      1.0000 0.71010  0.29490  0.35520  Biso   1.000  H
  C20      1.0000 0.79200  0.27400  0.45100  Biso   1.000  C
  H16      1.0000 0.80510  0.25430  0.38940  Biso   1.000  H
  C21      1.0000 0.82900  0.27900  0.56400  Biso   1.000  C
  N9       1.0000 0.19800  0.14700  0.02200  Biso   1.000  N
  N10      1.0000 0.19500  0.20500  0.10300  Biso   1.000  N
  N11      1.0000 0.13900  0.23700  0.07100  Biso   1.000  N
  N12      1.0000 0.10700  0.19800  0.96900  Biso   1.000  N
  C22      1.0000 0.14400  0.14200  0.93800  Biso   1.000  C
  N13      1.0000 0.97550  0.24600  0.73200  Biso   1.000  N
  N14      1.0000 0.92000  0.26500  0.72200  Biso   1.000  N
  C23      1.0000 0.89200  0.25800  0.60700  Biso   1.000  C
  N15      1.0000 0.93000  0.22000  0.54900  Biso   1.000  N
  N16      1.0000 0.97800  0.21700  0.62900  Biso   1.000  N
  N17      1.0000 0.06400  0.42500  0.44600  Biso   1.000  N
  C24      1.0000 0.10100  0.46800  0.38900  Biso   1.000  C
  N18      1.0000 0.07700  0.47300  0.27200  Biso   1.000  N
  N19      1.0000 0.02200  0.43600  0.26500  Biso   1.000  N
  N20      1.0000 0.98300  0.41000  0.63500  Biso   1.000  N
  Cl2      1.0000 0.62100  0.82000  0.75430  Biso   1.000  Cl
  C25      1.0000 0.35700  0.04000  0.16200  Biso   1.000  C
  C26      1.0000 0.35200  0.98800  0.05400  Biso   1.000  C
  Cu9      1.0000 0.55330  0.75500  0.61100  Biso   1.000  Cu
  Cu10     1.0000 0.39200  0.74400  0.39300  Biso   1.000  Cu
  Cu11     1.0000 0.53590  0.90800  0.87800  Biso   1.000  Cu
  Cu12     1.0000 0.37890  0.82140  0.83490  Biso   1.000  Cu
  Cu13     1.0000 0.53270  0.72520  0.88500  Biso   1.000  Cu
  Cu14     1.0000 0.24960  0.07240  0.99900  Biso   1.000  Cu
  Cu15     1.0000 0.55860  0.88200  0.61200  Biso   1.000  Cu
  Cu16     1.0000 0.39000  0.90200  0.38800  Biso   1.000  Cu
  N21      1.0000 0.30900  0.99700  0.95900  Biso   1.000  N
  N22      1.0000 0.38700  0.93800  0.03100  Biso   1.000  N
  N23      1.0000 0.31200  0.95200  0.88700  Biso   1.000  N
  N24      1.0000 0.36000  0.92000  0.92300  Biso   1.000  N
  N25      1.0000 0.31000  0.08700  0.15400  Biso   1.000  N
  C27      1.0000 0.40400  0.04200  0.24600  Biso   1.000  C
  H17      1.0000 0.43480  0.01010  0.24500  Biso   1.000  H
  C28      1.0000 0.40800  0.09600  0.34500  Biso   1.000  C
  H18      1.0000 0.44010  0.09800  0.40970  Biso   1.000  H
  C29      1.0000 0.36200  0.14300  0.33700  Biso   1.000  C
  H19      1.0000 0.36170  0.17730  0.39750  Biso   1.000  H
  C30      1.0000 0.31600  0.13900  0.23600  Biso   1.000  C
  H20      1.0000 0.28650  0.17590  0.22770  Biso   1.000  H
  C31      1.0000 0.73400  0.98100  0.63300  Biso   1.000  C
  H21      1.0000 0.74660  0.95980  0.70760  Biso   1.000  H
  C32      1.0000 0.76800  0.03200  0.59100  Biso   1.000  C
  H22      1.0000 0.80490  0.04460  0.63840  Biso   1.000  H
  C33      1.0000 0.74900  0.06500  0.47900  Biso   1.000  C
  H23      1.0000 0.77210  0.09860  0.45140  Biso   1.000  H
  C34      1.0000 0.69400  0.04600  0.40800  Biso   1.000  C
  H24      1.0000 0.68120  0.06790  0.33350  Biso   1.000  H
  C35      1.0000 0.65900  0.99500  0.45000  Biso   1.000  C
  N26      1.0000 0.67900  0.96300  0.56200  Biso   1.000  N
  C36      1.0000 0.58800  0.58700  0.74200  Biso   1.000  C
  H25      1.0000 0.55330  0.61150  0.73780  Biso   1.000  H
  C37      1.0000 0.63400  0.59500  0.84300  Biso   1.000  C
  N27      1.0000 0.68600  0.55800  0.84900  Biso   1.000  N
  C38      1.0000 0.69300  0.51400  0.75400  Biso   1.000  C
  H26      1.0000 0.72740  0.48940  0.75840  Biso   1.000  H
  C39      1.0000 0.64700  0.50600  0.65400  Biso   1.000  C
  H27      1.0000 0.65110  0.47630  0.59040  Biso   1.000  H
  C40      1.0000 0.59500  0.54300  0.64700  Biso   1.000  C
  H28      1.0000 0.56410  0.53740  0.58010  Biso   1.000  H
  N28      1.0000 0.30900  0.80900  0.65700  Biso   1.000  N
  C41      1.0000 0.25200  0.83300  0.63700  Biso   1.000  C
  H29      1.0000 0.23880  0.85310  0.69860  Biso   1.000  H
  C42      1.0000 0.21500  0.82800  0.52300  Biso   1.000  C
  H30      1.0000 0.17700  0.84430  0.50980  Biso   1.000  H
  C43      1.0000 0.23500  0.79800  0.43100  Biso   1.000  C
  H31      1.0000 0.21010  0.79490  0.35520  Biso   1.000  H
  C44      1.0000 0.29200  0.77400  0.45100  Biso   1.000  C
  H32      1.0000 0.30510  0.75430  0.38940  Biso   1.000  H
  C45      1.0000 0.32900  0.77900  0.56400  Biso   1.000  C
  N29      1.0000 0.69800  0.64700  0.02200  Biso   1.000  N
  N30      1.0000 0.69500  0.70500  0.10300  Biso   1.000  N
  N31      1.0000 0.63900  0.73700  0.07100  Biso   1.000  N
  N32      1.0000 0.60700  0.69800  0.96900  Biso   1.000  N
  C46      1.0000 0.64400  0.64200  0.93800  Biso   1.000  C
  N33      1.0000 0.47550  0.74600  0.73200  Biso   1.000  N
  N34      1.0000 0.42000  0.76500  0.72200  Biso   1.000  N
  C47      1.0000 0.39200  0.75800  0.60700  Biso   1.000  C
  N35      1.0000 0.43000  0.72000  0.54900  Biso   1.000  N
  N36      1.0000 0.47800  0.71700  0.62900  Biso   1.000  N
  N37      1.0000 0.56400  0.92500  0.44600  Biso   1.000  N
  C48      1.0000 0.60100  0.96800  0.38900  Biso   1.000  C
  N38      1.0000 0.57700  0.97300  0.27200  Biso   1.000  N
  N39      1.0000 0.52200  0.93600  0.26500  Biso   1.000  N
  N40      1.0000 0.48300  0.91000  0.63500  Biso   1.000  N
  Cl3      1.0000 0.87900  0.32000  0.24570  Biso   1.000  Cl
  C49      1.0000 0.14300  0.54000  0.83800  Biso   1.000  C
  C50      1.0000 0.14800  0.48800  0.94600  Biso   1.000  C
  Cu17     1.0000 0.94670  0.25500  0.38900  Biso   1.000  Cu
  Cu18     1.0000 0.10800  0.24400  0.60700  Biso   1.000  Cu
  Cu19     1.0000 0.96410  0.40800  0.12200  Biso   1.000  Cu
  Cu20     1.0000 0.12110  0.32140  0.16510  Biso   1.000  Cu
  Cu21     1.0000 0.96730  0.22520  0.11500  Biso   1.000  Cu
  Cu22     1.0000 0.25040  0.57240  0.00100  Biso   1.000  Cu
  Cu23     1.0000 0.94140  0.38200  0.38800  Biso   1.000  Cu
  Cu24     1.0000 0.11000  0.40200  0.61200  Biso   1.000  Cu
  N41      1.0000 0.19100  0.49700  0.04100  Biso   1.000  N
  N42      1.0000 0.11300  0.43800  0.96900  Biso   1.000  N
  N43      1.0000 0.18800  0.45200  0.11300  Biso   1.000  N
  N44      1.0000 0.14000  0.42000  0.07700  Biso   1.000  N
  N45      1.0000 0.19000  0.58700  0.84600  Biso   1.000  N
  C51      1.0000 0.09600  0.54200  0.75400  Biso   1.000  C
  H33      1.0000 0.06520  0.51010  0.75500  Biso   1.000  H
  C52      1.0000 0.09200  0.59600  0.65500  Biso   1.000  C
  H34      1.0000 0.05990  0.59800  0.59030  Biso   1.000  H
  C53      1.0000 0.13800  0.64300  0.66300  Biso   1.000  C
  H35      1.0000 0.13830  0.67730  0.60250  Biso   1.000  H
  C54      1.0000 0.18400  0.63900  0.76400  Biso   1.000  C
  H36      1.0000 0.21350  0.67590  0.77230  Biso   1.000  H
  C55      1.0000 0.76600  0.48100  0.36700  Biso   1.000  C
  H37      1.0000 0.75340  0.45980  0.29240  Biso   1.000  H
  C56      1.0000 0.73200  0.53200  0.40900  Biso   1.000  C
  H38      1.0000 0.69510  0.54460  0.36160  Biso   1.000  H
  C57      1.0000 0.75100  0.56500  0.52100  Biso   1.000  C
  H39      1.0000 0.72790  0.59860  0.54860  Biso   1.000  H
  C58      1.0000 0.80600  0.54600  0.59200  Biso   1.000  C
  H40      1.0000 0.81880  0.56790  0.66650  Biso   1.000  H
  C59      1.0000 0.84100  0.49500  0.55000  Biso   1.000  C
  N46      1.0000 0.82100  0.46300  0.43800  Biso   1.000  N
  C60      1.0000 0.91200  0.08700  0.25800  Biso   1.000  C
  H41      1.0000 0.94670  0.11150  0.26220  Biso   1.000  H
  C61      1.0000 0.86600  0.09500  0.15700  Biso   1.000  C
  N47      1.0000 0.81400  0.05800  0.15100  Biso   1.000  N
  C62      1.0000 0.80700  0.01400  0.24600  Biso   1.000  C
  H42      1.0000 0.77260  0.98940  0.24160  Biso   1.000  H
  C63      1.0000 0.85300  0.00600  0.34600  Biso   1.000  C
  H43      1.0000 0.84890  0.97630  0.40960  Biso   1.000  H
  C64      1.0000 0.90500  0.04300  0.35300  Biso   1.000  C
  H44      1.0000 0.93590  0.03740  0.41990  Biso   1.000  H
  N48      1.0000 0.19100  0.30900  0.34300  Biso   1.000  N
  C65      1.0000 0.24800  0.33300  0.36300  Biso   1.000  C
  H45      1.0000 0.26120  0.35310  0.30140  Biso   1.000  H
  C66      1.0000 0.28500  0.32800  0.47700  Biso   1.000  C
  H46      1.0000 0.32300  0.34430  0.49020  Biso   1.000  H
  C67      1.0000 0.26500  0.29800  0.56900  Biso   1.000  C
  H47      1.0000 0.28990  0.29490  0.64480  Biso   1.000  H
  C68      1.0000 0.20800  0.27400  0.54900  Biso   1.000  C
  H48      1.0000 0.19490  0.25430  0.61060  Biso   1.000  H
  C69      1.0000 0.17100  0.27900  0.43600  Biso   1.000  C
  N49      1.0000 0.80200  0.14700  0.97800  Biso   1.000  N
  N50      1.0000 0.80500  0.20500  0.89700  Biso   1.000  N
  N51      1.0000 0.86100  0.23700  0.92900  Biso   1.000  N
  N52      1.0000 0.89300  0.19800  0.03100  Biso   1.000  N
  C70      1.0000 0.85600  0.14200  0.06200  Biso   1.000  C
  N53      1.0000 0.02450  0.24600  0.26800  Biso   1.000  N
  N54      1.0000 0.08000  0.26500  0.27800  Biso   1.000  N
  C71      1.0000 0.10800  0.25800  0.39300  Biso   1.000  C
  N55      1.0000 0.07000  0.22000  0.45100  Biso   1.000  N
  N56      1.0000 0.02200  0.21700  0.37100  Biso   1.000  N
  N57      1.0000 0.93600  0.42500  0.55400  Biso   1.000  N
  C72      1.0000 0.89900  0.46800  0.61100  Biso   1.000  C
  N58      1.0000 0.92300  0.47300  0.72800  Biso   1.000  N
  N59      1.0000 0.97800  0.43600  0.73500  Biso   1.000  N
  N60      1.0000 0.01700  0.41000  0.36500  Biso   1.000  N
  Cl4      1.0000 0.37900  0.82000  0.24570  Biso   1.000  Cl
  C73      1.0000 0.64300  0.04000  0.83800  Biso   1.000  C
  C74      1.0000 0.64800  0.98800  0.94600  Biso   1.000  C
  Cu25     1.0000 0.44670  0.75500  0.38900  Biso   1.000  Cu
  Cu26     1.0000 0.60800  0.74400  0.60700  Biso   1.000  Cu
  Cu27     1.0000 0.46410  0.90800  0.12200  Biso   1.000  Cu
  Cu28     1.0000 0.62110  0.82140  0.16510  Biso   1.000  Cu
  Cu29     1.0000 0.46730  0.72520  0.11500  Biso   1.000  Cu
  Cu30     1.0000 0.75040  0.07240  0.00100  Biso   1.000  Cu
  Cu31     1.0000 0.44140  0.88200  0.38800  Biso   1.000  Cu
  Cu32     1.0000 0.61000  0.90200  0.61200  Biso   1.000  Cu
  N61      1.0000 0.69100  0.99700  0.04100  Biso   1.000  N
  N62      1.0000 0.61300  0.93800  0.96900  Biso   1.000  N
  N63      1.0000 0.68800  0.95200  0.11300  Biso   1.000  N
  N64      1.0000 0.64000  0.92000  0.07700  Biso   1.000  N
  N65      1.0000 0.69000  0.08700  0.84600  Biso   1.000  N
  C75      1.0000 0.59600  0.04200  0.75400  Biso   1.000  C
  H49      1.0000 0.56520  0.01010  0.75500  Biso   1.000  H
  C76      1.0000 0.59200  0.09600  0.65500  Biso   1.000  C
  H50      1.0000 0.55990  0.09800  0.59030  Biso   1.000  H
  C77      1.0000 0.63800  0.14300  0.66300  Biso   1.000  C
  H51      1.0000 0.63830  0.17730  0.60250  Biso   1.000  H
  C78      1.0000 0.68400  0.13900  0.76400  Biso   1.000  C
  H52      1.0000 0.71350  0.17590  0.77230  Biso   1.000  H
  C79      1.0000 0.26600  0.98100  0.36700  Biso   1.000  C
  H53      1.0000 0.25340  0.95980  0.29240  Biso   1.000  H
  C80      1.0000 0.23200  0.03200  0.40900  Biso   1.000  C
  H54      1.0000 0.19510  0.04460  0.36160  Biso   1.000  H
  C81      1.0000 0.25100  0.06500  0.52100  Biso   1.000  C
  H55      1.0000 0.22790  0.09860  0.54860  Biso   1.000  H
  C82      1.0000 0.30600  0.04600  0.59200  Biso   1.000  C
  H56      1.0000 0.31880  0.06790  0.66650  Biso   1.000  H
  C83      1.0000 0.34100  0.99500  0.55000  Biso   1.000  C
  N66      1.0000 0.32100  0.96300  0.43800  Biso   1.000  N
  C84      1.0000 0.41200  0.58700  0.25800  Biso   1.000  C
  H57      1.0000 0.44670  0.61150  0.26220  Biso   1.000  H
  C85      1.0000 0.36600  0.59500  0.15700  Biso   1.000  C
  N67      1.0000 0.31400  0.55800  0.15100  Biso   1.000  N
  C86      1.0000 0.30700  0.51400  0.24600  Biso   1.000  C
  H58      1.0000 0.27260  0.48940  0.24160  Biso   1.000  H
  C87      1.0000 0.35300  0.50600  0.34600  Biso   1.000  C
  H59      1.0000 0.34890  0.47630  0.40960  Biso   1.000  H
  C88      1.0000 0.40500  0.54300  0.35300  Biso   1.000  C
  H60      1.0000 0.43590  0.53740  0.41990  Biso   1.000  H
  N68      1.0000 0.69100  0.80900  0.34300  Biso   1.000  N
  C89      1.0000 0.74800  0.83300  0.36300  Biso   1.000  C
  H61      1.0000 0.76120  0.85310  0.30140  Biso   1.000  H
  C90      1.0000 0.78500  0.82800  0.47700  Biso   1.000  C
  H62      1.0000 0.82300  0.84430  0.49020  Biso   1.000  H
  C91      1.0000 0.76500  0.79800  0.56900  Biso   1.000  C
  H63      1.0000 0.78990  0.79490  0.64480  Biso   1.000  H
  C92      1.0000 0.70800  0.77400  0.54900  Biso   1.000  C
  H64      1.0000 0.69490  0.75430  0.61060  Biso   1.000  H
  C93      1.0000 0.67100  0.77900  0.43600  Biso   1.000  C
  N69      1.0000 0.30200  0.64700  0.97800  Biso   1.000  N
  N70      1.0000 0.30500  0.70500  0.89700  Biso   1.000  N
  N71      1.0000 0.36100  0.73700  0.92900  Biso   1.000  N
  N72      1.0000 0.39300  0.69800  0.03100  Biso   1.000  N
  C94      1.0000 0.35600  0.64200  0.06200  Biso   1.000  C
  N73      1.0000 0.52450  0.74600  0.26800  Biso   1.000  N
  N74      1.0000 0.58000  0.76500  0.27800  Biso   1.000  N
  C95      1.0000 0.60800  0.75800  0.39300  Biso   1.000  C
  N75      1.0000 0.57000  0.72000  0.45100  Biso   1.000  N
  N76      1.0000 0.52200  0.71700  0.37100  Biso   1.000  N
  N77      1.0000 0.43600  0.92500  0.55400  Biso   1.000  N
  C96      1.0000 0.39900  0.96800  0.61100  Biso   1.000  C
  N78      1.0000 0.42300  0.97300  0.72800  Biso   1.000  N
  N79      1.0000 0.47800  0.93600  0.73500  Biso   1.000  N
  N80      1.0000 0.51700  0.91000  0.36500  Biso   1.000  N
  Cl5      1.0000 0.00000  0.32500  0.00000  Biso   1.000  Cl
  Cl6      1.0000 0.50000  0.82500  0.00000  Biso   1.000  Cl
