data_DAXHIV_clean
_audit_creation_date              2014-07-02
_audit_creation_method            'Materials Studio'
_symmetry_space_group_name_H-M    'P1'
_symmetry_Int_Tables_number       1
_symmetry_cell_setting            triclinic
loop_
_symmetry_equiv_pos_as_xyz
  x,y,z
_cell_length_a                    12.0780
_cell_length_b                    12.0870
_cell_length_c                    13.6846
_cell_angle_alpha                 98.8821
_cell_angle_beta                  116.1870
_cell_angle_gamma                 69.5200
loop_
_atom_site_label
_atom_site_type_symbol
_atom_site_fract_x
_atom_site_fract_y
_atom_site_fract_z
_atom_site_U_iso_or_equiv
_atom_site_adp_type
_atom_site_occupancy
Fe1    Fe    0.00000   0.00000   0.00000   0.01267  Uiso   1.00
Fe2    Fe    0.10439   0.25846  -0.00000   0.01267  Uiso   1.00
Fe3    Fe    0.89561   0.74154  -0.00000   0.01267  Uiso   1.00
H1     H     0.90220   0.91910   0.57080   0.01267  Uiso   1.00
H2     H     0.12910   0.11460   0.60600   0.01267  Uiso   1.00
H3     H     0.66860   0.08090   0.57080   0.01267  Uiso   1.00
H4     H     0.47690   0.88540   0.60600   0.01267  Uiso   1.00
H5     H     0.09780   0.08090   0.42920   0.01267  Uiso   1.00
H6     H     0.87090   0.88540   0.39400   0.01267  Uiso   1.00
H7     H     0.33140   0.91910   0.42920   0.01267  Uiso   1.00
H8     H     0.52310   0.11460   0.39400   0.01267  Uiso   1.00
H9     H     0.52830   0.29260  -0.00000   0.01267  Uiso   1.00
H10    H     0.66340   0.56040  -0.00000   0.01267  Uiso   1.00
H11    H     0.47170   0.70740   0.00000   0.01267  Uiso   1.00
H12    H     0.33660   0.43960  -0.00000   0.01267  Uiso   1.00
C1     C     0.94280   0.95180   0.54220   0.01267  Uiso   1.00
C2     C     0.02240   0.01930   0.61000   0.01267  Uiso   1.00
C3     C     0.07660   0.06700   0.56280   0.01267  Uiso   1.00
C4     C     0.03940   0.04230   0.72280   0.01267  Uiso   1.00
C5     C     0.59940   0.04820   0.54220   0.01267  Uiso   1.00
C6     C     0.58760   0.98070   0.61000   0.01267  Uiso   1.00
C7     C     0.48620   0.93300   0.56280   0.01267  Uiso   1.00
C8     C     0.68340   0.95770   0.72280   0.01267  Uiso   1.00
C9     C     0.05720   0.04820   0.45780   0.01267  Uiso   1.00
C10    C     0.97760   0.98070   0.39000   0.01267  Uiso   1.00
C11    C     0.92340   0.93300   0.43720   0.01267  Uiso   1.00
C12    C     0.96060   0.95770   0.27720   0.01267  Uiso   1.00
C13    C     0.40060   0.95180   0.45780   0.01267  Uiso   1.00
C14    C     0.41240   0.01930   0.39000   0.01267  Uiso   1.00
C15    C     0.51380   0.06700   0.43720   0.01267  Uiso   1.00
C16    C     0.31660   0.04230   0.27720   0.01267  Uiso   1.00
C17    C     0.51740   0.37440  -0.00000   0.01267  Uiso   1.00
C18    C     0.61640   0.41720  -0.00000   0.01267  Uiso   1.00
C19    C     0.59660   0.53620  -0.00000   0.01267  Uiso   1.00
C20    C     0.73580   0.33220  -0.00000   0.01267  Uiso   1.00
C21    C     0.48260   0.62560  -0.00000   0.01267  Uiso   1.00
C22    C     0.38360   0.58280  -0.00000   0.01267  Uiso   1.00
C23    C     0.40340   0.46380  -0.00000   0.01267  Uiso   1.00
C24    C     0.26420   0.66780  -0.00000   0.01267  Uiso   1.00
C25    C     0.96940   0.50000   0.93880   0.01267  Uiso   1.00
C26    C     0.03060   0.50000   0.06120   0.01267  Uiso   1.00
N1     N     0.01944   0.97930   0.78188   0.01267  Uiso   1.00
N2     N     0.04046   0.03700   0.87712   0.01267  Uiso   1.00
N3     N     0.07386   0.12620   0.87552   0.01267  Uiso   1.00
N4     N     0.07600   0.13260   0.77980   0.01267  Uiso   1.00
N5     N     0.76244   0.02070   0.78188   0.01267  Uiso   1.00
N6     N     0.83666   0.96300   0.87712   0.01267  Uiso   1.00
N7     N     0.80166   0.87380   0.87552   0.01267  Uiso   1.00
N8     N     0.70380   0.86740   0.77980   0.01267  Uiso   1.00
N9     N     0.98056   0.02070   0.21812   0.01267  Uiso   1.00
N10    N     0.95954   0.96300   0.12288   0.01267  Uiso   1.00
N11    N     0.92614   0.87380   0.12448   0.01267  Uiso   1.00
N12    N     0.92400   0.86740   0.22020   0.01267  Uiso   1.00
N13    N     0.23756   0.97930   0.21812   0.01267  Uiso   1.00
N14    N     0.16334   0.03700   0.12288   0.01267  Uiso   1.00
N15    N     0.19834   0.12620   0.12448   0.01267  Uiso   1.00
N16    N     0.29620   0.13260   0.22020   0.01267  Uiso   1.00
N17    N     0.76730   0.21510  -0.00000   0.01267  Uiso   1.00
N18    N     0.88610   0.17460  -0.00000   0.01267  Uiso   1.00
N19    N     0.92040   0.26470  -0.00000   0.01267  Uiso   1.00
N20    N     0.83130   0.36280  -0.00000   0.01267  Uiso   1.00
N21    N     0.23270   0.78490  -0.00000   0.01267  Uiso   1.00
N22    N     0.11390   0.82540  -0.00000   0.01267  Uiso   1.00
N23    N     0.07960   0.73530  -0.00000   0.01267  Uiso   1.00
N24    N     0.16870   0.63720  -0.00000   0.01267  Uiso   1.00
O1     O     0.99712   0.40210   0.89064   0.01267  Uiso   1.00
O2     O     0.89352   0.59790   0.89064   0.01267  Uiso   1.00
O3     O     0.00288   0.59790   0.10936   0.01267  Uiso   1.00
O4     O     0.10648   0.40210   0.10936   0.01267  Uiso   1.00
