data_DAXHUH_clean
_audit_creation_date              2014-07-02
_audit_creation_method            'Materials Studio'
_symmetry_space_group_name_H-M    'P1'
_symmetry_Int_Tables_number       1
_symmetry_cell_setting            triclinic
loop_
_symmetry_equiv_pos_as_xyz
  x,y,z
_cell_length_a                    12.1060
_cell_length_b                    12.1180
_cell_length_c                    13.7208
_cell_angle_alpha                 98.9628
_cell_angle_beta                  116.1780
_cell_angle_gamma                 69.3200
loop_
_atom_site_label
_atom_site_type_symbol
_atom_site_fract_x
_atom_site_fract_y
_atom_site_fract_z
_atom_site_U_iso_or_equiv
_atom_site_adp_type
_atom_site_occupancy
Fe1    Fe    0.00000   0.00000   0.00000   0.01267  Uiso   1.00
Fe2    Fe    0.10403   0.25705   0.00000   0.01267  Uiso   1.00
Fe3    Fe    0.89597   0.74295   1.00000   0.01267  Uiso   1.00
H1     H     0.90920   0.91260   0.57200   0.01267  Uiso   1.00
H2     H     0.11690   0.12600   0.60460   0.01267  Uiso   1.00
H3     H     0.66280   0.08740   0.57200   0.01267  Uiso   1.00
H4     H     0.48770   0.87400   0.60460   0.01267  Uiso   1.00
H5     H     0.09080   0.08740   0.42800   0.01267  Uiso   1.00
H6     H     0.88310   0.87400   0.39540   0.01267  Uiso   1.00
H7     H     0.33720   0.91260   0.42800   0.01267  Uiso   1.00
H8     H     0.51230   0.12600   0.39540   0.01267  Uiso   1.00
H9     H     0.52950   0.30180   0.00000   0.01267  Uiso   1.00
H10    H     0.66290   0.55830   0.00000   0.01267  Uiso   1.00
H11    H     0.47050   0.69820   0.00000   0.01267  Uiso   1.00
H12    H     0.33710   0.44170   0.00000   0.01267  Uiso   1.00
C1     C     0.94730   0.94770   0.54320   0.01267  Uiso   1.00
C2     C     0.01790   0.01830   0.60880   0.01267  Uiso   1.00
C3     C     0.07010   0.07410   0.56200   0.01267  Uiso   1.00
C4     C     0.03930   0.04330   0.72220   0.01267  Uiso   1.00
C5     C     0.59590   0.05230   0.54320   0.01267  Uiso   1.00
C6     C     0.59090   0.98170   0.60880   0.01267  Uiso   1.00
C7     C     0.49190   0.92590   0.56200   0.01267  Uiso   1.00
C8     C     0.68290   0.95670   0.72220   0.01267  Uiso   1.00
C9     C     0.05270   0.05230   0.45680   0.01267  Uiso   1.00
C10    C     0.98210   0.98170   0.39120   0.01267  Uiso   1.00
C11    C     0.92990   0.92590   0.43800   0.01267  Uiso   1.00
C12    C     0.96070   0.95670   0.27780   0.01267  Uiso   1.00
C13    C     0.40410   0.94770   0.45680   0.01267  Uiso   1.00
C14    C     0.40910   0.01830   0.39120   0.01267  Uiso   1.00
C15    C     0.50810   0.07410   0.43800   0.01267  Uiso   1.00
C16    C     0.31710   0.04330   0.27780   0.01267  Uiso   1.00
C17    C     0.51890   0.38330   0.00000   0.01267  Uiso   1.00
C18    C     0.61440   0.41460   0.00000   0.01267  Uiso   1.00
C19    C     0.59710   0.53290   0.00000   0.01267  Uiso   1.00
C20    C     0.73660   0.33240   0.00000   0.01267  Uiso   1.00
C21    C     0.48110   0.61670   0.00000   0.01267  Uiso   1.00
C22    C     0.38560   0.58540   0.00000   0.01267  Uiso   1.00
C23    C     0.40290   0.46710   0.00000   0.01267  Uiso   1.00
C24    C     0.26340   0.66760   0.00000   0.01267  Uiso   1.00
C25    C     0.96820   0.50000   0.93640   0.01267  Uiso   1.00
C26    C     0.03180   0.50000   0.06360   0.01267  Uiso   1.00
N1     N     0.01840   0.97990   0.78040   0.01267  Uiso   1.00
N2     N     0.04078   0.03580   0.87716   0.01267  Uiso   1.00
N3     N     0.07700   0.12510   0.87560   0.01267  Uiso   1.00
N4     N     0.07460   0.13540   0.78000   0.01267  Uiso   1.00
N5     N     0.76200   0.02010   0.78040   0.01267  Uiso   1.00
N6     N     0.83638   0.96420   0.87716   0.01267  Uiso   1.00
N7     N     0.79860   0.87490   0.87560   0.01267  Uiso   1.00
N8     N     0.70540   0.86460   0.78000   0.01267  Uiso   1.00
N9     N     0.98160   0.02010   0.21960   0.01267  Uiso   1.00
N10    N     0.95922   0.96420   0.12284   0.01267  Uiso   1.00
N11    N     0.92300   0.87490   0.12440   0.01267  Uiso   1.00
N12    N     0.92540   0.86460   0.22000   0.01267  Uiso   1.00
N13    N     0.23800   0.97990   0.21960   0.01267  Uiso   1.00
N14    N     0.16362   0.03580   0.12284   0.01267  Uiso   1.00
N15    N     0.20140   0.12510   0.12440   0.01267  Uiso   1.00
N16    N     0.29460   0.13540   0.22000   0.01267  Uiso   1.00
N17    N     0.76940   0.21200   0.00000   0.01267  Uiso   1.00
N18    N     0.88760   0.17570   0.00000   0.01267  Uiso   1.00
N19    N     0.92140   0.26480   0.00000   0.01267  Uiso   1.00
N20    N     0.82960   0.36450   0.00000   0.01267  Uiso   1.00
N21    N     0.23060   0.78800   0.00000   0.01267  Uiso   1.00
N22    N     0.11240   0.82430   0.00000   0.01267  Uiso   1.00
N23    N     0.07860   0.73520   0.00000   0.01267  Uiso   1.00
N24    N     0.17040   0.63550   0.00000   0.01267  Uiso   1.00
O1     O     0.99529   0.40280   0.88918   0.01267  Uiso   1.00
O2     O     0.89389   0.59720   0.88918   0.01267  Uiso   1.00
O3     O     0.00471   0.59720   0.11082   0.01267  Uiso   1.00
O4     O     0.10611   0.40280   0.11082   0.01267  Uiso   1.00
