data_image0
_cell_length_a       9.159
_cell_length_b       9.159
_cell_length_c       24.445
_cell_angle_alpha    90
_cell_angle_beta     90
_cell_angle_gamma    90

_symmetry_space_group_name_H-M    "P 1"
_symmetry_int_tables_number       1

loop_
  _symmetry_equiv_pos_as_xyz
  'x, y, z'

loop_
  _atom_site_label
  _atom_site_occupancy
  _atom_site_fract_x
  _atom_site_fract_y
  _atom_site_fract_z
  _atom_site_thermal_displace_type
  _atom_site_B_iso_or_equiv
  _atom_site_type_symbol
  N1       1.0000 0.01470  0.09320  0.54413  Biso   1.000  N
  C1       1.0000 0.13210  0.04310  0.51775  Biso   1.000  C
  H1       1.0000 0.22490  0.07090  0.52920  Biso   1.000  H
  C2       1.0000 0.88310  0.05020  0.52670  Biso   1.000  C
  C3       1.0000 0.75080  0.10780  0.55761  Biso   1.000  C
  O1       1.0000 0.77930  0.19350  0.59799  Biso   1.000  O
  O2       1.0000 0.62920  0.06770  0.54293  Biso   1.000  O
  N2       1.0000 0.51470  0.59320  0.04413  Biso   1.000  N
  C4       1.0000 0.63210  0.54310  0.01775  Biso   1.000  C
  H2       1.0000 0.72490  0.57090  0.02920  Biso   1.000  H
  C5       1.0000 0.38310  0.55020  0.02670  Biso   1.000  C
  C6       1.0000 0.25080  0.60780  0.05761  Biso   1.000  C
  O3       1.0000 0.27930  0.69350  0.09799  Biso   1.000  O
  O4       1.0000 0.12920  0.56770  0.04293  Biso   1.000  O
  N3       1.0000 0.48530  0.90680  0.04413  Biso   1.000  N
  C7       1.0000 0.36790  0.95690  0.01775  Biso   1.000  C
  H3       1.0000 0.27510  0.92910  0.02920  Biso   1.000  H
  C8       1.0000 0.61690  0.94980  0.02670  Biso   1.000  C
  C9       1.0000 0.74920  0.89220  0.05761  Biso   1.000  C
  O5       1.0000 0.72070  0.80650  0.09799  Biso   1.000  O
  O6       1.0000 0.87080  0.93230  0.04293  Biso   1.000  O
  N4       1.0000 0.98530  0.40680  0.54413  Biso   1.000  N
  C10      1.0000 0.86790  0.45690  0.51775  Biso   1.000  C
  H4       1.0000 0.77510  0.42910  0.52920  Biso   1.000  H
  C11      1.0000 0.11690  0.44980  0.52670  Biso   1.000  C
  C12      1.0000 0.24920  0.39220  0.55761  Biso   1.000  C
  O7       1.0000 0.22070  0.30650  0.59799  Biso   1.000  O
  O8       1.0000 0.37080  0.43230  0.54293  Biso   1.000  O
  N5       1.0000 0.65680  0.26470  0.79413  Biso   1.000  N
  C13      1.0000 0.70690  0.38210  0.76775  Biso   1.000  C
  H5       1.0000 0.67910  0.47490  0.77920  Biso   1.000  H
  C14      1.0000 0.69980  0.13310  0.77670  Biso   1.000  C
  C15      1.0000 0.64220  0.00080  0.80761  Biso   1.000  C
  O9       1.0000 0.55650  0.02930  0.84799  Biso   1.000  O
  O10      1.0000 0.68230  0.87920  0.79293  Biso   1.000  O
  N6       1.0000 0.15680  0.76470  0.29413  Biso   1.000  N
  C16      1.0000 0.20690  0.88210  0.26775  Biso   1.000  C
  H6       1.0000 0.17910  0.97490  0.27920  Biso   1.000  H
  C17      1.0000 0.19980  0.63310  0.27670  Biso   1.000  C
  C18      1.0000 0.14220  0.50080  0.30761  Biso   1.000  C
  O11      1.0000 0.05650  0.52930  0.34799  Biso   1.000  O
  O12      1.0000 0.18230  0.37920  0.29293  Biso   1.000  O
  N7       1.0000 0.84320  0.73530  0.29413  Biso   1.000  N
  C19      1.0000 0.79310  0.61790  0.26775  Biso   1.000  C
  H7       1.0000 0.82090  0.52510  0.27920  Biso   1.000  H
  C20      1.0000 0.80020  0.86690  0.27670  Biso   1.000  C
  C21      1.0000 0.85780  0.99920  0.30761  Biso   1.000  C
  O13      1.0000 0.94350  0.97070  0.34799  Biso   1.000  O
  O14      1.0000 0.81770  0.12080  0.29293  Biso   1.000  O
  N8       1.0000 0.34320  0.23530  0.79413  Biso   1.000  N
  C22      1.0000 0.29310  0.11790  0.76775  Biso   1.000  C
  H8       1.0000 0.32090  0.02510  0.77920  Biso   1.000  H
  C23      1.0000 0.30020  0.36690  0.77670  Biso   1.000  C
  C24      1.0000 0.35780  0.49920  0.80761  Biso   1.000  C
  O15      1.0000 0.44350  0.47070  0.84799  Biso   1.000  O
  O16      1.0000 0.31770  0.62080  0.79293  Biso   1.000  O
  N9       1.0000 0.98530  0.90680  0.45587  Biso   1.000  N
  C25      1.0000 0.86790  0.95690  0.48225  Biso   1.000  C
  H9       1.0000 0.77510  0.92910  0.47080  Biso   1.000  H
  C26      1.0000 0.11690  0.94980  0.47330  Biso   1.000  C
  C27      1.0000 0.24920  0.89220  0.44239  Biso   1.000  C
  O17      1.0000 0.22070  0.80650  0.40201  Biso   1.000  O
  O18      1.0000 0.37080  0.93230  0.45707  Biso   1.000  O
  N10      1.0000 0.48530  0.40680  0.95587  Biso   1.000  N
  C28      1.0000 0.36790  0.45690  0.98225  Biso   1.000  C
  H10      1.0000 0.27510  0.42910  0.97080  Biso   1.000  H
  C29      1.0000 0.61690  0.44980  0.97330  Biso   1.000  C
  C30      1.0000 0.74920  0.39220  0.94239  Biso   1.000  C
  O19      1.0000 0.72070  0.30650  0.90201  Biso   1.000  O
  O20      1.0000 0.87080  0.43230  0.95707  Biso   1.000  O
  N11      1.0000 0.51470  0.09320  0.95587  Biso   1.000  N
  C31      1.0000 0.63210  0.04310  0.98225  Biso   1.000  C
  H11      1.0000 0.72490  0.07090  0.97080  Biso   1.000  H
  C32      1.0000 0.38310  0.05020  0.97330  Biso   1.000  C
  C33      1.0000 0.25080  0.10780  0.94239  Biso   1.000  C
  O21      1.0000 0.27930  0.19350  0.90201  Biso   1.000  O
  O22      1.0000 0.12920  0.06770  0.95707  Biso   1.000  O
  N12      1.0000 0.01470  0.59320  0.45587  Biso   1.000  N
  C34      1.0000 0.13210  0.54310  0.48225  Biso   1.000  C
  H12      1.0000 0.22490  0.57090  0.47080  Biso   1.000  H
  C35      1.0000 0.88310  0.55020  0.47330  Biso   1.000  C
  C36      1.0000 0.75080  0.60780  0.44239  Biso   1.000  C
  O23      1.0000 0.77930  0.69350  0.40201  Biso   1.000  O
  O24      1.0000 0.62920  0.56770  0.45707  Biso   1.000  O
  N13      1.0000 0.34320  0.73530  0.20587  Biso   1.000  N
  C37      1.0000 0.29310  0.61790  0.23225  Biso   1.000  C
  H13      1.0000 0.32090  0.52510  0.22080  Biso   1.000  H
  C38      1.0000 0.30020  0.86690  0.22330  Biso   1.000  C
  C39      1.0000 0.35780  0.99920  0.19239  Biso   1.000  C
  O25      1.0000 0.44350  0.97070  0.15201  Biso   1.000  O
  O26      1.0000 0.31770  0.12080  0.20707  Biso   1.000  O
  N14      1.0000 0.84320  0.23530  0.70587  Biso   1.000  N
  C40      1.0000 0.79310  0.11790  0.73225  Biso   1.000  C
  H14      1.0000 0.82090  0.02510  0.72080  Biso   1.000  H
  C41      1.0000 0.80020  0.36690  0.72330  Biso   1.000  C
  C42      1.0000 0.85780  0.49920  0.69239  Biso   1.000  C
  O27      1.0000 0.94350  0.47070  0.65201  Biso   1.000  O
  O28      1.0000 0.81770  0.62080  0.70707  Biso   1.000  O
  N15      1.0000 0.15680  0.26470  0.70587  Biso   1.000  N
  C43      1.0000 0.20690  0.38210  0.73225  Biso   1.000  C
  H15      1.0000 0.17910  0.47490  0.72080  Biso   1.000  H
  C44      1.0000 0.19980  0.13310  0.72330  Biso   1.000  C
  C45      1.0000 0.14220  0.00080  0.69239  Biso   1.000  C
  O29      1.0000 0.05650  0.02930  0.65201  Biso   1.000  O
  O30      1.0000 0.18230  0.87920  0.70707  Biso   1.000  O
  N16      1.0000 0.65680  0.76470  0.20587  Biso   1.000  N
  C46      1.0000 0.70690  0.88210  0.23225  Biso   1.000  C
  H16      1.0000 0.67910  0.97490  0.22080  Biso   1.000  H
  C47      1.0000 0.69980  0.63310  0.22330  Biso   1.000  C
  C48      1.0000 0.64220  0.50080  0.19239  Biso   1.000  C
  O31      1.0000 0.55650  0.52930  0.15201  Biso   1.000  O
  O32      1.0000 0.68230  0.37920  0.20707  Biso   1.000  O
  In1      1.0000 0.00000  0.25000  0.62500  Biso   1.000  In
  In2      1.0000 0.50000  0.75000  0.12500  Biso   1.000  In
  In3      1.0000 0.50000  0.25000  0.87500  Biso   1.000  In
  In4      1.0000 0.00000  0.75000  0.37500  Biso   1.000  In
