data_image0
_cell_length_a       10.5407
_cell_length_b       7.8951
_cell_length_c       10.3271
_cell_angle_alpha    90
_cell_angle_beta     109.819
_cell_angle_gamma    90

_symmetry_space_group_name_H-M    "P 1"
_symmetry_int_tables_number       1

loop_
  _symmetry_equiv_pos_as_xyz
  'x, y, z'

loop_
  _atom_site_label
  _atom_site_occupancy
  _atom_site_fract_x
  _atom_site_fract_y
  _atom_site_fract_z
  _atom_site_thermal_displace_type
  _atom_site_B_iso_or_equiv
  _atom_site_type_symbol
  Al1      1.0000 0.31940  0.42980  0.70930  Biso   1.000  Al
  P1       1.0000 0.24630  0.30850  0.96519  Biso   1.000  P
  O1       1.0000 0.10620  0.39040  0.91280  Biso   1.000  O
  O2       1.0000 0.30260  0.28470  0.84600  Biso   1.000  O
  O3       1.0000 0.34670  0.41690  0.08090  Biso   1.000  O
  O4       1.0000 0.26360  0.74900  0.06880  Biso   1.000  O
  O5       1.0000 0.05240  0.72580  0.95080  Biso   1.000  O
  O6       1.0000 0.13760  0.49680  0.16670  Biso   1.000  O
  C1       1.0000 0.23570  0.10260  0.03780  Biso   1.000  C
  C2       1.0000 0.15900  0.98270  0.92770  Biso   1.000  C
  C3       1.0000 0.15810  0.80870  0.98680  Biso   1.000  C
  Al2      1.0000 0.68060  0.42980  0.79070  Biso   1.000  Al
  P2       1.0000 0.75370  0.30850  0.53481  Biso   1.000  P
  O7       1.0000 0.89380  0.39040  0.58720  Biso   1.000  O
  O8       1.0000 0.69740  0.28470  0.65400  Biso   1.000  O
  O9       1.0000 0.65330  0.41690  0.41910  Biso   1.000  O
  O10      1.0000 0.73640  0.74900  0.43120  Biso   1.000  O
  O11      1.0000 0.94760  0.72580  0.54920  Biso   1.000  O
  O12      1.0000 0.86240  0.49680  0.33330  Biso   1.000  O
  C4       1.0000 0.76430  0.10260  0.46220  Biso   1.000  C
  C5       1.0000 0.84100  0.98270  0.57230  Biso   1.000  C
  C6       1.0000 0.84190  0.80870  0.51320  Biso   1.000  C
  Al3      1.0000 0.68060  0.57020  0.29070  Biso   1.000  Al
  P3       1.0000 0.75370  0.69150  0.03481  Biso   1.000  P
  O13      1.0000 0.89380  0.60960  0.08720  Biso   1.000  O
  O14      1.0000 0.69740  0.71530  0.15400  Biso   1.000  O
  O15      1.0000 0.65330  0.58310  0.91910  Biso   1.000  O
  O16      1.0000 0.73640  0.25100  0.93120  Biso   1.000  O
  O17      1.0000 0.94760  0.27420  0.04920  Biso   1.000  O
  O18      1.0000 0.86240  0.50320  0.83330  Biso   1.000  O
  C7       1.0000 0.76430  0.89740  0.96220  Biso   1.000  C
  C8       1.0000 0.84100  0.01730  0.07230  Biso   1.000  C
  C9       1.0000 0.84190  0.19130  0.01320  Biso   1.000  C
  Al4      1.0000 0.31940  0.57020  0.20930  Biso   1.000  Al
  P4       1.0000 0.24630  0.69150  0.46519  Biso   1.000  P
  O19      1.0000 0.10620  0.60960  0.41280  Biso   1.000  O
  O20      1.0000 0.30260  0.71530  0.34600  Biso   1.000  O
  O21      1.0000 0.34670  0.58310  0.58090  Biso   1.000  O
  O22      1.0000 0.26360  0.25100  0.56880  Biso   1.000  O
  O23      1.0000 0.05240  0.27420  0.45080  Biso   1.000  O
  O24      1.0000 0.13760  0.50320  0.66670  Biso   1.000  O
  C10      1.0000 0.23570  0.89740  0.53780  Biso   1.000  C
  C11      1.0000 0.15900  0.01730  0.42770  Biso   1.000  C
  C12      1.0000 0.15810  0.19130  0.48680  Biso   1.000  C
  Al5      1.0000 0.00000  0.50000  0.00000  Biso   1.000  Al
  Al6      1.0000 0.00000  0.50000  0.50000  Biso   1.000  Al
  O25      1.0000 0.50000  0.35260  0.75000  Biso   1.000  O
  O26      1.0000 0.50000  0.64740  0.25000  Biso   1.000  O
