data_DEFKUU_clean
_audit_creation_date              2014-07-02
_audit_creation_method            'Materials Studio'
_symmetry_space_group_name_H-M    'P1'
_symmetry_Int_Tables_number       1
_symmetry_cell_setting            triclinic
loop_
_symmetry_equiv_pos_as_xyz
  x,y,z
_cell_length_a                    5.0220
_cell_length_b                    12.3400
_cell_length_c                    15.4389
_cell_angle_alpha                 90.0000
_cell_angle_beta                  91.8670
_cell_angle_gamma                 90.0000
loop_
_atom_site_label
_atom_site_type_symbol
_atom_site_fract_x
_atom_site_fract_y
_atom_site_fract_z
_atom_site_U_iso_or_equiv
_atom_site_adp_type
_atom_site_occupancy
Cu1    Cu    0.52910   0.13530   0.88280   0.01267  Uiso   1.00
Cu2    Cu    0.97090   0.63530   0.61720   0.01267  Uiso   1.00
Cu3    Cu    0.47090   0.86470   0.11720   0.01267  Uiso   1.00
Cu4    Cu    0.02910   0.36470   0.38280   0.01267  Uiso   1.00
Cu5    Cu    0.00000   0.00000   0.00000   0.01267  Uiso   1.00
Cu6    Cu    0.50000   0.50000   0.50000   0.01267  Uiso   1.00
P1     P     0.50080   0.89230   0.92010   0.01267  Uiso   1.00
P2     P     0.99920   0.39230   0.57990   0.01267  Uiso   1.00
P3     P     0.49920   0.10770   0.07990   0.01267  Uiso   1.00
P4     P     0.00080   0.60770   0.42010   0.01267  Uiso   1.00
H1     H     0.43700   0.70600   0.90300   0.01267  Uiso   1.00
H2     H     0.24200   0.77700   0.84800   0.01267  Uiso   1.00
H3     H     0.73900   0.71800   0.79100   0.01267  Uiso   1.00
H4     H     0.60600   0.82100   0.75400   0.01267  Uiso   1.00
H5     H     0.06300   0.20600   0.59700   0.01267  Uiso   1.00
H6     H     0.25800   0.27700   0.65200   0.01267  Uiso   1.00
H7     H     0.76100   0.21800   0.70900   0.01267  Uiso   1.00
H8     H     0.89400   0.32100   0.74600   0.01267  Uiso   1.00
H9     H     0.56300   0.29400   0.09700   0.01267  Uiso   1.00
H10    H     0.75800   0.22300   0.15200   0.01267  Uiso   1.00
H11    H     0.26100   0.28200   0.20900   0.01267  Uiso   1.00
H12    H     0.39400   0.17900   0.24600   0.01267  Uiso   1.00
H13    H     0.93700   0.79400   0.40300   0.01267  Uiso   1.00
H14    H     0.74200   0.72300   0.34800   0.01267  Uiso   1.00
H15    H     0.23900   0.78200   0.29100   0.01267  Uiso   1.00
H16    H     0.10600   0.67900   0.25400   0.01267  Uiso   1.00
C1     C     0.41550   0.77000   0.86410   0.01267  Uiso   1.00
C2     C     0.56960   0.75160   0.78220   0.01267  Uiso   1.00
C3     C     0.42620   0.68350   0.71410   0.01267  Uiso   1.00
C4     C     0.08450   0.27000   0.63590   0.01267  Uiso   1.00
C5     C     0.93040   0.25160   0.71780   0.01267  Uiso   1.00
C6     C     0.07380   0.18350   0.78590   0.01267  Uiso   1.00
C7     C     0.58450   0.23000   0.13590   0.01267  Uiso   1.00
C8     C     0.43040   0.24840   0.21780   0.01267  Uiso   1.00
C9     C     0.57380   0.31650   0.28590   0.01267  Uiso   1.00
C10    C     0.91550   0.73000   0.36410   0.01267  Uiso   1.00
C11    C     0.06960   0.74840   0.28220   0.01267  Uiso   1.00
C12    C     0.92620   0.81650   0.21410   0.01267  Uiso   1.00
O1     O     0.79000   0.88290   0.95350   0.01267  Uiso   1.00
O2     O     0.68350   0.09770   0.00080   0.01267  Uiso   1.00
O3     O     0.44880   0.98510   0.85750   0.01267  Uiso   1.00
O4     O     0.17330   0.68070   0.71850   0.01267  Uiso   1.00
O5     O     0.54940   0.63740   0.65590   0.01267  Uiso   1.00
O6     O     0.71000   0.38290   0.54650   0.01267  Uiso   1.00
O7     O     0.81650   0.59770   0.49920   0.01267  Uiso   1.00
O8     O     0.05120   0.48510   0.64250   0.01267  Uiso   1.00
O9     O     0.32670   0.18070   0.78150   0.01267  Uiso   1.00
O10    O     0.95060   0.13740   0.84410   0.01267  Uiso   1.00
O11    O     0.21000   0.11710   0.04650   0.01267  Uiso   1.00
O12    O     0.31650   0.90230   0.99920   0.01267  Uiso   1.00
O13    O     0.55120   0.01490   0.14250   0.01267  Uiso   1.00
O14    O     0.82670   0.31930   0.28150   0.01267  Uiso   1.00
O15    O     0.45060   0.36260   0.34410   0.01267  Uiso   1.00
O16    O     0.29000   0.61710   0.45350   0.01267  Uiso   1.00
O17    O     0.18350   0.40230   0.50080   0.01267  Uiso   1.00
O18    O     0.94880   0.51490   0.35750   0.01267  Uiso   1.00
O19    O     0.67330   0.81930   0.21850   0.01267  Uiso   1.00
O20    O     0.04940   0.86260   0.15590   0.01267  Uiso   1.00
