data_DEFRIR_clean
_audit_creation_date              2014-07-02
_audit_creation_method            'Materials Studio'
_symmetry_space_group_name_H-M    'P1'
_symmetry_Int_Tables_number       1
_symmetry_cell_setting            triclinic
loop_
_symmetry_equiv_pos_as_xyz
  x,y,z
_cell_length_a                    10.5382
_cell_length_b                    17.6680
_cell_length_c                    20.0050
_cell_angle_alpha                 90.0000
_cell_angle_beta                  90.0000
_cell_angle_gamma                 91.2050
loop_
_atom_site_label
_atom_site_type_symbol
_atom_site_fract_x
_atom_site_fract_y
_atom_site_fract_z
_atom_site_U_iso_or_equiv
_atom_site_adp_type
_atom_site_occupancy
Gd1    Gd    0.17790   0.50013   0.26557   0.01267  Uiso   1.00
Gd2    Gd    0.25383   0.99195   0.51810   0.01267  Uiso   1.00
Gd3    Gd    0.32210   0.49987   0.76557   0.01267  Uiso   1.00
Gd4    Gd    0.24617   0.00805   0.01810   0.01267  Uiso   1.00
Gd5    Gd    0.82210   0.49987   0.73443   0.01267  Uiso   1.00
Gd6    Gd    0.74617   0.00805   0.48190   0.01267  Uiso   1.00
Gd7    Gd    0.67790   0.50013   0.23443   0.01267  Uiso   1.00
Gd8    Gd    0.75383   0.99195   0.98190   0.01267  Uiso   1.00
H1     H     0.13250   0.68720   0.32790   0.01267  Uiso   1.00
H2     H     0.16730   0.79830   0.38930   0.01267  Uiso   1.00
H3     H     0.78900   0.82760   0.40190   0.01267  Uiso   1.00
H4     H     0.75300   0.71490   0.34280   0.01267  Uiso   1.00
H5     H     0.63970   0.30150   0.32610   0.01267  Uiso   1.00
H6     H     0.27160   0.32190   0.37940   0.01267  Uiso   1.00
H7     H     0.28620   0.21480   0.44670   0.01267  Uiso   1.00
H8     H     0.65650   0.19600   0.39590   0.01267  Uiso   1.00
H9     H     0.36750   0.31280   0.82790   0.01267  Uiso   1.00
H10    H     0.33270   0.20170   0.88930   0.01267  Uiso   1.00
H11    H     0.71100   0.17240   0.90190   0.01267  Uiso   1.00
H12    H     0.74700   0.28510   0.84280   0.01267  Uiso   1.00
H13    H     0.86030   0.69850   0.82610   0.01267  Uiso   1.00
H14    H     0.22840   0.67810   0.87940   0.01267  Uiso   1.00
H15    H     0.21380   0.78520   0.94670   0.01267  Uiso   1.00
H16    H     0.84350   0.80400   0.89590   0.01267  Uiso   1.00
H17    H     0.86750   0.31280   0.67210   0.01267  Uiso   1.00
H18    H     0.83270   0.20170   0.61070   0.01267  Uiso   1.00
H19    H     0.21100   0.17240   0.59810   0.01267  Uiso   1.00
H20    H     0.24700   0.28510   0.65720   0.01267  Uiso   1.00
H21    H     0.36030   0.69850   0.67390   0.01267  Uiso   1.00
H22    H     0.72840   0.67810   0.62060   0.01267  Uiso   1.00
H23    H     0.71380   0.78520   0.55330   0.01267  Uiso   1.00
H24    H     0.34350   0.80400   0.60410   0.01267  Uiso   1.00
H25    H     0.63250   0.68720   0.17210   0.01267  Uiso   1.00
H26    H     0.66730   0.79830   0.11070   0.01267  Uiso   1.00
H27    H     0.28900   0.82760   0.09810   0.01267  Uiso   1.00
H28    H     0.25300   0.71490   0.15720   0.01267  Uiso   1.00
H29    H     0.13970   0.30150   0.17390   0.01267  Uiso   1.00
H30    H     0.77160   0.32190   0.12060   0.01267  Uiso   1.00
H31    H     0.78620   0.21480   0.05330   0.01267  Uiso   1.00
H32    H     0.15650   0.19600   0.10410   0.01267  Uiso   1.00
C1     C     0.91620   0.61540   0.29530   0.01267  Uiso   1.00
C2     C     0.93930   0.68980   0.33050   0.01267  Uiso   1.00
C3     C     0.06240   0.71510   0.34370   0.01267  Uiso   1.00
C4     C     0.08310   0.78120   0.38010   0.01267  Uiso   1.00
C5     C     0.98060   0.82260   0.40320   0.01267  Uiso   1.00
C6     C     0.85900   0.79840   0.38790   0.01267  Uiso   1.00
C7     C     0.83730   0.73170   0.35220   0.01267  Uiso   1.00
C8     C     0.00580   0.89310   0.44400   0.01267  Uiso   1.00
C9     C     0.44050   0.38610   0.29640   0.01267  Uiso   1.00
C10    C     0.56760   0.28360   0.35030   0.01267  Uiso   1.00
C11    C     0.34910   0.29550   0.38150   0.01267  Uiso   1.00
C12    C     0.47930   0.12340   0.46850   0.01267  Uiso   1.00
C13    C     0.35830   0.23220   0.42210   0.01267  Uiso   1.00
C14    C     0.45280   0.32070   0.34390   0.01267  Uiso   1.00
C15    C     0.57780   0.22080   0.39170   0.01267  Uiso   1.00
C16    C     0.47100   0.19430   0.42730   0.01267  Uiso   1.00
C17    C     0.58380   0.38460   0.79530   0.01267  Uiso   1.00
C18    C     0.56070   0.31020   0.83050   0.01267  Uiso   1.00
C19    C     0.43760   0.28490   0.84370   0.01267  Uiso   1.00
C20    C     0.41690   0.21880   0.88010   0.01267  Uiso   1.00
C21    C     0.51940   0.17740   0.90320   0.01267  Uiso   1.00
C22    C     0.64100   0.20160   0.88790   0.01267  Uiso   1.00
C23    C     0.66270   0.26830   0.85220   0.01267  Uiso   1.00
C24    C     0.49420   0.10690   0.94400   0.01267  Uiso   1.00
C25    C     0.05950   0.61390   0.79640   0.01267  Uiso   1.00
C26    C     0.93240   0.71640   0.85030   0.01267  Uiso   1.00
C27    C     0.15090   0.70450   0.88150   0.01267  Uiso   1.00
C28    C     0.02070   0.87660   0.96850   0.01267  Uiso   1.00
C29    C     0.14170   0.76780   0.92210   0.01267  Uiso   1.00
C30    C     0.04720   0.67930   0.84390   0.01267  Uiso   1.00
C31    C     0.92220   0.77920   0.89170   0.01267  Uiso   1.00
C32    C     0.02900   0.80570   0.92730   0.01267  Uiso   1.00
C33    C     0.08380   0.38460   0.70470   0.01267  Uiso   1.00
C34    C     0.06070   0.31020   0.66950   0.01267  Uiso   1.00
C35    C     0.93760   0.28490   0.65630   0.01267  Uiso   1.00
C36    C     0.91690   0.21880   0.61990   0.01267  Uiso   1.00
C37    C     0.01940   0.17740   0.59680   0.01267  Uiso   1.00
C38    C     0.14100   0.20160   0.61210   0.01267  Uiso   1.00
C39    C     0.16270   0.26830   0.64780   0.01267  Uiso   1.00
C40    C     0.99420   0.10690   0.55600   0.01267  Uiso   1.00
C41    C     0.55950   0.61390   0.70360   0.01267  Uiso   1.00
C42    C     0.43240   0.71640   0.64970   0.01267  Uiso   1.00
C43    C     0.65090   0.70450   0.61850   0.01267  Uiso   1.00
C44    C     0.52070   0.87660   0.53150   0.01267  Uiso   1.00
C45    C     0.64170   0.76780   0.57790   0.01267  Uiso   1.00
C46    C     0.54720   0.67930   0.65610   0.01267  Uiso   1.00
C47    C     0.42220   0.77920   0.60830   0.01267  Uiso   1.00
C48    C     0.52900   0.80570   0.57270   0.01267  Uiso   1.00
C49    C     0.41620   0.61540   0.20470   0.01267  Uiso   1.00
C50    C     0.43930   0.68980   0.16950   0.01267  Uiso   1.00
C51    C     0.56240   0.71510   0.15630   0.01267  Uiso   1.00
C52    C     0.58310   0.78120   0.11990   0.01267  Uiso   1.00
C53    C     0.48060   0.82260   0.09680   0.01267  Uiso   1.00
C54    C     0.35900   0.79840   0.11210   0.01267  Uiso   1.00
C55    C     0.33730   0.73170   0.14780   0.01267  Uiso   1.00
C56    C     0.50580   0.89310   0.05600   0.01267  Uiso   1.00
C57    C     0.94050   0.38610   0.20360   0.01267  Uiso   1.00
C58    C     0.06760   0.28360   0.14970   0.01267  Uiso   1.00
C59    C     0.84910   0.29550   0.11850   0.01267  Uiso   1.00
C60    C     0.97930   0.12340   0.03150   0.01267  Uiso   1.00
C61    C     0.85830   0.23220   0.07790   0.01267  Uiso   1.00
C62    C     0.95280   0.32070   0.15610   0.01267  Uiso   1.00
C63    C     0.07780   0.22080   0.10830   0.01267  Uiso   1.00
C64    C     0.97100   0.19430   0.07270   0.01267  Uiso   1.00
N1     N     0.18740   0.47540   0.12080   0.01267  Uiso   1.00
N2     N     0.26210   0.02490   0.37490   0.01267  Uiso   1.00
N3     N     0.31260   0.52460   0.62080   0.01267  Uiso   1.00
N4     N     0.23790   0.97510   0.87490   0.01267  Uiso   1.00
N5     N     0.81260   0.52460   0.87920   0.01267  Uiso   1.00
N6     N     0.73790   0.97510   0.62510   0.01267  Uiso   1.00
N7     N     0.68740   0.47540   0.37920   0.01267  Uiso   1.00
N8     N     0.76210   0.02490   0.12510   0.01267  Uiso   1.00
O1     O     0.01060   0.58001   0.27534   0.01267  Uiso   1.00
O2     O     0.10290   0.51570   0.14558   0.01267  Uiso   1.00
O3     O     0.25870   0.44113   0.16161   0.01267  Uiso   1.00
O4     O     0.53360   0.40036   0.25781   0.01267  Uiso   1.00
O5     O     0.33930   0.42102   0.29715   0.01267  Uiso   1.00
O6     O     0.80330   0.59381   0.28863   0.01267  Uiso   1.00
O7     O     0.11530   0.90316   0.46699   0.01267  Uiso   1.00
O8     O     0.17850   0.05180   0.41181   0.01267  Uiso   1.00
O9     O     0.33700   0.97800   0.40152   0.01267  Uiso   1.00
O10    O     0.38030   0.10002   0.49661   0.01267  Uiso   1.00
O11    O     0.58410   0.09138   0.47117   0.01267  Uiso   1.00
O12    O     0.91580   0.93644   0.45271   0.01267  Uiso   1.00
O13    O     0.20310   0.46990   0.06010   0.01267  Uiso   1.00
O14    O     0.27050   0.04170   0.31630   0.01267  Uiso   1.00
O15    O     0.48940   0.41999   0.77534   0.01267  Uiso   1.00
O16    O     0.39710   0.48430   0.64558   0.01267  Uiso   1.00
O17    O     0.24130   0.55887   0.66161   0.01267  Uiso   1.00
O18    O     0.96640   0.59964   0.75781   0.01267  Uiso   1.00
O19    O     0.16070   0.57898   0.79715   0.01267  Uiso   1.00
O20    O     0.69670   0.40619   0.78863   0.01267  Uiso   1.00
O21    O     0.38470   0.09684   0.96699   0.01267  Uiso   1.00
O22    O     0.32150   0.94820   0.91181   0.01267  Uiso   1.00
O23    O     0.16300   0.02200   0.90152   0.01267  Uiso   1.00
O24    O     0.11970   0.89998   0.99661   0.01267  Uiso   1.00
O25    O     0.91590   0.90862   0.97117   0.01267  Uiso   1.00
O26    O     0.58420   0.06356   0.95271   0.01267  Uiso   1.00
O27    O     0.29690   0.53010   0.56010   0.01267  Uiso   1.00
O28    O     0.22950   0.95830   0.81630   0.01267  Uiso   1.00
O29    O     0.98940   0.41999   0.72466   0.01267  Uiso   1.00
O30    O     0.89710   0.48430   0.85442   0.01267  Uiso   1.00
O31    O     0.74130   0.55887   0.83839   0.01267  Uiso   1.00
O32    O     0.46640   0.59964   0.74219   0.01267  Uiso   1.00
O33    O     0.66070   0.57898   0.70285   0.01267  Uiso   1.00
O34    O     0.19670   0.40619   0.71137   0.01267  Uiso   1.00
O35    O     0.88470   0.09684   0.53301   0.01267  Uiso   1.00
O36    O     0.82150   0.94820   0.58819   0.01267  Uiso   1.00
O37    O     0.66300   0.02200   0.59848   0.01267  Uiso   1.00
O38    O     0.61970   0.89998   0.50339   0.01267  Uiso   1.00
O39    O     0.41590   0.90862   0.52883   0.01267  Uiso   1.00
O40    O     0.08420   0.06356   0.54729   0.01267  Uiso   1.00
O41    O     0.79690   0.53010   0.93990   0.01267  Uiso   1.00
O42    O     0.72950   0.95830   0.68370   0.01267  Uiso   1.00
O43    O     0.51060   0.58001   0.22466   0.01267  Uiso   1.00
O44    O     0.60290   0.51570   0.35442   0.01267  Uiso   1.00
O45    O     0.75870   0.44113   0.33839   0.01267  Uiso   1.00
O46    O     0.03360   0.40036   0.24219   0.01267  Uiso   1.00
O47    O     0.83930   0.42102   0.20285   0.01267  Uiso   1.00
O48    O     0.30330   0.59381   0.21137   0.01267  Uiso   1.00
O49    O     0.61530   0.90316   0.03301   0.01267  Uiso   1.00
O50    O     0.67850   0.05180   0.08819   0.01267  Uiso   1.00
O51    O     0.83700   0.97800   0.09848   0.01267  Uiso   1.00
O52    O     0.88030   0.10002   0.00339   0.01267  Uiso   1.00
O53    O     0.08410   0.09138   0.02883   0.01267  Uiso   1.00
O54    O     0.41580   0.93644   0.04729   0.01267  Uiso   1.00
O55    O     0.70310   0.46990   0.43990   0.01267  Uiso   1.00
O56    O     0.77050   0.04170   0.18370   0.01267  Uiso   1.00
