data_DEGJIK_clean
_audit_creation_date              2014-07-02
_audit_creation_method            'Materials Studio'
_symmetry_space_group_name_H-M    'P1'
_symmetry_Int_Tables_number       1
_symmetry_cell_setting            triclinic
loop_
_symmetry_equiv_pos_as_xyz
  x,y,z
_cell_length_a                    5.8145
_cell_length_b                    8.9663
_cell_length_c                    16.8800
_cell_angle_alpha                 90.0000
_cell_angle_beta                  90.0000
_cell_angle_gamma                 94.0780
loop_
_atom_site_label
_atom_site_type_symbol
_atom_site_fract_x
_atom_site_fract_y
_atom_site_fract_z
_atom_site_U_iso_or_equiv
_atom_site_adp_type
_atom_site_occupancy
Cu1    Cu    0.75209   0.47175   0.56490   0.01267  Uiso   1.00
Cu2    Cu    0.24791   0.02825   0.06490   0.01267  Uiso   1.00
Cu3    Cu    0.24791   0.52825   0.43510   0.01267  Uiso   1.00
Cu4    Cu    0.75209   0.97175   0.93510   0.01267  Uiso   1.00
H1     H     0.71200   0.14400   0.64830   0.01267  Uiso   1.00
H2     H     0.88520   0.04000   0.75670   0.01267  Uiso   1.00
H3     H     0.24590   0.30640   0.79790   0.01267  Uiso   1.00
H4     H     0.43450   0.20050   0.90130   0.01267  Uiso   1.00
H5     H     0.28800   0.35600   0.14830   0.01267  Uiso   1.00
H6     H     0.11480   0.46000   0.25670   0.01267  Uiso   1.00
H7     H     0.75410   0.19360   0.29790   0.01267  Uiso   1.00
H8     H     0.56550   0.29950   0.40130   0.01267  Uiso   1.00
H9     H     0.28800   0.85600   0.35170   0.01267  Uiso   1.00
H10    H     0.11480   0.96000   0.24330   0.01267  Uiso   1.00
H11    H     0.75410   0.69360   0.20210   0.01267  Uiso   1.00
H12    H     0.56550   0.79950   0.09870   0.01267  Uiso   1.00
H13    H     0.71200   0.64400   0.85170   0.01267  Uiso   1.00
H14    H     0.88520   0.54000   0.74330   0.01267  Uiso   1.00
H15    H     0.24590   0.80640   0.70210   0.01267  Uiso   1.00
H16    H     0.43450   0.70050   0.59870   0.01267  Uiso   1.00
C1     C     0.33460   0.30510   0.64500   0.01267  Uiso   1.00
C2     C     0.45840   0.23740   0.71010   0.01267  Uiso   1.00
C3     C     0.65050   0.15670   0.69980   0.01267  Uiso   1.00
C4     C     0.75300   0.09450   0.76490   0.01267  Uiso   1.00
C5     C     0.37740   0.25220   0.78770   0.01267  Uiso   1.00
C6     C     0.49020   0.18760   0.84900   0.01267  Uiso   1.00
C7     C     0.66540   0.19490   0.14500   0.01267  Uiso   1.00
C8     C     0.54160   0.26260   0.21010   0.01267  Uiso   1.00
C9     C     0.34950   0.34330   0.19980   0.01267  Uiso   1.00
C10    C     0.24700   0.40550   0.26490   0.01267  Uiso   1.00
C11    C     0.62260   0.24780   0.28770   0.01267  Uiso   1.00
C12    C     0.50980   0.31240   0.34900   0.01267  Uiso   1.00
C13    C     0.66540   0.69490   0.35500   0.01267  Uiso   1.00
C14    C     0.54160   0.76260   0.28990   0.01267  Uiso   1.00
C15    C     0.34950   0.84330   0.30020   0.01267  Uiso   1.00
C16    C     0.24700   0.90550   0.23510   0.01267  Uiso   1.00
C17    C     0.62260   0.74780   0.21230   0.01267  Uiso   1.00
C18    C     0.50980   0.81240   0.15100   0.01267  Uiso   1.00
C19    C     0.33460   0.80510   0.85500   0.01267  Uiso   1.00
C20    C     0.45840   0.73740   0.78990   0.01267  Uiso   1.00
C21    C     0.65050   0.65670   0.80020   0.01267  Uiso   1.00
C22    C     0.75300   0.59450   0.73510   0.01267  Uiso   1.00
C23    C     0.37740   0.75220   0.71230   0.01267  Uiso   1.00
C24    C     0.49020   0.68760   0.65100   0.01267  Uiso   1.00
N1     N     0.42750   0.35920   0.57760   0.01267  Uiso   1.00
N2     N     0.24750   0.41310   0.53830   0.01267  Uiso   1.00
N3     N     0.05910   0.39180   0.58260   0.01267  Uiso   1.00
N4     N     0.11010   0.32470   0.65040   0.01267  Uiso   1.00
N5     N     0.67350   0.10790   0.83930   0.01267  Uiso   1.00
N6     N     0.57250   0.14080   0.07760   0.01267  Uiso   1.00
N7     N     0.75250   0.08690   0.03830   0.01267  Uiso   1.00
N8     N     0.94090   0.10820   0.08260   0.01267  Uiso   1.00
N9     N     0.88990   0.17530   0.15040   0.01267  Uiso   1.00
N10    N     0.32650   0.39210   0.33930   0.01267  Uiso   1.00
N11    N     0.57250   0.64080   0.42240   0.01267  Uiso   1.00
N12    N     0.75250   0.58690   0.46170   0.01267  Uiso   1.00
N13    N     0.94090   0.60820   0.41740   0.01267  Uiso   1.00
N14    N     0.88990   0.67530   0.34960   0.01267  Uiso   1.00
N15    N     0.32650   0.89210   0.16070   0.01267  Uiso   1.00
N16    N     0.42750   0.85920   0.92240   0.01267  Uiso   1.00
N17    N     0.24750   0.91310   0.96170   0.01267  Uiso   1.00
N18    N     0.05910   0.89180   0.91740   0.01267  Uiso   1.00
N19    N     0.11010   0.82470   0.84960   0.01267  Uiso   1.00
N20    N     0.67350   0.60790   0.66070   0.01267  Uiso   1.00
