data_DEHBIC_clean
_audit_creation_date              2014-07-02
_audit_creation_method            'Materials Studio'
_symmetry_space_group_name_H-M    'P1'
_symmetry_Int_Tables_number       1
_symmetry_cell_setting            triclinic
loop_
_symmetry_equiv_pos_as_xyz
  x,y,z
_cell_length_a                    6.0260
_cell_length_b                    7.4500
_cell_length_c                    13.2870
_cell_angle_alpha                 102.7400
_cell_angle_beta                  101.4600
_cell_angle_gamma                 90.7200
loop_
_atom_site_label
_atom_site_type_symbol
_atom_site_fract_x
_atom_site_fract_y
_atom_site_fract_z
_atom_site_U_iso_or_equiv
_atom_site_adp_type
_atom_site_occupancy
Gd1    Gd    0.50009   0.50994   0.50002   0.01267  Uiso   1.00
Gd2    Gd    0.46433   0.87269   0.14001   0.01267  Uiso   1.00
H1     H     0.83620   0.79390   0.86320   0.01267  Uiso   1.00
H2     H     0.12680   0.72720   0.76350   0.01267  Uiso   1.00
H3     H     0.99640   0.37410   0.25560   0.01267  Uiso   1.00
H4     H     0.01440   0.41430   0.09090   0.01267  Uiso   1.00
H5     H     0.92720   0.09180   0.55020   0.01267  Uiso   1.00
H6     H     0.96190   0.93890   0.38470   0.01267  Uiso   1.00
H7     H     0.78740   0.61910   0.95170   0.01267  Uiso   1.00
H8     H     0.24780   0.46900   0.74190   0.01267  Uiso   1.00
H9     H     0.28400   0.66000   0.33300   0.01267  Uiso   1.00
H10    H     0.32000   0.46500   0.07300   0.01267  Uiso   1.00
H11    H     0.59000   0.16500   0.56100   0.01267  Uiso   1.00
H12    H     0.70000   0.16800   0.31700   0.01267  Uiso   1.00
C1     C     0.70800   0.61200   0.72340   0.01267  Uiso   1.00
C2     C     0.86250   0.66630   0.83130   0.01267  Uiso   1.00
C3     C     0.11040   0.65960   0.81730   0.01267  Uiso   1.00
C4     C     0.26840   0.75540   0.92110   0.01267  Uiso   1.00
C5     C     0.32510   0.30260   0.24940   0.01267  Uiso   1.00
C6     C     0.13680   0.43940   0.25320   0.01267  Uiso   1.00
C7     C     0.10010   0.51030   0.14880   0.01267  Uiso   1.00
C8     C     0.97110   0.68820   0.15640   0.01267  Uiso   1.00
C9     C     0.98790   0.31770   0.49050   0.01267  Uiso   1.00
C10    C     0.85020   0.14600   0.49270   0.01267  Uiso   1.00
C11    C     0.82010   0.00130   0.38660   0.01267  Uiso   1.00
C12    C     0.63420   0.85960   0.38690   0.01267  Uiso   1.00
O1     O     0.55980   0.47740   0.69850   0.01267  Uiso   1.00
O2     O     0.73130   0.70890   0.66030   0.01267  Uiso   1.00
O3     O     0.83240   0.55630   0.90160   0.01267  Uiso   1.00
O4     O     0.15660   0.47410   0.78060   0.01267  Uiso   1.00
O5     O     0.43700   0.67390   0.95980   0.01267  Uiso   1.00
O6     O     0.22590   0.91000   0.96880   0.01267  Uiso   1.00
O7     O     0.30010   0.16560   0.17470   0.01267  Uiso   1.00
O8     O     0.49330   0.34150   0.32680   0.01267  Uiso   1.00
O9     O     0.19650   0.58630   0.34610   0.01267  Uiso   1.00
O10    O     0.31540   0.54640   0.12630   0.01267  Uiso   1.00
O11    O     0.07780   0.82990   0.15030   0.01267  Uiso   1.00
O12    O     0.76630   0.67710   0.16210   0.01267  Uiso   1.00
O13    O     0.88940   0.46130   0.49260   0.01267  Uiso   1.00
O14    O     0.19420   0.29880   0.48910   0.01267  Uiso   1.00
O15    O     0.63210   0.20260   0.51160   0.01267  Uiso   1.00
O16    O     0.76320   0.07270   0.29600   0.01267  Uiso   1.00
O17    O     0.46140   0.83390   0.31230   0.01267  Uiso   1.00
O18    O     0.66330   0.77220   0.46110   0.01267  Uiso   1.00
