data_image0
_cell_length_a       11.441
_cell_length_b       11.441
_cell_length_c       46.83
_cell_angle_alpha    90
_cell_angle_beta     90
_cell_angle_gamma    120

_symmetry_space_group_name_H-M    "P 1"
_symmetry_int_tables_number       1

loop_
  _symmetry_equiv_pos_as_xyz
  'x, y, z'

loop_
  _atom_site_label
  _atom_site_occupancy
  _atom_site_fract_x
  _atom_site_fract_y
  _atom_site_fract_z
  _atom_site_thermal_displace_type
  _atom_site_B_iso_or_equiv
  _atom_site_type_symbol
  Zn1      1.0000 0.98140  0.99560  0.00000  Biso   1.000  Zn
  Zn2      1.0000 0.32320  0.67470  0.91290  Biso   1.000  Zn
  P1       1.0000 0.97940  0.99440  0.05190  Biso   1.000  P
  P2       1.0000 0.31920  0.66150  0.96420  Biso   1.000  P
  C1       1.0000 0.14950  0.08090  0.06830  Biso   1.000  C
  C2       1.0000 0.24590  0.04090  0.05440  Biso   1.000  C
  C3       1.0000 0.37950  0.10980  0.07030  Biso   1.000  C
  O1       1.0000 0.46950  0.22820  0.06180  Biso   1.000  O
  O2       1.0000 0.40120  0.05040  0.09060  Biso   1.000  O
  C4       1.0000 0.89920  0.82590  0.06930  Biso   1.000  C
  C5       1.0000 0.76840  0.72210  0.05310  Biso   1.000  C
  C6       1.0000 0.70450  0.58830  0.06790  Biso   1.000  C
  O3       1.0000 0.72810  0.49720  0.05900  Biso   1.000  O
  O4       1.0000 0.63200  0.57080  0.08920  Biso   1.000  O
  C7       1.0000 0.89060  0.07540  0.06820  Biso   1.000  C
  C8       1.0000 0.94040  0.21650  0.05480  Biso   1.000  C
  C9       1.0000 0.86130  0.28000  0.06830  Biso   1.000  C
  O5       1.0000 0.73440  0.22580  0.06420  Biso   1.000  O
  O6       1.0000 0.92550  0.38490  0.08290  Biso   1.000  O
  C10      1.0000 0.27560  0.49800  0.98000  Biso   1.000  C
  C11      1.0000 0.13280  0.38780  0.97490  Biso   1.000  C
  C12      1.0000 0.10010  0.25560  0.98810  Biso   1.000  C
  O7       1.0000 0.98870  0.15130  0.98020  Biso   1.000  O
  O8       1.0000 0.17370  0.24800  0.00560  Biso   1.000  O
  C13      1.0000 0.20160  0.69850  0.98300  Biso   1.000  C
  C14      1.0000 0.23110  0.84510  0.97750  Biso   1.000  C
  C15      1.0000 0.12950  0.87320  0.99120  Biso   1.000  C
  O9       1.0000 0.13090  0.97900  0.98240  Biso   1.000  O
  O10      1.0000 0.04150  0.79130  0.00790  Biso   1.000  O
  C16      1.0000 0.47540  0.77650  0.98150  Biso   1.000  C
  C17      1.0000 0.58630  0.74580  0.97410  Biso   1.000  C
  C18      1.0000 0.72130  0.84650  0.98840  Biso   1.000  C
  O11      1.0000 0.82640  0.84710  0.97980  Biso   1.000  O
  O12      1.0000 0.72510  0.92270  0.00760  Biso   1.000  O
  Zn3      1.0000 0.00440  0.98580  0.33333  Biso   1.000  Zn
  Zn4      1.0000 0.32530  0.64850  0.24623  Biso   1.000  Zn
  P3       1.0000 0.00560  0.98500  0.38523  Biso   1.000  P
  P4       1.0000 0.33850  0.65770  0.29753  Biso   1.000  P
  C19      1.0000 0.91910  0.06860  0.40163  Biso   1.000  C
  C20      1.0000 0.95910  0.20500  0.38773  Biso   1.000  C
  C21      1.0000 0.89020  0.26970  0.40363  Biso   1.000  C
  O13      1.0000 0.77180  0.24130  0.39513  Biso   1.000  O
  O14      1.0000 0.94960  0.35080  0.42393  Biso   1.000  O
  C22      1.0000 0.17410  0.07330  0.40263  Biso   1.000  C
  C23      1.0000 0.27790  0.04630  0.38643  Biso   1.000  C
  C24      1.0000 0.41170  0.11620  0.40123  Biso   1.000  C
  O15      1.0000 0.50280  0.23090  0.39233  Biso   1.000  O
  O16      1.0000 0.42920  0.06120  0.42253  Biso   1.000  O
  C25      1.0000 0.92460  0.81520  0.40153  Biso   1.000  C
  C26      1.0000 0.78350  0.72390  0.38813  Biso   1.000  C
  C27      1.0000 0.72000  0.58130  0.40163  Biso   1.000  C
  O17      1.0000 0.77420  0.50860  0.39753  Biso   1.000  O
  O18      1.0000 0.61510  0.54060  0.41623  Biso   1.000  O
  C28      1.0000 0.50200  0.77760  0.31333  Biso   1.000  C
  C29      1.0000 0.61220  0.74500  0.30823  Biso   1.000  C
  C30      1.0000 0.74440  0.84450  0.32143  Biso   1.000  C
  O19      1.0000 0.84870  0.83740  0.31353  Biso   1.000  O
  O20      1.0000 0.75200  0.92570  0.33893  Biso   1.000  O
  C31      1.0000 0.30150  0.50310  0.31633  Biso   1.000  C
  C32      1.0000 0.15490  0.38600  0.31083  Biso   1.000  C
  C33      1.0000 0.12680  0.25630  0.32453  Biso   1.000  C
  O21      1.0000 0.02100  0.15190  0.31573  Biso   1.000  O
  O22      1.0000 0.20870  0.25020  0.34123  Biso   1.000  O
  C34      1.0000 0.22350  0.69890  0.31483  Biso   1.000  C
  C35      1.0000 0.25420  0.84050  0.30743  Biso   1.000  C
  C36      1.0000 0.15350  0.87480  0.32173  Biso   1.000  C
  O23      1.0000 0.15290  0.97930  0.31313  Biso   1.000  O
  O24      1.0000 0.07730  0.80240  0.34093  Biso   1.000  O
  Zn5      1.0000 0.01420  0.01860  0.66667  Biso   1.000  Zn
  Zn6      1.0000 0.35150  0.67680  0.57957  Biso   1.000  Zn
  P5       1.0000 0.01500  0.02060  0.71857  Biso   1.000  P
  P6       1.0000 0.34230  0.68080  0.63087  Biso   1.000  P
  C37      1.0000 0.93140  0.85050  0.73497  Biso   1.000  C
  C38      1.0000 0.79500  0.75410  0.72107  Biso   1.000  C
  C39      1.0000 0.73030  0.62050  0.73697  Biso   1.000  C
  O25      1.0000 0.75870  0.53050  0.72847  Biso   1.000  O
  O26      1.0000 0.64920  0.59880  0.75727  Biso   1.000  O
  C40      1.0000 0.92670  0.10080  0.73597  Biso   1.000  C
  C41      1.0000 0.95370  0.23160  0.71977  Biso   1.000  C
  C42      1.0000 0.88380  0.29550  0.73457  Biso   1.000  C
  O27      1.0000 0.76910  0.27190  0.72567  Biso   1.000  O
  O28      1.0000 0.93880  0.36800  0.75587  Biso   1.000  O
  C43      1.0000 0.18480  0.10940  0.73487  Biso   1.000  C
  C44      1.0000 0.27610  0.05960  0.72147  Biso   1.000  C
  C45      1.0000 0.41870  0.13870  0.73497  Biso   1.000  C
  O29      1.0000 0.49140  0.26560  0.73087  Biso   1.000  O
  O30      1.0000 0.45940  0.07450  0.74957  Biso   1.000  O
  C46      1.0000 0.22240  0.72440  0.64667  Biso   1.000  C
  C47      1.0000 0.25500  0.86720  0.64157  Biso   1.000  C
  C48      1.0000 0.15550  0.89990  0.65477  Biso   1.000  C
  O31      1.0000 0.16260  0.01130  0.64687  Biso   1.000  O
  O32      1.0000 0.07430  0.82630  0.67227  Biso   1.000  O
  C49      1.0000 0.49690  0.79840  0.64967  Biso   1.000  C
  C50      1.0000 0.61400  0.76890  0.64417  Biso   1.000  C
  C51      1.0000 0.74370  0.87050  0.65787  Biso   1.000  C
  O33      1.0000 0.84810  0.86910  0.64907  Biso   1.000  O
  O34      1.0000 0.74980  0.95850  0.67457  Biso   1.000  O
  C52      1.0000 0.30110  0.52460  0.64817  Biso   1.000  C
  C53      1.0000 0.15950  0.41370  0.64077  Biso   1.000  C
  C54      1.0000 0.12520  0.27870  0.65507  Biso   1.000  C
  O35      1.0000 0.02070  0.17360  0.64647  Biso   1.000  O
  O36      1.0000 0.19760  0.27490  0.67427  Biso   1.000  O
  Zn7      1.0000 0.01860  0.00440  0.50000  Biso   1.000  Zn
  Zn8      1.0000 0.67680  0.32530  0.41290  Biso   1.000  Zn
  P7       1.0000 0.02060  0.00560  0.55190  Biso   1.000  P
  P8       1.0000 0.68080  0.33850  0.46420  Biso   1.000  P
  C55      1.0000 0.85050  0.91910  0.56830  Biso   1.000  C
  C56      1.0000 0.75410  0.95910  0.55440  Biso   1.000  C
  C57      1.0000 0.62050  0.89020  0.57030  Biso   1.000  C
  O37      1.0000 0.53050  0.77180  0.56180  Biso   1.000  O
  O38      1.0000 0.59880  0.94960  0.59060  Biso   1.000  O
  C58      1.0000 0.10080  0.17410  0.56930  Biso   1.000  C
  C59      1.0000 0.23160  0.27790  0.55310  Biso   1.000  C
  C60      1.0000 0.29550  0.41170  0.56790  Biso   1.000  C
  O39      1.0000 0.27190  0.50280  0.55900  Biso   1.000  O
  O40      1.0000 0.36800  0.42920  0.58920  Biso   1.000  O
  C61      1.0000 0.10940  0.92460  0.56820  Biso   1.000  C
  C62      1.0000 0.05960  0.78350  0.55480  Biso   1.000  C
  C63      1.0000 0.13870  0.72000  0.56830  Biso   1.000  C
  O41      1.0000 0.26560  0.77420  0.56420  Biso   1.000  O
  O42      1.0000 0.07450  0.61510  0.58290  Biso   1.000  O
  C64      1.0000 0.72440  0.50200  0.48000  Biso   1.000  C
  C65      1.0000 0.86720  0.61220  0.47490  Biso   1.000  C
  C66      1.0000 0.89990  0.74440  0.48810  Biso   1.000  C
  O43      1.0000 0.01130  0.84870  0.48020  Biso   1.000  O
  O44      1.0000 0.82630  0.75200  0.50560  Biso   1.000  O
  C67      1.0000 0.79840  0.30150  0.48300  Biso   1.000  C
  C68      1.0000 0.76890  0.15490  0.47750  Biso   1.000  C
  C69      1.0000 0.87050  0.12680  0.49120  Biso   1.000  C
  O45      1.0000 0.86910  0.02100  0.48240  Biso   1.000  O
  O46      1.0000 0.95850  0.20870  0.50790  Biso   1.000  O
  C70      1.0000 0.52460  0.22350  0.48150  Biso   1.000  C
  C71      1.0000 0.41370  0.25420  0.47410  Biso   1.000  C
  C72      1.0000 0.27870  0.15350  0.48840  Biso   1.000  C
  O47      1.0000 0.17360  0.15290  0.47980  Biso   1.000  O
  O48      1.0000 0.27490  0.07730  0.50760  Biso   1.000  O
  Zn9      1.0000 0.99560  0.01420  0.83333  Biso   1.000  Zn
  Zn10     1.0000 0.67470  0.35150  0.74623  Biso   1.000  Zn
  P9       1.0000 0.99440  0.01500  0.88523  Biso   1.000  P
  P10      1.0000 0.66150  0.34230  0.79753  Biso   1.000  P
  C73      1.0000 0.08090  0.93140  0.90163  Biso   1.000  C
  C74      1.0000 0.04090  0.79500  0.88773  Biso   1.000  C
  C75      1.0000 0.10980  0.73030  0.90363  Biso   1.000  C
  O49      1.0000 0.22820  0.75870  0.89513  Biso   1.000  O
  O50      1.0000 0.05040  0.64920  0.92393  Biso   1.000  O
  C76      1.0000 0.82590  0.92670  0.90263  Biso   1.000  C
  C77      1.0000 0.72210  0.95370  0.88643  Biso   1.000  C
  C78      1.0000 0.58830  0.88380  0.90123  Biso   1.000  C
  O51      1.0000 0.49720  0.76910  0.89233  Biso   1.000  O
  O52      1.0000 0.57080  0.93880  0.92253  Biso   1.000  O
  C79      1.0000 0.07540  0.18480  0.90153  Biso   1.000  C
  C80      1.0000 0.21650  0.27610  0.88813  Biso   1.000  C
  C81      1.0000 0.28000  0.41870  0.90163  Biso   1.000  C
  O53      1.0000 0.22580  0.49140  0.89753  Biso   1.000  O
  O54      1.0000 0.38490  0.45940  0.91623  Biso   1.000  O
  C82      1.0000 0.49800  0.22240  0.81333  Biso   1.000  C
  C83      1.0000 0.38780  0.25500  0.80823  Biso   1.000  C
  C84      1.0000 0.25560  0.15550  0.82143  Biso   1.000  C
  O55      1.0000 0.15130  0.16260  0.81353  Biso   1.000  O
  O56      1.0000 0.24800  0.07430  0.83893  Biso   1.000  O
  C85      1.0000 0.69850  0.49690  0.81633  Biso   1.000  C
  C86      1.0000 0.84510  0.61400  0.81083  Biso   1.000  C
  C87      1.0000 0.87320  0.74370  0.82453  Biso   1.000  C
  O57      1.0000 0.97900  0.84810  0.81573  Biso   1.000  O
  O58      1.0000 0.79130  0.74980  0.84123  Biso   1.000  O
  C88      1.0000 0.77650  0.30110  0.81483  Biso   1.000  C
  C89      1.0000 0.74580  0.15950  0.80743  Biso   1.000  C
  C90      1.0000 0.84650  0.12520  0.82173  Biso   1.000  C
  O59      1.0000 0.84710  0.02070  0.81313  Biso   1.000  O
  O60      1.0000 0.92270  0.19760  0.84093  Biso   1.000  O
  Zn11     1.0000 0.98580  0.98140  0.16667  Biso   1.000  Zn
  Zn12     1.0000 0.64850  0.32320  0.07957  Biso   1.000  Zn
  P11      1.0000 0.98500  0.97940  0.21857  Biso   1.000  P
  P12      1.0000 0.65770  0.31920  0.13087  Biso   1.000  P
  C91      1.0000 0.06860  0.14950  0.23497  Biso   1.000  C
  C92      1.0000 0.20500  0.24590  0.22107  Biso   1.000  C
  C93      1.0000 0.26970  0.37950  0.23697  Biso   1.000  C
  O61      1.0000 0.24130  0.46950  0.22847  Biso   1.000  O
  O62      1.0000 0.35080  0.40120  0.25727  Biso   1.000  O
  C94      1.0000 0.07330  0.89920  0.23597  Biso   1.000  C
  C95      1.0000 0.04630  0.76840  0.21977  Biso   1.000  C
  C96      1.0000 0.11620  0.70450  0.23457  Biso   1.000  C
  O63      1.0000 0.23090  0.72810  0.22567  Biso   1.000  O
  O64      1.0000 0.06120  0.63200  0.25587  Biso   1.000  O
  C97      1.0000 0.81520  0.89060  0.23487  Biso   1.000  C
  C98      1.0000 0.72390  0.94040  0.22147  Biso   1.000  C
  C99      1.0000 0.58130  0.86130  0.23497  Biso   1.000  C
  O65      1.0000 0.50860  0.73440  0.23087  Biso   1.000  O
  O66      1.0000 0.54060  0.92550  0.24957  Biso   1.000  O
  C100     1.0000 0.77760  0.27560  0.14667  Biso   1.000  C
  C101     1.0000 0.74500  0.13280  0.14157  Biso   1.000  C
  C102     1.0000 0.84450  0.10010  0.15477  Biso   1.000  C
  O67      1.0000 0.83740  0.98870  0.14687  Biso   1.000  O
  O68      1.0000 0.92570  0.17370  0.17227  Biso   1.000  O
  C103     1.0000 0.50310  0.20160  0.14967  Biso   1.000  C
  C104     1.0000 0.38600  0.23110  0.14417  Biso   1.000  C
  C105     1.0000 0.25630  0.12950  0.15787  Biso   1.000  C
  O69      1.0000 0.15190  0.13090  0.14907  Biso   1.000  O
  O70      1.0000 0.25020  0.04150  0.17457  Biso   1.000  O
  C106     1.0000 0.69890  0.47540  0.14817  Biso   1.000  C
  C107     1.0000 0.84050  0.58630  0.14077  Biso   1.000  C
  C108     1.0000 0.87480  0.72130  0.15507  Biso   1.000  C
  O71      1.0000 0.97930  0.82640  0.14647  Biso   1.000  O
  O72      1.0000 0.80240  0.72510  0.17427  Biso   1.000  O
