data_DEJRUH_clean
_audit_creation_date              2014-07-02
_audit_creation_method            'Materials Studio'
_symmetry_space_group_name_H-M    'P1'
_symmetry_Int_Tables_number       1
_symmetry_cell_setting            triclinic
loop_
_symmetry_equiv_pos_as_xyz
  x,y,z
_cell_length_a                    8.3780
_cell_length_b                    14.9589
_cell_length_c                    17.5720
_cell_angle_alpha                 90.0000
_cell_angle_beta                  90.0000
_cell_angle_gamma                 98.3475
loop_
_atom_site_label
_atom_site_type_symbol
_atom_site_fract_x
_atom_site_fract_y
_atom_site_fract_z
_atom_site_U_iso_or_equiv
_atom_site_adp_type
_atom_site_occupancy
Co1    Co    0.63013   0.27524   0.07816   0.01267  Uiso   1.00
Co2    Co    0.86987   0.22476   0.57816   0.01267  Uiso   1.00
Co3    Co    0.36987   0.72476   0.92184   0.01267  Uiso   1.00
Co4    Co    0.13013   0.77524   0.42184   0.01267  Uiso   1.00
B1     B     0.34110   0.14950   0.36410   0.01267  Uiso   1.00
B2     B     0.15890   0.35050   0.86410   0.01267  Uiso   1.00
B3     B     0.65890   0.85050   0.63590   0.01267  Uiso   1.00
B4     B     0.84110   0.64950   0.13590   0.01267  Uiso   1.00
H1     H     0.14110   0.22900   0.25810   0.01267  Uiso   1.00
H2     H     0.61900   0.05380   0.34030   0.01267  Uiso   1.00
H3     H     0.04600   0.08000   0.29700   0.01267  Uiso   1.00
H4     H     0.25400   0.26800   0.12900   0.01267  Uiso   1.00
H5     H     0.12700   0.11600   0.48400   0.01267  Uiso   1.00
H6     H     0.30300   0.34300   0.38000   0.01267  Uiso   1.00
H7     H     0.93700   0.92000   0.32000   0.01267  Uiso   1.00
H8     H     0.85200   0.08600   0.42800   0.01267  Uiso   1.00
H9     H     0.10100   0.37700   0.47900   0.01267  Uiso   1.00
H10    H     0.59000   0.18200   0.24800   0.01267  Uiso   1.00
H11    H     0.50300   0.23400   0.49200   0.01267  Uiso   1.00
H12    H     0.35400   0.97100   0.42400   0.01267  Uiso   1.00
H13    H     0.35890   0.27100   0.75810   0.01267  Uiso   1.00
H14    H     0.88100   0.44620   0.84030   0.01267  Uiso   1.00
H15    H     0.45400   0.42000   0.79700   0.01267  Uiso   1.00
H16    H     0.24600   0.23200   0.62900   0.01267  Uiso   1.00
H17    H     0.37300   0.38400   0.98400   0.01267  Uiso   1.00
H18    H     0.19700   0.15700   0.88000   0.01267  Uiso   1.00
H19    H     0.56300   0.58000   0.82000   0.01267  Uiso   1.00
H20    H     0.64800   0.41400   0.92800   0.01267  Uiso   1.00
H21    H     0.39900   0.12300   0.97900   0.01267  Uiso   1.00
H22    H     0.91000   0.31800   0.74800   0.01267  Uiso   1.00
H23    H     0.99700   0.26600   0.99200   0.01267  Uiso   1.00
H24    H     0.14600   0.52900   0.92400   0.01267  Uiso   1.00
H25    H     0.85890   0.77100   0.74190   0.01267  Uiso   1.00
H26    H     0.38100   0.94620   0.65970   0.01267  Uiso   1.00
H27    H     0.95400   0.92000   0.70300   0.01267  Uiso   1.00
H28    H     0.74600   0.73200   0.87100   0.01267  Uiso   1.00
H29    H     0.87300   0.88400   0.51600   0.01267  Uiso   1.00
H30    H     0.69700   0.65700   0.62000   0.01267  Uiso   1.00
H31    H     0.06300   0.08000   0.68000   0.01267  Uiso   1.00
H32    H     0.14800   0.91400   0.57200   0.01267  Uiso   1.00
H33    H     0.89900   0.62300   0.52100   0.01267  Uiso   1.00
H34    H     0.41000   0.81800   0.75200   0.01267  Uiso   1.00
H35    H     0.49700   0.76600   0.50800   0.01267  Uiso   1.00
H36    H     0.64600   0.02900   0.57600   0.01267  Uiso   1.00
H37    H     0.64110   0.72900   0.24190   0.01267  Uiso   1.00
H38    H     0.11900   0.55380   0.15970   0.01267  Uiso   1.00
H39    H     0.54600   0.58000   0.20300   0.01267  Uiso   1.00
H40    H     0.75400   0.76800   0.37100   0.01267  Uiso   1.00
H41    H     0.62700   0.61600   0.01600   0.01267  Uiso   1.00
H42    H     0.80300   0.84300   0.12000   0.01267  Uiso   1.00
H43    H     0.43700   0.42000   0.18000   0.01267  Uiso   1.00
H44    H     0.35200   0.58600   0.07200   0.01267  Uiso   1.00
H45    H     0.60100   0.87700   0.02100   0.01267  Uiso   1.00
H46    H     0.09000   0.68200   0.25200   0.01267  Uiso   1.00
H47    H     0.00300   0.73400   0.00800   0.01267  Uiso   1.00
H48    H     0.85400   0.47100   0.07600   0.01267  Uiso   1.00
C1     C     0.23960   0.29950   0.41270   0.01267  Uiso   1.00
C2     C     0.24510   0.22410   0.24180   0.01267  Uiso   1.00
C3     C     0.30680   0.24640   0.17190   0.01267  Uiso   1.00
C4     C     0.49430   0.19840   0.23700   0.01267  Uiso   1.00
C5     C     0.13840   0.17590   0.46980   0.01267  Uiso   1.00
C6     C     0.56650   0.19170   0.46560   0.01267  Uiso   1.00
C7     C     0.09460   0.03400   0.32110   0.01267  Uiso   1.00
C8     C     0.03370   0.94700   0.33760   0.01267  Uiso   1.00
C9     C     0.74710   0.11120   0.43120   0.01267  Uiso   1.00
C10    C     0.62380   0.09310   0.38160   0.01267  Uiso   1.00
C11    C     0.13280   0.31810   0.46710   0.01267  Uiso   1.00
C12    C     0.26170   0.97660   0.39420   0.01267  Uiso   1.00
C13    C     0.26040   0.20050   0.91270   0.01267  Uiso   1.00
C14    C     0.25490   0.27590   0.74180   0.01267  Uiso   1.00
C15    C     0.19320   0.25360   0.67190   0.01267  Uiso   1.00
C16    C     0.00570   0.30160   0.73700   0.01267  Uiso   1.00
C17    C     0.36160   0.32410   0.96980   0.01267  Uiso   1.00
C18    C     0.93350   0.30830   0.96560   0.01267  Uiso   1.00
C19    C     0.40540   0.46600   0.82110   0.01267  Uiso   1.00
C20    C     0.46630   0.55300   0.83760   0.01267  Uiso   1.00
C21    C     0.75290   0.38880   0.93120   0.01267  Uiso   1.00
C22    C     0.87620   0.40690   0.88160   0.01267  Uiso   1.00
C23    C     0.36720   0.18190   0.96710   0.01267  Uiso   1.00
C24    C     0.23830   0.52340   0.89420   0.01267  Uiso   1.00
C25    C     0.76040   0.70050   0.58730   0.01267  Uiso   1.00
C26    C     0.75490   0.77590   0.75820   0.01267  Uiso   1.00
C27    C     0.69320   0.75360   0.82810   0.01267  Uiso   1.00
C28    C     0.50570   0.80160   0.76300   0.01267  Uiso   1.00
C29    C     0.86160   0.82410   0.53020   0.01267  Uiso   1.00
C30    C     0.43350   0.80830   0.53440   0.01267  Uiso   1.00
C31    C     0.90540   0.96600   0.67890   0.01267  Uiso   1.00
C32    C     0.96630   0.05300   0.66240   0.01267  Uiso   1.00
C33    C     0.25290   0.88880   0.56880   0.01267  Uiso   1.00
C34    C     0.37620   0.90690   0.61840   0.01267  Uiso   1.00
C35    C     0.86720   0.68190   0.53290   0.01267  Uiso   1.00
C36    C     0.73830   0.02340   0.60580   0.01267  Uiso   1.00
C37    C     0.73960   0.79950   0.08730   0.01267  Uiso   1.00
C38    C     0.74510   0.72410   0.25820   0.01267  Uiso   1.00
C39    C     0.80680   0.74640   0.32810   0.01267  Uiso   1.00
C40    C     0.99430   0.69840   0.26300   0.01267  Uiso   1.00
C41    C     0.63840   0.67590   0.03020   0.01267  Uiso   1.00
C42    C     0.06650   0.69170   0.03440   0.01267  Uiso   1.00
C43    C     0.59460   0.53400   0.17890   0.01267  Uiso   1.00
C44    C     0.53370   0.44700   0.16240   0.01267  Uiso   1.00
C45    C     0.24710   0.61120   0.06880   0.01267  Uiso   1.00
C46    C     0.12380   0.59310   0.11840   0.01267  Uiso   1.00
C47    C     0.63280   0.81810   0.03290   0.01267  Uiso   1.00
C48    C     0.76170   0.47660   0.10580   0.01267  Uiso   1.00
N1     N     0.24210   0.20750   0.41400   0.01267  Uiso   1.00
N2     N     0.50530   0.14410   0.40330   0.01267  Uiso   1.00
N3     N     0.24220   0.05370   0.35780   0.01267  Uiso   1.00
N4     N     0.46570   0.22980   0.16870   0.01267  Uiso   1.00
N5     N     0.36470   0.19270   0.28470   0.01267  Uiso   1.00
N6     N     0.71330   0.17430   0.48410   0.01267  Uiso   1.00
N7     N     0.06880   0.23890   0.50290   0.01267  Uiso   1.00
N8     N     0.13930   0.91010   0.38320   0.01267  Uiso   1.00
N9     N     0.25790   0.29250   0.91400   0.01267  Uiso   1.00
N10    N     0.99470   0.35590   0.90330   0.01267  Uiso   1.00
N11    N     0.25780   0.44630   0.85780   0.01267  Uiso   1.00
N12    N     0.03430   0.27020   0.66870   0.01267  Uiso   1.00
N13    N     0.13530   0.30730   0.78470   0.01267  Uiso   1.00
N14    N     0.78670   0.32570   0.98410   0.01267  Uiso   1.00
N15    N     0.43120   0.26110   0.00290   0.01267  Uiso   1.00
N16    N     0.36070   0.58990   0.88320   0.01267  Uiso   1.00
N17    N     0.75790   0.79250   0.58600   0.01267  Uiso   1.00
N18    N     0.49470   0.85590   0.59670   0.01267  Uiso   1.00
N19    N     0.75780   0.94630   0.64220   0.01267  Uiso   1.00
N20    N     0.53430   0.77020   0.83130   0.01267  Uiso   1.00
N21    N     0.63530   0.80730   0.71530   0.01267  Uiso   1.00
N22    N     0.28670   0.82570   0.51590   0.01267  Uiso   1.00
N23    N     0.93120   0.76110   0.49710   0.01267  Uiso   1.00
N24    N     0.86070   0.08990   0.61680   0.01267  Uiso   1.00
N25    N     0.74210   0.70750   0.08600   0.01267  Uiso   1.00
N26    N     0.00530   0.64410   0.09670   0.01267  Uiso   1.00
N27    N     0.74220   0.55370   0.14220   0.01267  Uiso   1.00
N28    N     0.96570   0.72980   0.33130   0.01267  Uiso   1.00
N29    N     0.86470   0.69270   0.21530   0.01267  Uiso   1.00
N30    N     0.21330   0.67430   0.01590   0.01267  Uiso   1.00
N31    N     0.56880   0.73890   0.99710   0.01267  Uiso   1.00
N32    N     0.63930   0.41010   0.11680   0.01267  Uiso   1.00
