data_DEKHEH_clean
_audit_creation_date              2014-07-02
_audit_creation_method            'Materials Studio'
_symmetry_space_group_name_H-M    'P1'
_symmetry_Int_Tables_number       1
_symmetry_cell_setting            triclinic
loop_
_symmetry_equiv_pos_as_xyz
  x,y,z
_cell_length_a                    9.3170
_cell_length_b                    11.7420
_cell_length_c                    13.2510
_cell_angle_alpha                 90.0000
_cell_angle_beta                  90.1950
_cell_angle_gamma                 90.0000
loop_
_atom_site_label
_atom_site_type_symbol
_atom_site_fract_x
_atom_site_fract_y
_atom_site_fract_z
_atom_site_U_iso_or_equiv
_atom_site_adp_type
_atom_site_occupancy
Mn1    Mn    0.25000   0.05513   0.00000   0.01267  Uiso   1.00
Mn2    Mn    0.75000   0.94487   0.00000   0.01267  Uiso   1.00
H1     H     0.56980   0.79340   0.73870   0.01267  Uiso   1.00
H2     H     0.47390   0.70720   0.59570   0.01267  Uiso   1.00
H3     H     0.16150   0.94170   0.58950   0.01267  Uiso   1.00
H4     H     0.25830   0.02760   0.73170   0.01267  Uiso   1.00
H5     H     0.35290   0.83590   0.12750   0.01267  Uiso   1.00
H6     H     0.35790   0.64220   0.13120   0.01267  Uiso   1.00
H7     H     0.42650   0.46600   0.08620   0.01267  Uiso   1.00
H8     H     0.42380   0.27240   0.08060   0.01267  Uiso   1.00
H9     H     0.93020   0.79340   0.26130   0.01267  Uiso   1.00
H10    H     0.02610   0.70720   0.40430   0.01267  Uiso   1.00
H11    H     0.33850   0.94170   0.41050   0.01267  Uiso   1.00
H12    H     0.24170   0.02760   0.26830   0.01267  Uiso   1.00
H13    H     0.14710   0.83590   0.87250   0.01267  Uiso   1.00
H14    H     0.14210   0.64220   0.86880   0.01267  Uiso   1.00
H15    H     0.07350   0.46600   0.91380   0.01267  Uiso   1.00
H16    H     0.07620   0.27240   0.91940   0.01267  Uiso   1.00
H17    H     0.43020   0.20660   0.26130   0.01267  Uiso   1.00
H18    H     0.52610   0.29280   0.40430   0.01267  Uiso   1.00
H19    H     0.83850   0.05830   0.41050   0.01267  Uiso   1.00
H20    H     0.74170   0.97240   0.26830   0.01267  Uiso   1.00
H21    H     0.64710   0.16410   0.87250   0.01267  Uiso   1.00
H22    H     0.64210   0.35780   0.86880   0.01267  Uiso   1.00
H23    H     0.57350   0.53400   0.91380   0.01267  Uiso   1.00
H24    H     0.57620   0.72760   0.91940   0.01267  Uiso   1.00
H25    H     0.06980   0.20660   0.73870   0.01267  Uiso   1.00
H26    H     0.97390   0.29280   0.59570   0.01267  Uiso   1.00
H27    H     0.66150   0.05830   0.58950   0.01267  Uiso   1.00
H28    H     0.75830   0.97240   0.73170   0.01267  Uiso   1.00
H29    H     0.85290   0.16410   0.12750   0.01267  Uiso   1.00
H30    H     0.85790   0.35780   0.13120   0.01267  Uiso   1.00
H31    H     0.92650   0.53400   0.08620   0.01267  Uiso   1.00
H32    H     0.92380   0.72760   0.08060   0.01267  Uiso   1.00
C1     C     0.48080   0.97180   0.84560   0.01267  Uiso   1.00
C2     C     0.42380   0.91850   0.75060   0.01267  Uiso   1.00
C3     C     0.48750   0.82330   0.70900   0.01267  Uiso   1.00
C4     C     0.43060   0.77130   0.62350   0.01267  Uiso   1.00
C5     C     0.30830   0.81720   0.58080   0.01267  Uiso   1.00
C6     C     0.24350   0.91190   0.61970   0.01267  Uiso   1.00
C7     C     0.30160   0.96300   0.70490   0.01267  Uiso   1.00
C8     C     0.31040   0.79620   0.07450   0.01267  Uiso   1.00
C9     C     0.31350   0.67940   0.07750   0.01267  Uiso   1.00
C10    C     0.35440   0.42870   0.05040   0.01267  Uiso   1.00
C11    C     0.35120   0.31200   0.04750   0.01267  Uiso   1.00
C12    C     0.01920   0.97180   0.15440   0.01267  Uiso   1.00
C13    C     0.07620   0.91850   0.24940   0.01267  Uiso   1.00
C14    C     0.01250   0.82330   0.29100   0.01267  Uiso   1.00
C15    C     0.06940   0.77130   0.37650   0.01267  Uiso   1.00
C16    C     0.19170   0.81720   0.41920   0.01267  Uiso   1.00
C17    C     0.25650   0.91190   0.38030   0.01267  Uiso   1.00
C18    C     0.19840   0.96300   0.29510   0.01267  Uiso   1.00
C19    C     0.18960   0.79620   0.92550   0.01267  Uiso   1.00
C20    C     0.18650   0.67940   0.92250   0.01267  Uiso   1.00
C21    C     0.14560   0.42870   0.94960   0.01267  Uiso   1.00
C22    C     0.14880   0.31200   0.95250   0.01267  Uiso   1.00
C23    C     0.51920   0.02820   0.15440   0.01267  Uiso   1.00
C24    C     0.57620   0.08150   0.24940   0.01267  Uiso   1.00
C25    C     0.51250   0.17670   0.29100   0.01267  Uiso   1.00
C26    C     0.56940   0.22870   0.37650   0.01267  Uiso   1.00
C27    C     0.69170   0.18280   0.41920   0.01267  Uiso   1.00
C28    C     0.75650   0.08810   0.38030   0.01267  Uiso   1.00
C29    C     0.69840   0.03700   0.29510   0.01267  Uiso   1.00
C30    C     0.68960   0.20380   0.92550   0.01267  Uiso   1.00
C31    C     0.68650   0.32060   0.92250   0.01267  Uiso   1.00
C32    C     0.64560   0.57130   0.94960   0.01267  Uiso   1.00
C33    C     0.64880   0.68800   0.95250   0.01267  Uiso   1.00
C34    C     0.98080   0.02820   0.84560   0.01267  Uiso   1.00
C35    C     0.92380   0.08150   0.75060   0.01267  Uiso   1.00
C36    C     0.98750   0.17670   0.70900   0.01267  Uiso   1.00
C37    C     0.93060   0.22870   0.62350   0.01267  Uiso   1.00
C38    C     0.80830   0.18280   0.58080   0.01267  Uiso   1.00
C39    C     0.74350   0.08810   0.61970   0.01267  Uiso   1.00
C40    C     0.80160   0.03700   0.70490   0.01267  Uiso   1.00
C41    C     0.81040   0.20380   0.07450   0.01267  Uiso   1.00
C42    C     0.81350   0.32060   0.07750   0.01267  Uiso   1.00
C43    C     0.85440   0.57130   0.05040   0.01267  Uiso   1.00
C44    C     0.85120   0.68800   0.04750   0.01267  Uiso   1.00
C45    C     0.25000   0.61670   0.00000   0.01267  Uiso   1.00
C46    C     0.25000   0.49140   0.00000   0.01267  Uiso   1.00
C47    C     0.75000   0.38330   0.00000   0.01267  Uiso   1.00
C48    C     0.75000   0.50860   0.00000   0.01267  Uiso   1.00
N1     N     0.25000   0.85640   0.00000   0.01267  Uiso   1.00
N2     N     0.25000   0.25200   0.00000   0.01267  Uiso   1.00
N3     N     0.75000   0.14360   0.00000   0.01267  Uiso   1.00
N4     N     0.75000   0.74800   0.00000   0.01267  Uiso   1.00
O1     O     0.41260   0.05218   0.88403   0.01267  Uiso   1.00
O2     O     0.59660   0.93081   0.87942   0.01267  Uiso   1.00
O3     O     0.08740   0.05218   0.11597   0.01267  Uiso   1.00
O4     O     0.90340   0.93081   0.12058   0.01267  Uiso   1.00
O5     O     0.58740   0.94782   0.11597   0.01267  Uiso   1.00
O6     O     0.40340   0.06919   0.12058   0.01267  Uiso   1.00
O7     O     0.91260   0.94782   0.88403   0.01267  Uiso   1.00
O8     O     0.09660   0.06919   0.87942   0.01267  Uiso   1.00
O9     O     0.25000   0.75670   0.50000   0.01267  Uiso   1.00
O10    O     0.75000   0.24330   0.50000   0.01267  Uiso   1.00
