data_DEKHUX_clean
_audit_creation_date              2014-07-02
_audit_creation_method            'Materials Studio'
_symmetry_space_group_name_H-M    'P1'
_symmetry_Int_Tables_number       1
_symmetry_cell_setting            triclinic
loop_
_symmetry_equiv_pos_as_xyz
  x,y,z
_cell_length_a                    10.2240
_cell_length_b                    11.7230
_cell_length_c                    12.2270
_cell_angle_alpha                 65.9800
_cell_angle_beta                  71.3050
_cell_angle_gamma                 84.6220
loop_
_atom_site_label
_atom_site_type_symbol
_atom_site_fract_x
_atom_site_fract_y
_atom_site_fract_z
_atom_site_U_iso_or_equiv
_atom_site_adp_type
_atom_site_occupancy
Mn1    Mn    0.00000   0.50000   0.50000   0.01267  Uiso   1.00
Mn2    Mn    0.50000   0.50000   0.50000   0.01267  Uiso   1.00
H1     H     0.87520   0.81840   0.43730   0.01267  Uiso   1.00
H2     H     0.59430   0.83030   0.52900   0.01267  Uiso   1.00
H3     H     0.91080   0.00590   0.42990   0.01267  Uiso   1.00
H4     H     0.92930   0.18340   0.46540   0.01267  Uiso   1.00
H5     H     0.52980   0.16150   0.63870   0.01267  Uiso   1.00
H6     H     0.51350   0.97660   0.61630   0.01267  Uiso   1.00
H7     H     0.93410   0.41030   0.31090   0.01267  Uiso   1.00
H8     H     0.02230   0.40830   0.11200   0.01267  Uiso   1.00
H9     H     0.37830   0.55250   0.07900   0.01267  Uiso   1.00
H10    H     0.28420   0.53940   0.28230   0.01267  Uiso   1.00
H11    H     0.39820   0.64170   0.87020   0.01267  Uiso   1.00
H12    H     0.49310   0.64600   0.67300   0.01267  Uiso   1.00
H13    H     0.25660   0.36180   0.75800   0.01267  Uiso   1.00
H14    H     0.15640   0.35000   0.95640   0.01267  Uiso   1.00
H15    H     0.12480   0.18160   0.56270   0.01267  Uiso   1.00
H16    H     0.40570   0.16970   0.47100   0.01267  Uiso   1.00
H17    H     0.08920   0.99410   0.57010   0.01267  Uiso   1.00
H18    H     0.07070   0.81660   0.53460   0.01267  Uiso   1.00
H19    H     0.47020   0.83850   0.36130   0.01267  Uiso   1.00
H20    H     0.48650   0.02340   0.38370   0.01267  Uiso   1.00
H21    H     0.06590   0.58970   0.68910   0.01267  Uiso   1.00
H22    H     0.97770   0.59170   0.88800   0.01267  Uiso   1.00
H23    H     0.62170   0.44750   0.92100   0.01267  Uiso   1.00
H24    H     0.71580   0.46060   0.71770   0.01267  Uiso   1.00
H25    H     0.60180   0.35830   0.12980   0.01267  Uiso   1.00
H26    H     0.50690   0.35400   0.32700   0.01267  Uiso   1.00
H27    H     0.74340   0.63820   0.24200   0.01267  Uiso   1.00
H28    H     0.84360   0.65000   0.04360   0.01267  Uiso   1.00
C1     C     0.75070   0.67910   0.44450   0.01267  Uiso   1.00
C2     C     0.78330   0.79330   0.46010   0.01267  Uiso   1.00
C3     C     0.68520   0.85870   0.50510   0.01267  Uiso   1.00
C4     C     0.70700   0.97250   0.52080   0.01267  Uiso   1.00
C5     C     0.83290   0.03520   0.47390   0.01267  Uiso   1.00
C6     C     0.84260   0.14460   0.49310   0.01267  Uiso   1.00
C7     C     0.72990   0.19630   0.55080   0.01267  Uiso   1.00
C8     C     0.60870   0.13170   0.59660   0.01267  Uiso   1.00
C9     C     0.59890   0.01940   0.58190   0.01267  Uiso   1.00
C10    C     0.74600   0.31390   0.56910   0.01267  Uiso   1.00
C11    C     0.02500   0.43870   0.26390   0.01267  Uiso   1.00
C12    C     0.07690   0.43890   0.14290   0.01267  Uiso   1.00
C13    C     0.21000   0.48500   0.07010   0.01267  Uiso   1.00
C14    C     0.28740   0.52260   0.12410   0.01267  Uiso   1.00
C15    C     0.22920   0.51580   0.24680   0.01267  Uiso   1.00
C16    C     0.26830   0.49320   0.93880   0.01267  Uiso   1.00
C17    C     0.36830   0.58270   0.84970   0.01267  Uiso   1.00
C18    C     0.42410   0.58550   0.73070   0.01267  Uiso   1.00
C19    C     0.28580   0.41940   0.78060   0.01267  Uiso   1.00
C20    C     0.22570   0.41080   0.90050   0.01267  Uiso   1.00
C21    C     0.24930   0.32090   0.55550   0.01267  Uiso   1.00
C22    C     0.21670   0.20670   0.53990   0.01267  Uiso   1.00
C23    C     0.31480   0.14130   0.49490   0.01267  Uiso   1.00
C24    C     0.29300   0.02750   0.47920   0.01267  Uiso   1.00
C25    C     0.16710   0.96480   0.52610   0.01267  Uiso   1.00
C26    C     0.15740   0.85540   0.50690   0.01267  Uiso   1.00
C27    C     0.27010   0.80370   0.44920   0.01267  Uiso   1.00
C28    C     0.39130   0.86830   0.40340   0.01267  Uiso   1.00
C29    C     0.40110   0.98060   0.41810   0.01267  Uiso   1.00
C30    C     0.25400   0.68610   0.43090   0.01267  Uiso   1.00
C31    C     0.97500   0.56130   0.73610   0.01267  Uiso   1.00
C32    C     0.92310   0.56110   0.85710   0.01267  Uiso   1.00
C33    C     0.79000   0.51500   0.92990   0.01267  Uiso   1.00
C34    C     0.71260   0.47740   0.87590   0.01267  Uiso   1.00
C35    C     0.77080   0.48420   0.75320   0.01267  Uiso   1.00
C36    C     0.73170   0.50680   0.06120   0.01267  Uiso   1.00
C37    C     0.63170   0.41730   0.15030   0.01267  Uiso   1.00
C38    C     0.57590   0.41450   0.26930   0.01267  Uiso   1.00
C39    C     0.71420   0.58060   0.21940   0.01267  Uiso   1.00
C40    C     0.77430   0.58920   0.09950   0.01267  Uiso   1.00
N1     N     0.09980   0.47740   0.31500   0.01267  Uiso   1.00
N2     N     0.38440   0.50510   0.69310   0.01267  Uiso   1.00
N3     N     0.90020   0.52260   0.68500   0.01267  Uiso   1.00
N4     N     0.61560   0.49490   0.30690   0.01267  Uiso   1.00
O1     O     0.85120   0.61540   0.41450   0.01267  Uiso   1.00
O2     O     0.62820   0.65920   0.45700   0.01267  Uiso   1.00
O3     O     0.86730   0.33920   0.56160   0.01267  Uiso   1.00
O4     O     0.64200   0.37500   0.59200   0.01267  Uiso   1.00
O5     O     0.14880   0.38460   0.58550   0.01267  Uiso   1.00
O6     O     0.37180   0.34080   0.54300   0.01267  Uiso   1.00
O7     O     0.13270   0.66080   0.43840   0.01267  Uiso   1.00
O8     O     0.35800   0.62500   0.40800   0.01267  Uiso   1.00
