data_image0
_cell_length_a       8.67
_cell_length_b       9.742
_cell_length_c       10.406
_cell_angle_alpha    81.44
_cell_angle_beta     65.83
_cell_angle_gamma    67.16

_symmetry_space_group_name_H-M    "P 1"
_symmetry_int_tables_number       1

loop_
  _symmetry_equiv_pos_as_xyz
  'x, y, z'

loop_
  _atom_site_label
  _atom_site_occupancy
  _atom_site_fract_x
  _atom_site_fract_y
  _atom_site_fract_z
  _atom_site_thermal_displace_type
  _atom_site_B_iso_or_equiv
  _atom_site_type_symbol
  Ga1      1.0000 0.13242  0.14930  0.86246  Biso   1.000  Ga
  Ga2      1.0000 0.11989  0.54631  0.84910  Biso   1.000  Ga
  P1       1.0000 0.24120  0.80290  0.88240  Biso   1.000  P
  P2       1.0000 0.19940  0.35790  0.59080  Biso   1.000  P
  P3       1.0000 0.71230  0.71930  0.99010  Biso   1.000  P
  F1       1.0000 0.00100  0.39280  0.93710  Biso   1.000  F
  O1       1.0000 0.24000  0.94810  0.80190  Biso   1.000  O
  O2       1.0000 0.10390  0.84030  0.03650  Biso   1.000  O
  O3       1.0000 0.20180  0.70820  0.80520  Biso   1.000  O
  O4       1.0000 0.71460  0.84980  0.05680  Biso   1.000  O
  O5       1.0000 0.68880  0.59350  0.09650  Biso   1.000  O
  O6       1.0000 0.87950  0.66530  0.85340  Biso   1.000  O
  O7       1.0000 0.36230  0.30430  0.45550  Biso   1.000  O
  O8       1.0000 0.17220  0.22490  0.68720  Biso   1.000  O
  O9       1.0000 0.21470  0.47430  0.66540  Biso   1.000  O
  C1       1.0000 0.51330  0.80510  0.95150  Biso   1.000  C
  H1       1.0000 0.41030  0.85080  0.03970  Biso   1.000  H
  H2       1.0000 0.52980  0.88700  0.88490  Biso   1.000  H
  C2       1.0000 0.99570  0.44030  0.55610  Biso   1.000  C
  H3       1.0000 0.97280  0.36110  0.52550  Biso   1.000  H
  H4       1.0000 0.89230  0.48480  0.64450  Biso   1.000  H
  C3       1.0000 0.45860  0.70630  0.88900  Biso   1.000  C
  H5       1.0000 0.45730  0.61620  0.94720  Biso   1.000  H
  H6       1.0000 0.54960  0.67380  0.79270  Biso   1.000  H
  Ga3      1.0000 0.86758  0.85070  0.13754  Biso   1.000  Ga
  Ga4      1.0000 0.88011  0.45369  0.15090  Biso   1.000  Ga
  P4       1.0000 0.75880  0.19710  0.11760  Biso   1.000  P
  P5       1.0000 0.80060  0.64210  0.40920  Biso   1.000  P
  P6       1.0000 0.28770  0.28070  0.00990  Biso   1.000  P
  F2       1.0000 0.99900  0.60720  0.06290  Biso   1.000  F
  O10      1.0000 0.76000  0.05190  0.19810  Biso   1.000  O
  O11      1.0000 0.89610  0.15970  0.96350  Biso   1.000  O
  O12      1.0000 0.79820  0.29180  0.19480  Biso   1.000  O
  O13      1.0000 0.28540  0.15020  0.94320  Biso   1.000  O
  O14      1.0000 0.31120  0.40650  0.90350  Biso   1.000  O
  O15      1.0000 0.12050  0.33470  0.14660  Biso   1.000  O
  O16      1.0000 0.63770  0.69570  0.54450  Biso   1.000  O
  O17      1.0000 0.82780  0.77510  0.31280  Biso   1.000  O
  O18      1.0000 0.78530  0.52570  0.33460  Biso   1.000  O
  C4       1.0000 0.48670  0.19490  0.04850  Biso   1.000  C
  H7       1.0000 0.58970  0.14920  0.96030  Biso   1.000  H
  H8       1.0000 0.47020  0.11300  0.11510  Biso   1.000  H
  C5       1.0000 0.00430  0.55970  0.44390  Biso   1.000  C
  H9       1.0000 0.02720  0.63890  0.47450  Biso   1.000  H
  H10      1.0000 0.10770  0.51520  0.35550  Biso   1.000  H
  C6       1.0000 0.54140  0.29370  0.11100  Biso   1.000  C
  H11      1.0000 0.54270  0.38380  0.05280  Biso   1.000  H
  H12      1.0000 0.45040  0.32620  0.20730  Biso   1.000  H
