data_image0
_cell_length_a       11.617
_cell_length_b       8.717
_cell_length_c       8.289
_cell_angle_alpha    90
_cell_angle_beta     90
_cell_angle_gamma    90

_symmetry_space_group_name_H-M    "P 1"
_symmetry_int_tables_number       1

loop_
  _symmetry_equiv_pos_as_xyz
  'x, y, z'

loop_
  _atom_site_label
  _atom_site_occupancy
  _atom_site_fract_x
  _atom_site_fract_y
  _atom_site_fract_z
  _atom_site_thermal_displace_type
  _atom_site_B_iso_or_equiv
  _atom_site_type_symbol
  Zn1      1.0000 0.25010  0.98543  0.00000  Biso   1.000  Zn
  O1       1.0000 0.31300  0.16470  0.86070  Biso   1.000  O
  O2       1.0000 0.32350  0.83340  0.84360  Biso   1.000  O
  O3       1.0000 0.40520  0.98480  0.13730  Biso   1.000  O
  O4       1.0000 0.09460  0.99090  0.87040  Biso   1.000  O
  N1       1.0000 0.32340  0.33430  0.66670  Biso   1.000  N
  N2       1.0000 0.32070  0.66080  0.64880  Biso   1.000  N
  C1       1.0000 0.28250  0.21770  0.73330  Biso   1.000  C
  C2       1.0000 0.27690  0.72200  0.77870  Biso   1.000  C
  H1       1.0000 0.22070  0.16600  0.66610  Biso   1.000  H
  H2       1.0000 0.22270  0.66600  0.83200  Biso   1.000  H
  Zn2      1.0000 0.74990  0.01457  0.00000  Biso   1.000  Zn
  O5       1.0000 0.68700  0.83530  0.86070  Biso   1.000  O
  O6       1.0000 0.67650  0.16660  0.84360  Biso   1.000  O
  O7       1.0000 0.59480  0.01520  0.13730  Biso   1.000  O
  O8       1.0000 0.90540  0.00910  0.87040  Biso   1.000  O
  N3       1.0000 0.67660  0.66570  0.66670  Biso   1.000  N
  N4       1.0000 0.67930  0.33920  0.64880  Biso   1.000  N
  C3       1.0000 0.71750  0.78230  0.73330  Biso   1.000  C
  C4       1.0000 0.72310  0.27800  0.77870  Biso   1.000  C
  H3       1.0000 0.77930  0.83400  0.66610  Biso   1.000  H
  H4       1.0000 0.77730  0.33400  0.83200  Biso   1.000  H
  Zn3      1.0000 0.75010  0.51457  0.50000  Biso   1.000  Zn
  O9       1.0000 0.81300  0.33530  0.36070  Biso   1.000  O
  O10      1.0000 0.82350  0.66660  0.34360  Biso   1.000  O
  O11      1.0000 0.90520  0.51520  0.63730  Biso   1.000  O
  O12      1.0000 0.59460  0.50910  0.37040  Biso   1.000  O
  N5       1.0000 0.82340  0.16570  0.16670  Biso   1.000  N
  N6       1.0000 0.82070  0.83920  0.14880  Biso   1.000  N
  C5       1.0000 0.78250  0.28230  0.23330  Biso   1.000  C
  C6       1.0000 0.77690  0.77800  0.27870  Biso   1.000  C
  H5       1.0000 0.72070  0.33400  0.16610  Biso   1.000  H
  H6       1.0000 0.72270  0.83400  0.33200  Biso   1.000  H
  Zn4      1.0000 0.24990  0.48543  0.50000  Biso   1.000  Zn
  O13      1.0000 0.18700  0.66470  0.36070  Biso   1.000  O
  O14      1.0000 0.17650  0.33340  0.34360  Biso   1.000  O
  O15      1.0000 0.09480  0.48480  0.63730  Biso   1.000  O
  O16      1.0000 0.40540  0.49090  0.37040  Biso   1.000  O
  N7       1.0000 0.17660  0.83430  0.16670  Biso   1.000  N
  N8       1.0000 0.17930  0.16080  0.14880  Biso   1.000  N
  C7       1.0000 0.21750  0.71770  0.23330  Biso   1.000  C
  C8       1.0000 0.22310  0.22200  0.27870  Biso   1.000  C
  H7       1.0000 0.27930  0.66600  0.16610  Biso   1.000  H
  H8       1.0000 0.27730  0.16600  0.33200  Biso   1.000  H
  C9       1.0000 0.50000  0.00000  0.05670  Biso   1.000  C
  H9       1.0000 0.50000  0.00000  0.91610  Biso   1.000  H
  C10      1.0000 0.00000  0.50000  0.55670  Biso   1.000  C
  H10      1.0000 0.00000  0.50000  0.41610  Biso   1.000  H
  C11      1.0000 0.00000  0.00000  0.92570  Biso   1.000  C
  H11      1.0000 0.00000  0.00000  0.08200  Biso   1.000  H
  C12      1.0000 0.50000  0.50000  0.42570  Biso   1.000  C
  H12      1.0000 0.50000  0.50000  0.58200  Biso   1.000  H
