data_image0
_cell_length_a       8.717
_cell_length_b       11.617
_cell_length_c       8.289
_cell_angle_alpha    90
_cell_angle_beta     90
_cell_angle_gamma    90

_symmetry_space_group_name_H-M    "P 1"
_symmetry_int_tables_number       1

loop_
  _symmetry_equiv_pos_as_xyz
  'x, y, z'

loop_
  _atom_site_label
  _atom_site_occupancy
  _atom_site_fract_x
  _atom_site_fract_y
  _atom_site_fract_z
  _atom_site_thermal_displace_type
  _atom_site_B_iso_or_equiv
  _atom_site_type_symbol
  O1       1.0000 0.41277  0.31678  0.10538  Biso   1.000  O
  O2       1.0000 0.08376  0.17654  0.41138  Biso   1.000  O
  O3       1.0000 0.23734  0.40508  0.38366  Biso   1.000  O
  C1       1.0000 0.47011  0.28029  0.97767  Biso   1.000  C
  H1       1.0000 0.42500  0.21300  0.93800  Biso   1.000  H
  O4       1.0000 0.08723  0.68322  0.10538  Biso   1.000  O
  O5       1.0000 0.41624  0.82346  0.41138  Biso   1.000  O
  O6       1.0000 0.26266  0.59492  0.38366  Biso   1.000  O
  C2       1.0000 0.02989  0.71971  0.97767  Biso   1.000  C
  H2       1.0000 0.07500  0.78700  0.93800  Biso   1.000  H
  O7       1.0000 0.08723  0.81678  0.39462  Biso   1.000  O
  O8       1.0000 0.41624  0.67654  0.08862  Biso   1.000  O
  O9       1.0000 0.26266  0.90508  0.11634  Biso   1.000  O
  C3       1.0000 0.02989  0.78029  0.52233  Biso   1.000  C
  H3       1.0000 0.07500  0.71300  0.56200  Biso   1.000  H
  O10      1.0000 0.41277  0.18322  0.39462  Biso   1.000  O
  O11      1.0000 0.08376  0.32346  0.08862  Biso   1.000  O
  O12      1.0000 0.23734  0.09492  0.11634  Biso   1.000  O
  C4       1.0000 0.47011  0.21971  0.52233  Biso   1.000  C
  H4       1.0000 0.42500  0.28700  0.56200  Biso   1.000  H
  O13      1.0000 0.58723  0.68322  0.89462  Biso   1.000  O
  O14      1.0000 0.91624  0.82346  0.58862  Biso   1.000  O
  O15      1.0000 0.76266  0.59492  0.61634  Biso   1.000  O
  C5       1.0000 0.52989  0.71971  0.02233  Biso   1.000  C
  H5       1.0000 0.57500  0.78700  0.06200  Biso   1.000  H
  O16      1.0000 0.91277  0.31678  0.89462  Biso   1.000  O
  O17      1.0000 0.58376  0.17654  0.58862  Biso   1.000  O
  O18      1.0000 0.73734  0.40508  0.61634  Biso   1.000  O
  C6       1.0000 0.97011  0.28029  0.02233  Biso   1.000  C
  H6       1.0000 0.92500  0.21300  0.06200  Biso   1.000  H
  O19      1.0000 0.91277  0.18322  0.60538  Biso   1.000  O
  O20      1.0000 0.58376  0.32346  0.91138  Biso   1.000  O
  O21      1.0000 0.73734  0.09492  0.88366  Biso   1.000  O
  C7       1.0000 0.97011  0.21971  0.47767  Biso   1.000  C
  H7       1.0000 0.92500  0.28700  0.43800  Biso   1.000  H
  O22      1.0000 0.58723  0.81678  0.60538  Biso   1.000  O
  O23      1.0000 0.91624  0.67654  0.91138  Biso   1.000  O
  O24      1.0000 0.76266  0.90508  0.88366  Biso   1.000  O
  C8       1.0000 0.52989  0.78029  0.47767  Biso   1.000  C
  H8       1.0000 0.57500  0.71300  0.43800  Biso   1.000  H
  Zn1      1.0000 0.23547  0.25000  0.25000  Biso   1.000  Zn
  Zn2      1.0000 0.26453  0.75000  0.25000  Biso   1.000  Zn
  Zn3      1.0000 0.76453  0.75000  0.75000  Biso   1.000  Zn
  Zn4      1.0000 0.73547  0.25000  0.75000  Biso   1.000  Zn
  C9       1.0000 0.25000  0.50000  0.31394  Biso   1.000  C
  H9       1.0000 0.25000  0.50000  0.19000  Biso   1.000  H
  C10      1.0000 0.25000  0.00000  0.18606  Biso   1.000  C
  H10      1.0000 0.25000  0.00000  0.31000  Biso   1.000  H
  C11      1.0000 0.75000  0.50000  0.68606  Biso   1.000  C
  H11      1.0000 0.75000  0.50000  0.81000  Biso   1.000  H
  C12      1.0000 0.75000  0.00000  0.81394  Biso   1.000  C
  H12      1.0000 0.75000  0.00000  0.69000  Biso   1.000  H
