data_image0
_cell_length_a       14.323
_cell_length_b       16.34
_cell_length_c       8.751
_cell_angle_alpha    90
_cell_angle_beta     90
_cell_angle_gamma    90

_symmetry_space_group_name_H-M    "P 1"
_symmetry_int_tables_number       1

loop_
  _symmetry_equiv_pos_as_xyz
  'x, y, z'

loop_
  _atom_site_label
  _atom_site_occupancy
  _atom_site_fract_x
  _atom_site_fract_y
  _atom_site_fract_z
  _atom_site_thermal_displace_type
  _atom_site_B_iso_or_equiv
  _atom_site_type_symbol
  Ga1      1.0000 0.13618  0.03473  0.57256  Biso   1.000  Ga
  Ga2      1.0000 0.04135  0.27178  0.63290  Biso   1.000  Ga
  Ga3      1.0000 0.52614  0.12637  0.41143  Biso   1.000  Ga
  Ga4      1.0000 0.36622  0.16095  0.81415  Biso   1.000  Ga
  P1       1.0000 0.14740  0.15203  0.84890  Biso   1.000  P
  P2       1.0000 0.64008  0.96898  0.44670  Biso   1.000  P
  P3       1.0000 0.47310  0.21915  0.11120  Biso   1.000  P
  P4       1.0000 0.97074  0.13215  0.41500  Biso   1.000  P
  O1       1.0000 0.44790  0.16370  0.97790  Biso   1.000  O
  O2       1.0000 0.53640  0.17130  0.21980  Biso   1.000  O
  O3       1.0000 0.96460  0.19680  0.54070  Biso   1.000  O
  O4       1.0000 0.63050  0.06240  0.44020  Biso   1.000  O
  O5       1.0000 0.96210  0.32730  0.75750  Biso   1.000  O
  O6       1.0000 0.24940  0.14830  0.89610  Biso   1.000  O
  O7       1.0000 0.13520  0.22530  0.74410  Biso   1.000  O
  O8       1.0000 0.08840  0.15860  0.99180  Biso   1.000  O
  O9       1.0000 0.11710  0.07380  0.76930  Biso   1.000  O
  O10      1.0000 0.38420  0.25240  0.69120  Biso   1.000  O
  O11      1.0000 0.41980  0.06420  0.42280  Biso   1.000  O
  O12      1.0000 0.06260  0.08630  0.42340  Biso   1.000  O
  O13      1.0000 0.25960  0.05300  0.51720  Biso   1.000  O
  O14      1.0000 0.39320  0.06580  0.70630  Biso   1.000  O
  O15      1.0000 0.53080  0.29290  0.05810  Biso   1.000  O
  O16      1.0000 0.11290  0.92280  0.56620  Biso   1.000  O
  Ga5      1.0000 0.86382  0.53473  0.92744  Biso   1.000  Ga
  Ga6      1.0000 0.95865  0.77178  0.86710  Biso   1.000  Ga
  Ga7      1.0000 0.47386  0.62637  0.08857  Biso   1.000  Ga
  Ga8      1.0000 0.63378  0.66095  0.68585  Biso   1.000  Ga
  P5       1.0000 0.85260  0.65203  0.65110  Biso   1.000  P
  P6       1.0000 0.35992  0.46898  0.05330  Biso   1.000  P
  P7       1.0000 0.52690  0.71915  0.38880  Biso   1.000  P
  P8       1.0000 0.02926  0.63215  0.08500  Biso   1.000  P
  O17      1.0000 0.55210  0.66370  0.52210  Biso   1.000  O
  O18      1.0000 0.46360  0.67130  0.28020  Biso   1.000  O
  O19      1.0000 0.03540  0.69680  0.95930  Biso   1.000  O
  O20      1.0000 0.36950  0.56240  0.05980  Biso   1.000  O
  O21      1.0000 0.03790  0.82730  0.74250  Biso   1.000  O
  O22      1.0000 0.75060  0.64830  0.60390  Biso   1.000  O
  O23      1.0000 0.86480  0.72530  0.75590  Biso   1.000  O
  O24      1.0000 0.91160  0.65860  0.50820  Biso   1.000  O
  O25      1.0000 0.88290  0.57380  0.73070  Biso   1.000  O
  O26      1.0000 0.61580  0.75240  0.80880  Biso   1.000  O
  O27      1.0000 0.58020  0.56420  0.07720  Biso   1.000  O
  O28      1.0000 0.93740  0.58630  0.07660  Biso   1.000  O
  O29      1.0000 0.74040  0.55300  0.98280  Biso   1.000  O
  O30      1.0000 0.60680  0.56580  0.79370  Biso   1.000  O
  O31      1.0000 0.46920  0.79290  0.44190  Biso   1.000  O
  O32      1.0000 0.88710  0.42280  0.93380  Biso   1.000  O
  Ga9      1.0000 0.86382  0.96527  0.42744  Biso   1.000  Ga
  Ga10     1.0000 0.95865  0.72822  0.36710  Biso   1.000  Ga
  Ga11     1.0000 0.47386  0.87363  0.58857  Biso   1.000  Ga
  Ga12     1.0000 0.63378  0.83905  0.18585  Biso   1.000  Ga
  P9       1.0000 0.85260  0.84797  0.15110  Biso   1.000  P
  P10      1.0000 0.35992  0.03102  0.55330  Biso   1.000  P
  P11      1.0000 0.52690  0.78085  0.88880  Biso   1.000  P
  P12      1.0000 0.02926  0.86785  0.58500  Biso   1.000  P
  O33      1.0000 0.55210  0.83630  0.02210  Biso   1.000  O
  O34      1.0000 0.46360  0.82870  0.78020  Biso   1.000  O
  O35      1.0000 0.03540  0.80320  0.45930  Biso   1.000  O
  O36      1.0000 0.36950  0.93760  0.55980  Biso   1.000  O
  O37      1.0000 0.03790  0.67270  0.24250  Biso   1.000  O
  O38      1.0000 0.75060  0.85170  0.10390  Biso   1.000  O
  O39      1.0000 0.86480  0.77470  0.25590  Biso   1.000  O
  O40      1.0000 0.91160  0.84140  0.00820  Biso   1.000  O
  O41      1.0000 0.88290  0.92620  0.23070  Biso   1.000  O
  O42      1.0000 0.61580  0.74760  0.30880  Biso   1.000  O
  O43      1.0000 0.58020  0.93580  0.57720  Biso   1.000  O
  O44      1.0000 0.93740  0.91370  0.57660  Biso   1.000  O
  O45      1.0000 0.74040  0.94700  0.48280  Biso   1.000  O
  O46      1.0000 0.60680  0.93420  0.29370  Biso   1.000  O
  O47      1.0000 0.46920  0.70710  0.94190  Biso   1.000  O
  O48      1.0000 0.88710  0.07720  0.43380  Biso   1.000  O
  Ga13     1.0000 0.13618  0.46527  0.07256  Biso   1.000  Ga
  Ga14     1.0000 0.04135  0.22822  0.13290  Biso   1.000  Ga
  Ga15     1.0000 0.52614  0.37363  0.91143  Biso   1.000  Ga
  Ga16     1.0000 0.36622  0.33905  0.31415  Biso   1.000  Ga
  P13      1.0000 0.14740  0.34797  0.34890  Biso   1.000  P
  P14      1.0000 0.64008  0.53102  0.94670  Biso   1.000  P
  P15      1.0000 0.47310  0.28085  0.61120  Biso   1.000  P
  P16      1.0000 0.97074  0.36785  0.91500  Biso   1.000  P
  O49      1.0000 0.44790  0.33630  0.47790  Biso   1.000  O
  O50      1.0000 0.53640  0.32870  0.71980  Biso   1.000  O
  O51      1.0000 0.96460  0.30320  0.04070  Biso   1.000  O
  O52      1.0000 0.63050  0.43760  0.94020  Biso   1.000  O
  O53      1.0000 0.96210  0.17270  0.25750  Biso   1.000  O
  O54      1.0000 0.24940  0.35170  0.39610  Biso   1.000  O
  O55      1.0000 0.13520  0.27470  0.24410  Biso   1.000  O
  O56      1.0000 0.08840  0.34140  0.49180  Biso   1.000  O
  O57      1.0000 0.11710  0.42620  0.26930  Biso   1.000  O
  O58      1.0000 0.38420  0.24760  0.19120  Biso   1.000  O
  O59      1.0000 0.41980  0.43580  0.92280  Biso   1.000  O
  O60      1.0000 0.06260  0.41370  0.92340  Biso   1.000  O
  O61      1.0000 0.25960  0.44700  0.01720  Biso   1.000  O
  O62      1.0000 0.39320  0.43420  0.20630  Biso   1.000  O
  O63      1.0000 0.53080  0.20710  0.55810  Biso   1.000  O
  O64      1.0000 0.11290  0.57720  0.06620  Biso   1.000  O
