data_image0
_cell_length_a       26.4064
_cell_length_b       14.4412
_cell_length_c       25.3777
_cell_angle_alpha    90
_cell_angle_beta     113.333
_cell_angle_gamma    90

_symmetry_space_group_name_H-M    "P 1"
_symmetry_int_tables_number       1

loop_
  _symmetry_equiv_pos_as_xyz
  'x, y, z'

loop_
  _atom_site_label
  _atom_site_occupancy
  _atom_site_fract_x
  _atom_site_fract_y
  _atom_site_fract_z
  _atom_site_thermal_displace_type
  _atom_site_B_iso_or_equiv
  _atom_site_type_symbol
  Eu1      1.0000 0.33476  0.58432  0.30170  Biso   1.000  Eu
  Eu2      1.0000 0.28645  0.36395  0.18990  Biso   1.000  Eu
  O1       1.0000 0.24410  0.63270  0.28320  Biso   1.000  O
  O2       1.0000 0.37030  0.43600  0.26610  Biso   1.000  O
  O3       1.0000 0.23590  0.48010  0.11820  Biso   1.000  O
  O4       1.0000 0.41460  0.56610  0.27380  Biso   1.000  O
  O5       1.0000 0.28230  0.54770  0.20110  Biso   1.000  O
  C1       1.0000 0.45710  0.33300  0.25550  Biso   1.000  C
  H1       1.0000 0.42810  0.30030  0.25880  Biso   1.000  H
  C2       1.0000 0.45740  0.42880  0.25610  Biso   1.000  C
  C3       1.0000 0.24990  0.55220  0.14780  Biso   1.000  C
  C4       1.0000 0.41190  0.48020  0.26580  Biso   1.000  C
  C5       1.0000 0.16360  0.31750  0.20550  Biso   1.000  C
  O6       1.0000 0.34020  0.64460  0.39280  Biso   1.000  O
  O7       1.0000 0.18530  0.95810  0.14620  Biso   1.000  O
  O8       1.0000 0.34430  0.61590  0.64150  Biso   1.000  O
  O9       1.0000 0.17260  0.71960  0.27860  Biso   1.000  O
  O10      1.0000 0.41320  0.56730  0.39640  Biso   1.000  O
  O11      1.0000 0.24030  0.27150  0.10560  Biso   1.000  O
  H2       1.0000 0.26090  0.26370  0.08880  Biso   1.000  H
  O12      1.0000 0.19580  0.33050  0.18070  Biso   1.000  O
  C6       1.0000 0.20050  0.80200  0.12910  Biso   1.000  C
  O13      1.0000 0.32500  0.72630  0.57550  Biso   1.000  O
  C7       1.0000 0.15730  0.55830  0.25970  Biso   1.000  C
  C8       1.0000 0.19420  0.64330  0.27550  Biso   1.000  C
  C9       1.0000 0.39720  0.57790  0.48280  Biso   1.000  C
  C10      1.0000 0.37050  0.62420  0.51250  Biso   1.000  C
  H3       1.0000 0.34620  0.67190  0.49440  Biso   1.000  H
  C11      1.0000 0.17350  0.48180  0.23860  Biso   1.000  C
  H4       1.0000 0.20550  0.48430  0.23160  Biso   1.000  H
  C12      1.0000 0.34750  0.65230  0.59710  Biso   1.000  C
  C13      1.0000 0.22530  0.71860  0.15450  Biso   1.000  C
  H5       1.0000 0.24160  0.71390  0.19430  Biso   1.000  H
  C14      1.0000 0.38390  0.59760  0.42090  Biso   1.000  C
  C15      1.0000 0.10900  0.55710  0.26890  Biso   1.000  C
  H6       1.0000 0.09680  0.61020  0.28100  Biso   1.000  H
  C16      1.0000 0.14290  0.40020  0.22740  Biso   1.000  C
  C17      1.0000 0.22590  0.64410  0.12140  Biso   1.000  C
  C18      1.0000 0.37920  0.60100  0.56820  Biso   1.000  C
  C19      1.0000 0.09650  0.39590  0.23950  Biso   1.000  C
  H7       1.0000 0.07670  0.34090  0.23430  Biso   1.000  H
  C20      1.0000 0.07930  0.47550  0.25970  Biso   1.000  C
  H8       1.0000 0.04750  0.47340  0.26710  Biso   1.000  H
  C21      1.0000 0.43460  0.50810  0.51030  Biso   1.000  C
  H9       1.0000 0.45250  0.47650  0.49080  Biso   1.000  H
  C22      1.0000 0.41650  0.53030  0.59530  Biso   1.000  C
  H10      1.0000 0.42230  0.51280  0.63250  Biso   1.000  H
  C23      1.0000 0.17660  0.80920  0.07080  Biso   1.000  C
  H11      1.0000 0.15950  0.86410  0.05370  Biso   1.000  H
  C24      1.0000 0.44520  0.48550  0.56660  Biso   1.000  C
  H12      1.0000 0.47130  0.44050  0.58540  Biso   1.000  H
  C25      1.0000 0.20290  0.65120  0.06230  Biso   1.000  C
  H13      1.0000 0.20410  0.60140  0.03960  Biso   1.000  H
  C26      1.0000 0.17770  0.73430  0.03700  Biso   1.000  C
  H14      1.0000 0.16170  0.73940  0.99730  Biso   1.000  H
  O14      1.0000 0.21760  0.86590  0.22040  Biso   1.000  O
  C27      1.0000 0.20160  0.88180  0.16790  Biso   1.000  C
  O15      1.0000 0.14740  0.23790  0.21340  Biso   1.000  O
  Eu3      1.0000 0.83476  0.08432  0.30170  Biso   1.000  Eu
  Eu4      1.0000 0.78645  0.86395  0.18990  Biso   1.000  Eu
  O16      1.0000 0.74410  0.13270  0.28320  Biso   1.000  O
  O17      1.0000 0.87030  0.93600  0.26610  Biso   1.000  O
  O18      1.0000 0.73590  0.98010  0.11820  Biso   1.000  O
  O19      1.0000 0.91460  0.06610  0.27380  Biso   1.000  O
  O20      1.0000 0.78230  0.04770  0.20110  Biso   1.000  O
  C28      1.0000 0.95710  0.83300  0.25550  Biso   1.000  C
  H15      1.0000 0.92810  0.80030  0.25880  Biso   1.000  H
  C29      1.0000 0.95740  0.92880  0.25610  Biso   1.000  C
  C30      1.0000 0.74990  0.05220  0.14780  Biso   1.000  C
  C31      1.0000 0.91190  0.98020  0.26580  Biso   1.000  C
  C32      1.0000 0.66360  0.81750  0.20550  Biso   1.000  C
  O21      1.0000 0.84020  0.14460  0.39280  Biso   1.000  O
  O22      1.0000 0.68530  0.45810  0.14620  Biso   1.000  O
  O23      1.0000 0.84430  0.11590  0.64150  Biso   1.000  O
  O24      1.0000 0.67260  0.21960  0.27860  Biso   1.000  O
  O25      1.0000 0.91320  0.06730  0.39640  Biso   1.000  O
  O26      1.0000 0.74030  0.77150  0.10560  Biso   1.000  O
  H16      1.0000 0.76090  0.76370  0.08880  Biso   1.000  H
  O27      1.0000 0.69580  0.83050  0.18070  Biso   1.000  O
  C33      1.0000 0.70050  0.30200  0.12910  Biso   1.000  C
  O28      1.0000 0.82500  0.22630  0.57550  Biso   1.000  O
  C34      1.0000 0.65730  0.05830  0.25970  Biso   1.000  C
  C35      1.0000 0.69420  0.14330  0.27550  Biso   1.000  C
  C36      1.0000 0.89720  0.07790  0.48280  Biso   1.000  C
  C37      1.0000 0.87050  0.12420  0.51250  Biso   1.000  C
  H17      1.0000 0.84620  0.17190  0.49440  Biso   1.000  H
  C38      1.0000 0.67350  0.98180  0.23860  Biso   1.000  C
  H18      1.0000 0.70550  0.98430  0.23160  Biso   1.000  H
  C39      1.0000 0.84750  0.15230  0.59710  Biso   1.000  C
  C40      1.0000 0.72530  0.21860  0.15450  Biso   1.000  C
  H19      1.0000 0.74160  0.21390  0.19430  Biso   1.000  H
  C41      1.0000 0.88390  0.09760  0.42090  Biso   1.000  C
  C42      1.0000 0.60900  0.05710  0.26890  Biso   1.000  C
  H20      1.0000 0.59680  0.11020  0.28100  Biso   1.000  H
  C43      1.0000 0.64290  0.90020  0.22740  Biso   1.000  C
  C44      1.0000 0.72590  0.14410  0.12140  Biso   1.000  C
  C45      1.0000 0.87920  0.10100  0.56820  Biso   1.000  C
  C46      1.0000 0.59650  0.89590  0.23950  Biso   1.000  C
  H21      1.0000 0.57670  0.84090  0.23430  Biso   1.000  H
  C47      1.0000 0.57930  0.97550  0.25970  Biso   1.000  C
  H22      1.0000 0.54750  0.97340  0.26710  Biso   1.000  H
  C48      1.0000 0.93460  0.00810  0.51030  Biso   1.000  C
  H23      1.0000 0.95250  0.97650  0.49080  Biso   1.000  H
  C49      1.0000 0.91650  0.03030  0.59530  Biso   1.000  C
  H24      1.0000 0.92230  0.01280  0.63250  Biso   1.000  H
  C50      1.0000 0.67660  0.30920  0.07080  Biso   1.000  C
  H25      1.0000 0.65950  0.36410  0.05370  Biso   1.000  H
  C51      1.0000 0.94520  0.98550  0.56660  Biso   1.000  C
  H26      1.0000 0.97130  0.94050  0.58540  Biso   1.000  H
  C52      1.0000 0.70290  0.15120  0.06230  Biso   1.000  C
  H27      1.0000 0.70410  0.10140  0.03960  Biso   1.000  H
  C53      1.0000 0.67770  0.23430  0.03700  Biso   1.000  C
  H28      1.0000 0.66170  0.23940  0.99730  Biso   1.000  H
  O29      1.0000 0.71760  0.36590  0.22040  Biso   1.000  O
  C54      1.0000 0.70160  0.38180  0.16790  Biso   1.000  C
  O30      1.0000 0.64740  0.73790  0.21340  Biso   1.000  O
  Eu5      1.0000 0.66524  0.58432  0.19830  Biso   1.000  Eu
  Eu6      1.0000 0.71355  0.36395  0.31010  Biso   1.000  Eu
  O31      1.0000 0.75590  0.63270  0.21680  Biso   1.000  O
  O32      1.0000 0.62970  0.43600  0.23390  Biso   1.000  O
  O33      1.0000 0.76410  0.48010  0.38180  Biso   1.000  O
  O34      1.0000 0.58540  0.56610  0.22620  Biso   1.000  O
  O35      1.0000 0.71770  0.54770  0.29890  Biso   1.000  O
  C55      1.0000 0.54290  0.33300  0.24450  Biso   1.000  C
  H29      1.0000 0.57190  0.30030  0.24120  Biso   1.000  H
  C56      1.0000 0.54260  0.42880  0.24390  Biso   1.000  C
  C57      1.0000 0.75010  0.55220  0.35220  Biso   1.000  C
  C58      1.0000 0.58810  0.48020  0.23420  Biso   1.000  C
  C59      1.0000 0.83640  0.31750  0.29450  Biso   1.000  C
  O36      1.0000 0.65980  0.64460  0.10720  Biso   1.000  O
  O37      1.0000 0.81470  0.95810  0.35380  Biso   1.000  O
  O38      1.0000 0.65570  0.61590  0.85850  Biso   1.000  O
  O39      1.0000 0.82740  0.71960  0.22140  Biso   1.000  O
  O40      1.0000 0.58680  0.56730  0.10360  Biso   1.000  O
  O41      1.0000 0.75970  0.27150  0.39440  Biso   1.000  O
  H30      1.0000 0.73910  0.26370  0.41120  Biso   1.000  H
  O42      1.0000 0.80420  0.33050  0.31930  Biso   1.000  O
  C60      1.0000 0.79950  0.80200  0.37090  Biso   1.000  C
  O43      1.0000 0.67500  0.72630  0.92450  Biso   1.000  O
  C61      1.0000 0.84270  0.55830  0.24030  Biso   1.000  C
  C62      1.0000 0.80580  0.64330  0.22450  Biso   1.000  C
  C63      1.0000 0.60280  0.57790  0.01720  Biso   1.000  C
  C64      1.0000 0.62950  0.62420  0.98750  Biso   1.000  C
  H31      1.0000 0.65380  0.67190  0.00560  Biso   1.000  H
  C65      1.0000 0.82650  0.48180  0.26140  Biso   1.000  C
  H32      1.0000 0.79450  0.48430  0.26840  Biso   1.000  H
  C66      1.0000 0.65250  0.65230  0.90290  Biso   1.000  C
  C67      1.0000 0.77470  0.71860  0.34550  Biso   1.000  C
  H33      1.0000 0.75840  0.71390  0.30570  Biso   1.000  H
  C68      1.0000 0.61610  0.59760  0.07910  Biso   1.000  C
  C69      1.0000 0.89100  0.55710  0.23110  Biso   1.000  C
  H34      1.0000 0.90320  0.61020  0.21900  Biso   1.000  H
  C70      1.0000 0.85710  0.40020  0.27260  Biso   1.000  C
  C71      1.0000 0.77410  0.64410  0.37860  Biso   1.000  C
  C72      1.0000 0.62080  0.60100  0.93180  Biso   1.000  C
  C73      1.0000 0.90350  0.39590  0.26050  Biso   1.000  C
  H35      1.0000 0.92330  0.34090  0.26570  Biso   1.000  H
  C74      1.0000 0.92070  0.47550  0.24030  Biso   1.000  C
  H36      1.0000 0.95250  0.47340  0.23290  Biso   1.000  H
  C75      1.0000 0.56540  0.50810  0.98970  Biso   1.000  C
  H37      1.0000 0.54750  0.47650  0.00920  Biso   1.000  H
  C76      1.0000 0.58350  0.53030  0.90470  Biso   1.000  C
  H38      1.0000 0.57770  0.51280  0.86750  Biso   1.000  H
  C77      1.0000 0.82340  0.80920  0.42920  Biso   1.000  C
  H39      1.0000 0.84050  0.86410  0.44630  Biso   1.000  H
  C78      1.0000 0.55480  0.48550  0.93340  Biso   1.000  C
  H40      1.0000 0.52870  0.44050  0.91460  Biso   1.000  H
  C79      1.0000 0.79710  0.65120  0.43770  Biso   1.000  C
  H41      1.0000 0.79590  0.60140  0.46040  Biso   1.000  H
  C80      1.0000 0.82230  0.73430  0.46300  Biso   1.000  C
  H42      1.0000 0.83830  0.73940  0.50270  Biso   1.000  H
  O44      1.0000 0.78240  0.86590  0.27960  Biso   1.000  O
  C81      1.0000 0.79840  0.88180  0.33210  Biso   1.000  C
  O45      1.0000 0.85260  0.23790  0.28660  Biso   1.000  O
  Eu7      1.0000 0.16524  0.08432  0.19830  Biso   1.000  Eu
  Eu8      1.0000 0.21355  0.86395  0.31010  Biso   1.000  Eu
  O46      1.0000 0.25590  0.13270  0.21680  Biso   1.000  O
  O47      1.0000 0.12970  0.93600  0.23390  Biso   1.000  O
  O48      1.0000 0.26410  0.98010  0.38180  Biso   1.000  O
  O49      1.0000 0.08540  0.06610  0.22620  Biso   1.000  O
  O50      1.0000 0.21770  0.04770  0.29890  Biso   1.000  O
  C82      1.0000 0.04290  0.83300  0.24450  Biso   1.000  C
  H43      1.0000 0.07190  0.80030  0.24120  Biso   1.000  H
  C83      1.0000 0.04260  0.92880  0.24390  Biso   1.000  C
  C84      1.0000 0.25010  0.05220  0.35220  Biso   1.000  C
  C85      1.0000 0.08810  0.98020  0.23420  Biso   1.000  C
  C86      1.0000 0.33640  0.81750  0.29450  Biso   1.000  C
  O51      1.0000 0.15980  0.14460  0.10720  Biso   1.000  O
  O52      1.0000 0.31470  0.45810  0.35380  Biso   1.000  O
  O53      1.0000 0.15570  0.11590  0.85850  Biso   1.000  O
  O54      1.0000 0.32740  0.21960  0.22140  Biso   1.000  O
  O55      1.0000 0.08680  0.06730  0.10360  Biso   1.000  O
  O56      1.0000 0.25970  0.77150  0.39440  Biso   1.000  O
  H44      1.0000 0.23910  0.76370  0.41120  Biso   1.000  H
  O57      1.0000 0.30420  0.83050  0.31930  Biso   1.000  O
  C87      1.0000 0.29950  0.30200  0.37090  Biso   1.000  C
  O58      1.0000 0.17500  0.22630  0.92450  Biso   1.000  O
  C88      1.0000 0.34270  0.05830  0.24030  Biso   1.000  C
  C89      1.0000 0.30580  0.14330  0.22450  Biso   1.000  C
  C90      1.0000 0.10280  0.07790  0.01720  Biso   1.000  C
  C91      1.0000 0.12950  0.12420  0.98750  Biso   1.000  C
  H45      1.0000 0.15380  0.17190  0.00560  Biso   1.000  H
  C92      1.0000 0.32650  0.98180  0.26140  Biso   1.000  C
  H46      1.0000 0.29450  0.98430  0.26840  Biso   1.000  H
  C93      1.0000 0.15250  0.15230  0.90290  Biso   1.000  C
  C94      1.0000 0.27470  0.21860  0.34550  Biso   1.000  C
  H47      1.0000 0.25840  0.21390  0.30570  Biso   1.000  H
  C95      1.0000 0.11610  0.09760  0.07910  Biso   1.000  C
  C96      1.0000 0.39100  0.05710  0.23110  Biso   1.000  C
  H48      1.0000 0.40320  0.11020  0.21900  Biso   1.000  H
  C97      1.0000 0.35710  0.90020  0.27260  Biso   1.000  C
  C98      1.0000 0.27410  0.14410  0.37860  Biso   1.000  C
  C99      1.0000 0.12080  0.10100  0.93180  Biso   1.000  C
  C100     1.0000 0.40350  0.89590  0.26050  Biso   1.000  C
  H49      1.0000 0.42330  0.84090  0.26570  Biso   1.000  H
  C101     1.0000 0.42070  0.97550  0.24030  Biso   1.000  C
  H50      1.0000 0.45250  0.97340  0.23290  Biso   1.000  H
  C102     1.0000 0.06540  0.00810  0.98970  Biso   1.000  C
  H51      1.0000 0.04750  0.97650  0.00920  Biso   1.000  H
  C103     1.0000 0.08350  0.03030  0.90470  Biso   1.000  C
  H52      1.0000 0.07770  0.01280  0.86750  Biso   1.000  H
  C104     1.0000 0.32340  0.30920  0.42920  Biso   1.000  C
  H53      1.0000 0.34050  0.36410  0.44630  Biso   1.000  H
  C105     1.0000 0.05480  0.98550  0.93340  Biso   1.000  C
  H54      1.0000 0.02870  0.94050  0.91460  Biso   1.000  H
  C106     1.0000 0.29710  0.15120  0.43770  Biso   1.000  C
  H55      1.0000 0.29590  0.10140  0.46040  Biso   1.000  H
  C107     1.0000 0.32230  0.23430  0.46300  Biso   1.000  C
  H56      1.0000 0.33830  0.23940  0.50270  Biso   1.000  H
  O59      1.0000 0.28240  0.36590  0.27960  Biso   1.000  O
  C108     1.0000 0.29840  0.38180  0.33210  Biso   1.000  C
  O60      1.0000 0.35260  0.73790  0.28660  Biso   1.000  O
  Eu9      1.0000 0.66524  0.41568  0.69830  Biso   1.000  Eu
  Eu10     1.0000 0.71355  0.63605  0.81010  Biso   1.000  Eu
  O61      1.0000 0.75590  0.36730  0.71680  Biso   1.000  O
  O62      1.0000 0.62970  0.56400  0.73390  Biso   1.000  O
  O63      1.0000 0.76410  0.51990  0.88180  Biso   1.000  O
  O64      1.0000 0.58540  0.43390  0.72620  Biso   1.000  O
  O65      1.0000 0.71770  0.45230  0.79890  Biso   1.000  O
  C109     1.0000 0.54290  0.66700  0.74450  Biso   1.000  C
  H57      1.0000 0.57190  0.69970  0.74120  Biso   1.000  H
  C110     1.0000 0.54260  0.57120  0.74390  Biso   1.000  C
  C111     1.0000 0.75010  0.44780  0.85220  Biso   1.000  C
  C112     1.0000 0.58810  0.51980  0.73420  Biso   1.000  C
  C113     1.0000 0.83640  0.68250  0.79450  Biso   1.000  C
  O66      1.0000 0.65980  0.35540  0.60720  Biso   1.000  O
  O67      1.0000 0.81470  0.04190  0.85380  Biso   1.000  O
  O68      1.0000 0.65570  0.38410  0.35850  Biso   1.000  O
  O69      1.0000 0.82740  0.28040  0.72140  Biso   1.000  O
  O70      1.0000 0.58680  0.43270  0.60360  Biso   1.000  O
  O71      1.0000 0.75970  0.72850  0.89440  Biso   1.000  O
  H58      1.0000 0.73910  0.73630  0.91120  Biso   1.000  H
  O72      1.0000 0.80420  0.66950  0.81930  Biso   1.000  O
  C114     1.0000 0.79950  0.19800  0.87090  Biso   1.000  C
  O73      1.0000 0.67500  0.27370  0.42450  Biso   1.000  O
  C115     1.0000 0.84270  0.44170  0.74030  Biso   1.000  C
  C116     1.0000 0.80580  0.35670  0.72450  Biso   1.000  C
  C117     1.0000 0.60280  0.42210  0.51720  Biso   1.000  C
  C118     1.0000 0.62950  0.37580  0.48750  Biso   1.000  C
  H59      1.0000 0.65380  0.32810  0.50560  Biso   1.000  H
  C119     1.0000 0.82650  0.51820  0.76140  Biso   1.000  C
  H60      1.0000 0.79450  0.51570  0.76840  Biso   1.000  H
  C120     1.0000 0.65250  0.34770  0.40290  Biso   1.000  C
  C121     1.0000 0.77470  0.28140  0.84550  Biso   1.000  C
  H61      1.0000 0.75840  0.28610  0.80570  Biso   1.000  H
  C122     1.0000 0.61610  0.40240  0.57910  Biso   1.000  C
  C123     1.0000 0.89100  0.44290  0.73110  Biso   1.000  C
  H62      1.0000 0.90320  0.38980  0.71900  Biso   1.000  H
  C124     1.0000 0.85710  0.59980  0.77260  Biso   1.000  C
  C125     1.0000 0.77410  0.35590  0.87860  Biso   1.000  C
  C126     1.0000 0.62080  0.39900  0.43180  Biso   1.000  C
  C127     1.0000 0.90350  0.60410  0.76050  Biso   1.000  C
  H63      1.0000 0.92330  0.65910  0.76570  Biso   1.000  H
  C128     1.0000 0.92070  0.52450  0.74030  Biso   1.000  C
  H64      1.0000 0.95250  0.52660  0.73290  Biso   1.000  H
  C129     1.0000 0.56540  0.49190  0.48970  Biso   1.000  C
  H65      1.0000 0.54750  0.52350  0.50920  Biso   1.000  H
  C130     1.0000 0.58350  0.46970  0.40470  Biso   1.000  C
  H66      1.0000 0.57770  0.48720  0.36750  Biso   1.000  H
  C131     1.0000 0.82340  0.19080  0.92920  Biso   1.000  C
  H67      1.0000 0.84050  0.13590  0.94630  Biso   1.000  H
  C132     1.0000 0.55480  0.51450  0.43340  Biso   1.000  C
  H68      1.0000 0.52870  0.55950  0.41460  Biso   1.000  H
  C133     1.0000 0.79710  0.34880  0.93770  Biso   1.000  C
  H69      1.0000 0.79590  0.39860  0.96040  Biso   1.000  H
  C134     1.0000 0.82230  0.26570  0.96300  Biso   1.000  C
  H70      1.0000 0.83830  0.26060  0.00270  Biso   1.000  H
  O74      1.0000 0.78240  0.13410  0.77960  Biso   1.000  O
  C135     1.0000 0.79840  0.11820  0.83210  Biso   1.000  C
  O75      1.0000 0.85260  0.76210  0.78660  Biso   1.000  O
  Eu11     1.0000 0.16524  0.91568  0.69830  Biso   1.000  Eu
  Eu12     1.0000 0.21355  0.13605  0.81010  Biso   1.000  Eu
  O76      1.0000 0.25590  0.86730  0.71680  Biso   1.000  O
  O77      1.0000 0.12970  0.06400  0.73390  Biso   1.000  O
  O78      1.0000 0.26410  0.01990  0.88180  Biso   1.000  O
  O79      1.0000 0.08540  0.93390  0.72620  Biso   1.000  O
  O80      1.0000 0.21770  0.95230  0.79890  Biso   1.000  O
  C136     1.0000 0.04290  0.16700  0.74450  Biso   1.000  C
  H71      1.0000 0.07190  0.19970  0.74120  Biso   1.000  H
  C137     1.0000 0.04260  0.07120  0.74390  Biso   1.000  C
  C138     1.0000 0.25010  0.94780  0.85220  Biso   1.000  C
  C139     1.0000 0.08810  0.01980  0.73420  Biso   1.000  C
  C140     1.0000 0.33640  0.18250  0.79450  Biso   1.000  C
  O81      1.0000 0.15980  0.85540  0.60720  Biso   1.000  O
  O82      1.0000 0.31470  0.54190  0.85380  Biso   1.000  O
  O83      1.0000 0.15570  0.88410  0.35850  Biso   1.000  O
  O84      1.0000 0.32740  0.78040  0.72140  Biso   1.000  O
  O85      1.0000 0.08680  0.93270  0.60360  Biso   1.000  O
  O86      1.0000 0.25970  0.22850  0.89440  Biso   1.000  O
  H72      1.0000 0.23910  0.23630  0.91120  Biso   1.000  H
  O87      1.0000 0.30420  0.16950  0.81930  Biso   1.000  O
  C141     1.0000 0.29950  0.69800  0.87090  Biso   1.000  C
  O88      1.0000 0.17500  0.77370  0.42450  Biso   1.000  O
  C142     1.0000 0.34270  0.94170  0.74030  Biso   1.000  C
  C143     1.0000 0.30580  0.85670  0.72450  Biso   1.000  C
  C144     1.0000 0.10280  0.92210  0.51720  Biso   1.000  C
  C145     1.0000 0.12950  0.87580  0.48750  Biso   1.000  C
  H73      1.0000 0.15380  0.82810  0.50560  Biso   1.000  H
  C146     1.0000 0.32650  0.01820  0.76140  Biso   1.000  C
  H74      1.0000 0.29450  0.01570  0.76840  Biso   1.000  H
  C147     1.0000 0.15250  0.84770  0.40290  Biso   1.000  C
  C148     1.0000 0.27470  0.78140  0.84550  Biso   1.000  C
  H75      1.0000 0.25840  0.78610  0.80570  Biso   1.000  H
  C149     1.0000 0.11610  0.90240  0.57910  Biso   1.000  C
  C150     1.0000 0.39100  0.94290  0.73110  Biso   1.000  C
  H76      1.0000 0.40320  0.88980  0.71900  Biso   1.000  H
  C151     1.0000 0.35710  0.09980  0.77260  Biso   1.000  C
  C152     1.0000 0.27410  0.85590  0.87860  Biso   1.000  C
  C153     1.0000 0.12080  0.89900  0.43180  Biso   1.000  C
  C154     1.0000 0.40350  0.10410  0.76050  Biso   1.000  C
  H77      1.0000 0.42330  0.15910  0.76570  Biso   1.000  H
  C155     1.0000 0.42070  0.02450  0.74030  Biso   1.000  C
  H78      1.0000 0.45250  0.02660  0.73290  Biso   1.000  H
  C156     1.0000 0.06540  0.99190  0.48970  Biso   1.000  C
  H79      1.0000 0.04750  0.02350  0.50920  Biso   1.000  H
  C157     1.0000 0.08350  0.96970  0.40470  Biso   1.000  C
  H80      1.0000 0.07770  0.98720  0.36750  Biso   1.000  H
  C158     1.0000 0.32340  0.69080  0.92920  Biso   1.000  C
  H81      1.0000 0.34050  0.63590  0.94630  Biso   1.000  H
  C159     1.0000 0.05480  0.01450  0.43340  Biso   1.000  C
  H82      1.0000 0.02870  0.05950  0.41460  Biso   1.000  H
  C160     1.0000 0.29710  0.84880  0.93770  Biso   1.000  C
  H83      1.0000 0.29590  0.89860  0.96040  Biso   1.000  H
  C161     1.0000 0.32230  0.76570  0.96300  Biso   1.000  C
  H84      1.0000 0.33830  0.76060  0.00270  Biso   1.000  H
  O89      1.0000 0.28240  0.63410  0.77960  Biso   1.000  O
  C162     1.0000 0.29840  0.61820  0.83210  Biso   1.000  C
  O90      1.0000 0.35260  0.26210  0.78660  Biso   1.000  O
  Eu13     1.0000 0.33476  0.41568  0.80170  Biso   1.000  Eu
  Eu14     1.0000 0.28645  0.63605  0.68990  Biso   1.000  Eu
  O91      1.0000 0.24410  0.36730  0.78320  Biso   1.000  O
  O92      1.0000 0.37030  0.56400  0.76610  Biso   1.000  O
  O93      1.0000 0.23590  0.51990  0.61820  Biso   1.000  O
  O94      1.0000 0.41460  0.43390  0.77380  Biso   1.000  O
  O95      1.0000 0.28230  0.45230  0.70110  Biso   1.000  O
  C163     1.0000 0.45710  0.66700  0.75550  Biso   1.000  C
  H85      1.0000 0.42810  0.69970  0.75880  Biso   1.000  H
  C164     1.0000 0.45740  0.57120  0.75610  Biso   1.000  C
  C165     1.0000 0.24990  0.44780  0.64780  Biso   1.000  C
  C166     1.0000 0.41190  0.51980  0.76580  Biso   1.000  C
  C167     1.0000 0.16360  0.68250  0.70550  Biso   1.000  C
  O96      1.0000 0.34020  0.35540  0.89280  Biso   1.000  O
  O97      1.0000 0.18530  0.04190  0.64620  Biso   1.000  O
  O98      1.0000 0.34430  0.38410  0.14150  Biso   1.000  O
  O99      1.0000 0.17260  0.28040  0.77860  Biso   1.000  O
  O100     1.0000 0.41320  0.43270  0.89640  Biso   1.000  O
  O101     1.0000 0.24030  0.72850  0.60560  Biso   1.000  O
  H86      1.0000 0.26090  0.73630  0.58880  Biso   1.000  H
  O102     1.0000 0.19580  0.66950  0.68070  Biso   1.000  O
  C168     1.0000 0.20050  0.19800  0.62910  Biso   1.000  C
  O103     1.0000 0.32500  0.27370  0.07550  Biso   1.000  O
  C169     1.0000 0.15730  0.44170  0.75970  Biso   1.000  C
  C170     1.0000 0.19420  0.35670  0.77550  Biso   1.000  C
  C171     1.0000 0.39720  0.42210  0.98280  Biso   1.000  C
  C172     1.0000 0.37050  0.37580  0.01250  Biso   1.000  C
  H87      1.0000 0.34620  0.32810  0.99440  Biso   1.000  H
  C173     1.0000 0.17350  0.51820  0.73860  Biso   1.000  C
  H88      1.0000 0.20550  0.51570  0.73160  Biso   1.000  H
  C174     1.0000 0.34750  0.34770  0.09710  Biso   1.000  C
  C175     1.0000 0.22530  0.28140  0.65450  Biso   1.000  C
  H89      1.0000 0.24160  0.28610  0.69430  Biso   1.000  H
  C176     1.0000 0.38390  0.40240  0.92090  Biso   1.000  C
  C177     1.0000 0.10900  0.44290  0.76890  Biso   1.000  C
  H90      1.0000 0.09680  0.38980  0.78100  Biso   1.000  H
  C178     1.0000 0.14290  0.59980  0.72740  Biso   1.000  C
  C179     1.0000 0.22590  0.35590  0.62140  Biso   1.000  C
  C180     1.0000 0.37920  0.39900  0.06820  Biso   1.000  C
  C181     1.0000 0.09650  0.60410  0.73950  Biso   1.000  C
  H91      1.0000 0.07670  0.65910  0.73430  Biso   1.000  H
  C182     1.0000 0.07930  0.52450  0.75970  Biso   1.000  C
  H92      1.0000 0.04750  0.52660  0.76710  Biso   1.000  H
  C183     1.0000 0.43460  0.49190  0.01030  Biso   1.000  C
  H93      1.0000 0.45250  0.52350  0.99080  Biso   1.000  H
  C184     1.0000 0.41650  0.46970  0.09530  Biso   1.000  C
  H94      1.0000 0.42230  0.48720  0.13250  Biso   1.000  H
  C185     1.0000 0.17660  0.19080  0.57080  Biso   1.000  C
  H95      1.0000 0.15950  0.13590  0.55370  Biso   1.000  H
  C186     1.0000 0.44520  0.51450  0.06660  Biso   1.000  C
  H96      1.0000 0.47130  0.55950  0.08540  Biso   1.000  H
  C187     1.0000 0.20290  0.34880  0.56230  Biso   1.000  C
  H97      1.0000 0.20410  0.39860  0.53960  Biso   1.000  H
  C188     1.0000 0.17770  0.26570  0.53700  Biso   1.000  C
  H98      1.0000 0.16170  0.26060  0.49730  Biso   1.000  H
  O104     1.0000 0.21760  0.13410  0.72040  Biso   1.000  O
  C189     1.0000 0.20160  0.11820  0.66790  Biso   1.000  C
  O105     1.0000 0.14740  0.76210  0.71340  Biso   1.000  O
  Eu15     1.0000 0.83476  0.91568  0.80170  Biso   1.000  Eu
  Eu16     1.0000 0.78645  0.13605  0.68990  Biso   1.000  Eu
  O106     1.0000 0.74410  0.86730  0.78320  Biso   1.000  O
  O107     1.0000 0.87030  0.06400  0.76610  Biso   1.000  O
  O108     1.0000 0.73590  0.01990  0.61820  Biso   1.000  O
  O109     1.0000 0.91460  0.93390  0.77380  Biso   1.000  O
  O110     1.0000 0.78230  0.95230  0.70110  Biso   1.000  O
  C190     1.0000 0.95710  0.16700  0.75550  Biso   1.000  C
  H99      1.0000 0.92810  0.19970  0.75880  Biso   1.000  H
  C191     1.0000 0.95740  0.07120  0.75610  Biso   1.000  C
  C192     1.0000 0.74990  0.94780  0.64780  Biso   1.000  C
  C193     1.0000 0.91190  0.01980  0.76580  Biso   1.000  C
  C194     1.0000 0.66360  0.18250  0.70550  Biso   1.000  C
  O111     1.0000 0.84020  0.85540  0.89280  Biso   1.000  O
  O112     1.0000 0.68530  0.54190  0.64620  Biso   1.000  O
  O113     1.0000 0.84430  0.88410  0.14150  Biso   1.000  O
  O114     1.0000 0.67260  0.78040  0.77860  Biso   1.000  O
  O115     1.0000 0.91320  0.93270  0.89640  Biso   1.000  O
  O116     1.0000 0.74030  0.22850  0.60560  Biso   1.000  O
  H100     1.0000 0.76090  0.23630  0.58880  Biso   1.000  H
  O117     1.0000 0.69580  0.16950  0.68070  Biso   1.000  O
  C195     1.0000 0.70050  0.69800  0.62910  Biso   1.000  C
  O118     1.0000 0.82500  0.77370  0.07550  Biso   1.000  O
  C196     1.0000 0.65730  0.94170  0.75970  Biso   1.000  C
  C197     1.0000 0.69420  0.85670  0.77550  Biso   1.000  C
  C198     1.0000 0.89720  0.92210  0.98280  Biso   1.000  C
  C199     1.0000 0.87050  0.87580  0.01250  Biso   1.000  C
  H101     1.0000 0.84620  0.82810  0.99440  Biso   1.000  H
  C200     1.0000 0.67350  0.01820  0.73860  Biso   1.000  C
  H102     1.0000 0.70550  0.01570  0.73160  Biso   1.000  H
  C201     1.0000 0.84750  0.84770  0.09710  Biso   1.000  C
  C202     1.0000 0.72530  0.78140  0.65450  Biso   1.000  C
  H103     1.0000 0.74160  0.78610  0.69430  Biso   1.000  H
  C203     1.0000 0.88390  0.90240  0.92090  Biso   1.000  C
  C204     1.0000 0.60900  0.94290  0.76890  Biso   1.000  C
  H104     1.0000 0.59680  0.88980  0.78100  Biso   1.000  H
  C205     1.0000 0.64290  0.09980  0.72740  Biso   1.000  C
  C206     1.0000 0.72590  0.85590  0.62140  Biso   1.000  C
  C207     1.0000 0.87920  0.89900  0.06820  Biso   1.000  C
  C208     1.0000 0.59650  0.10410  0.73950  Biso   1.000  C
  H105     1.0000 0.57670  0.15910  0.73430  Biso   1.000  H
  C209     1.0000 0.57930  0.02450  0.75970  Biso   1.000  C
  H106     1.0000 0.54750  0.02660  0.76710  Biso   1.000  H
  C210     1.0000 0.93460  0.99190  0.01030  Biso   1.000  C
  H107     1.0000 0.95250  0.02350  0.99080  Biso   1.000  H
  C211     1.0000 0.91650  0.96970  0.09530  Biso   1.000  C
  H108     1.0000 0.92230  0.98720  0.13250  Biso   1.000  H
  C212     1.0000 0.67660  0.69080  0.57080  Biso   1.000  C
  H109     1.0000 0.65950  0.63590  0.55370  Biso   1.000  H
  C213     1.0000 0.94520  0.01450  0.06660  Biso   1.000  C
  H110     1.0000 0.97130  0.05950  0.08540  Biso   1.000  H
  C214     1.0000 0.70290  0.84880  0.56230  Biso   1.000  C
  H111     1.0000 0.70410  0.89860  0.53960  Biso   1.000  H
  C215     1.0000 0.67770  0.76570  0.53700  Biso   1.000  C
  H112     1.0000 0.66170  0.76060  0.49730  Biso   1.000  H
  O119     1.0000 0.71760  0.63410  0.72040  Biso   1.000  O
  C216     1.0000 0.70160  0.61820  0.66790  Biso   1.000  C
  O120     1.0000 0.64740  0.26210  0.71340  Biso   1.000  O
  C217     1.0000 0.50000  0.47740  0.25000  Biso   1.000  C
  H113     1.0000 0.50000  0.54180  0.25000  Biso   1.000  H
  C218     1.0000 0.50000  0.28720  0.25000  Biso   1.000  C
  H114     1.0000 0.50000  0.22280  0.25000  Biso   1.000  H
  C219     1.0000 0.00000  0.97740  0.25000  Biso   1.000  C
  H115     1.0000 0.00000  0.04180  0.25000  Biso   1.000  H
  C220     1.0000 0.00000  0.78720  0.25000  Biso   1.000  C
  H116     1.0000 0.00000  0.72280  0.25000  Biso   1.000  H
  C221     1.0000 0.50000  0.52260  0.75000  Biso   1.000  C
  H117     1.0000 0.50000  0.45820  0.75000  Biso   1.000  H
  C222     1.0000 0.50000  0.71280  0.75000  Biso   1.000  C
  H118     1.0000 0.50000  0.77720  0.75000  Biso   1.000  H
  C223     1.0000 0.00000  0.02260  0.75000  Biso   1.000  C
  H119     1.0000 0.00000  0.95820  0.75000  Biso   1.000  H
  C224     1.0000 0.00000  0.21280  0.75000  Biso   1.000  C
  H120     1.0000 0.00000  0.27720  0.75000  Biso   1.000  H
