data_image0
_cell_length_a       26.3797
_cell_length_b       14.4378
_cell_length_c       25.4231
_cell_angle_alpha    90
_cell_angle_beta     113.631
_cell_angle_gamma    90

_symmetry_space_group_name_H-M    "P 1"
_symmetry_int_tables_number       1

loop_
  _symmetry_equiv_pos_as_xyz
  'x, y, z'

loop_
  _atom_site_label
  _atom_site_occupancy
  _atom_site_fract_x
  _atom_site_fract_y
  _atom_site_fract_z
  _atom_site_thermal_displace_type
  _atom_site_B_iso_or_equiv
  _atom_site_type_symbol
  Sm1      1.0000 0.21376  0.63500  0.31006  Biso   1.000  Sm
  Sm2      1.0000 0.16496  0.41439  0.19794  Biso   1.000  Sm
  C1       1.0000 0.30690  0.35630  0.22580  Biso   1.000  C
  C2       1.0000 0.34280  0.43940  0.24030  Biso   1.000  C
  C3       1.0000 0.39060  0.44390  0.23050  Biso   1.000  C
  H1       1.0000 0.40300  0.39160  0.21780  Biso   1.000  H
  C4       1.0000 0.41980  0.52440  0.23930  Biso   1.000  C
  H2       1.0000 0.45130  0.52680  0.23140  Biso   1.000  H
  C5       1.0000 0.40350  0.60250  0.25950  Biso   1.000  C
  H3       1.0000 0.42340  0.65730  0.26480  Biso   1.000  H
  C6       1.0000 0.35670  0.59810  0.27210  Biso   1.000  C
  C7       1.0000 0.32740  0.51590  0.26220  Biso   1.000  C
  H4       1.0000 0.29630  0.51250  0.27080  Biso   1.000  H
  C8       1.0000 0.33650  0.68160  0.29480  Biso   1.000  C
  C9       1.0000 0.25110  0.44630  0.35230  Biso   1.000  C
  C10      1.0000 0.27450  0.35510  0.37970  Biso   1.000  C
  C11      1.0000 0.29910  0.34750  0.43870  Biso   1.000  C
  H5       1.0000 0.29990  0.39750  0.46200  Biso   1.000  H
  C12      1.0000 0.32290  0.26300  0.46250  Biso   1.000  C
  H6       1.0000 0.33820  0.25670  0.50220  Biso   1.000  H
  C13      1.0000 0.32460  0.18850  0.42940  Biso   1.000  C
  H7       1.0000 0.34170  0.13360  0.44650  Biso   1.000  H
  C14      1.0000 0.30020  0.19710  0.37010  Biso   1.000  C
  C15      1.0000 0.27520  0.28040  0.34550  Biso   1.000  C
  H8       1.0000 0.25890  0.28610  0.30570  Biso   1.000  H
  C16      1.0000 0.29990  0.11730  0.33280  Biso   1.000  C
  C17      1.0000 0.15320  0.65230  0.40340  Biso   1.000  C
  C18      1.0000 0.12170  0.60100  0.43220  Biso   1.000  C
  C19      1.0000 0.08330  0.53030  0.40440  Biso   1.000  C
  H9       1.0000 0.07690  0.51360  0.36700  Biso   1.000  H
  C20      1.0000 0.05530  0.48630  0.43250  Biso   1.000  C
  H10      1.0000 0.02990  0.44010  0.41380  Biso   1.000  H
  C21      1.0000 0.06450  0.50960  0.48820  Biso   1.000  C
  H11      1.0000 0.04500  0.47950  0.50670  Biso   1.000  H
  C22      1.0000 0.10230  0.57760  0.51670  Biso   1.000  C
  C23      1.0000 0.12950  0.62450  0.48730  Biso   1.000  C
  H12      1.0000 0.15340  0.67280  0.50550  Biso   1.000  H
  C24      1.0000 0.11590  0.60040  0.57860  Biso   1.000  C
  C25      1.0000 0.08760  0.51700  0.23400  Biso   1.000  C
  C26      1.0000 0.04280  0.56860  0.24370  Biso   1.000  C
  C27      1.0000 0.04230  0.66490  0.24470  Biso   1.000  C
  H13      1.0000 0.07150  0.69740  0.24180  Biso   1.000  H
  O1       1.0000 0.32800  0.28020  0.22200  Biso   1.000  O
  O2       1.0000 0.25580  0.36550  0.21690  Biso   1.000  O
  O3       1.0000 0.30430  0.66840  0.31920  Biso   1.000  O
  O4       1.0000 0.35380  0.76040  0.28650  Biso   1.000  O
  O5       1.0000 0.21760  0.45000  0.29950  Biso   1.000  O
  O6       1.0000 0.26520  0.51790  0.38190  Biso   1.000  O
  O7       1.0000 0.31630  0.04050  0.35450  Biso   1.000  O
  O8       1.0000 0.28220  0.13260  0.27980  Biso   1.000  O
  O9       1.0000 0.15550  0.61480  0.35860  Biso   1.000  O
  O10      1.0000 0.17570  0.72590  0.42510  Biso   1.000  O
  O11      1.0000 0.15950  0.64580  0.60600  Biso   1.000  O
  O12      1.0000 0.08680  0.57000  0.60300  Biso   1.000  O
  O13      1.0000 0.12970  0.56300  0.23400  Biso   1.000  O
  O14      1.0000 0.08380  0.43240  0.22500  Biso   1.000  O
  Sm3      1.0000 0.71376  0.13500  0.31006  Biso   1.000  Sm
  Sm4      1.0000 0.66496  0.91439  0.19794  Biso   1.000  Sm
  C28      1.0000 0.80690  0.85630  0.22580  Biso   1.000  C
  C29      1.0000 0.84280  0.93940  0.24030  Biso   1.000  C
  C30      1.0000 0.89060  0.94390  0.23050  Biso   1.000  C
  H14      1.0000 0.90300  0.89160  0.21780  Biso   1.000  H
  C31      1.0000 0.91980  0.02440  0.23930  Biso   1.000  C
  H15      1.0000 0.95130  0.02680  0.23140  Biso   1.000  H
  C32      1.0000 0.90350  0.10250  0.25950  Biso   1.000  C
  H16      1.0000 0.92340  0.15730  0.26480  Biso   1.000  H
  C33      1.0000 0.85670  0.09810  0.27210  Biso   1.000  C
  C34      1.0000 0.82740  0.01590  0.26220  Biso   1.000  C
  H17      1.0000 0.79630  0.01250  0.27080  Biso   1.000  H
  C35      1.0000 0.83650  0.18160  0.29480  Biso   1.000  C
  C36      1.0000 0.75110  0.94630  0.35230  Biso   1.000  C
  C37      1.0000 0.77450  0.85510  0.37970  Biso   1.000  C
  C38      1.0000 0.79910  0.84750  0.43870  Biso   1.000  C
  H18      1.0000 0.79990  0.89750  0.46200  Biso   1.000  H
  C39      1.0000 0.82290  0.76300  0.46250  Biso   1.000  C
  H19      1.0000 0.83820  0.75670  0.50220  Biso   1.000  H
  C40      1.0000 0.82460  0.68850  0.42940  Biso   1.000  C
  H20      1.0000 0.84170  0.63360  0.44650  Biso   1.000  H
  C41      1.0000 0.80020  0.69710  0.37010  Biso   1.000  C
  C42      1.0000 0.77520  0.78040  0.34550  Biso   1.000  C
  H21      1.0000 0.75890  0.78610  0.30570  Biso   1.000  H
  C43      1.0000 0.79990  0.61730  0.33280  Biso   1.000  C
  C44      1.0000 0.65320  0.15230  0.40340  Biso   1.000  C
  C45      1.0000 0.62170  0.10100  0.43220  Biso   1.000  C
  C46      1.0000 0.58330  0.03030  0.40440  Biso   1.000  C
  H22      1.0000 0.57690  0.01360  0.36700  Biso   1.000  H
  C47      1.0000 0.55530  0.98630  0.43250  Biso   1.000  C
  H23      1.0000 0.52990  0.94010  0.41380  Biso   1.000  H
  C48      1.0000 0.56450  0.00960  0.48820  Biso   1.000  C
  H24      1.0000 0.54500  0.97950  0.50670  Biso   1.000  H
  C49      1.0000 0.60230  0.07760  0.51670  Biso   1.000  C
  C50      1.0000 0.62950  0.12450  0.48730  Biso   1.000  C
  H25      1.0000 0.65340  0.17280  0.50550  Biso   1.000  H
  C51      1.0000 0.61590  0.10040  0.57860  Biso   1.000  C
  C52      1.0000 0.58760  0.01700  0.23400  Biso   1.000  C
  C53      1.0000 0.54280  0.06860  0.24370  Biso   1.000  C
  C54      1.0000 0.54230  0.16490  0.24470  Biso   1.000  C
  H26      1.0000 0.57150  0.19740  0.24180  Biso   1.000  H
  O15      1.0000 0.82800  0.78020  0.22200  Biso   1.000  O
  O16      1.0000 0.75580  0.86550  0.21690  Biso   1.000  O
  O17      1.0000 0.80430  0.16840  0.31920  Biso   1.000  O
  O18      1.0000 0.85380  0.26040  0.28650  Biso   1.000  O
  O19      1.0000 0.71760  0.95000  0.29950  Biso   1.000  O
  O20      1.0000 0.76520  0.01790  0.38190  Biso   1.000  O
  O21      1.0000 0.81630  0.54050  0.35450  Biso   1.000  O
  O22      1.0000 0.78220  0.63260  0.27980  Biso   1.000  O
  O23      1.0000 0.65550  0.11480  0.35860  Biso   1.000  O
  O24      1.0000 0.67570  0.22590  0.42510  Biso   1.000  O
  O25      1.0000 0.65950  0.14580  0.60600  Biso   1.000  O
  O26      1.0000 0.58680  0.07000  0.60300  Biso   1.000  O
  O27      1.0000 0.62970  0.06300  0.23400  Biso   1.000  O
  O28      1.0000 0.58380  0.93240  0.22500  Biso   1.000  O
  Sm5      1.0000 0.78624  0.63500  0.18994  Biso   1.000  Sm
  Sm6      1.0000 0.83504  0.41439  0.30206  Biso   1.000  Sm
  C55      1.0000 0.69310  0.35630  0.27420  Biso   1.000  C
  C56      1.0000 0.65720  0.43940  0.25970  Biso   1.000  C
  C57      1.0000 0.60940  0.44390  0.26950  Biso   1.000  C
  H27      1.0000 0.59700  0.39160  0.28220  Biso   1.000  H
  C58      1.0000 0.58020  0.52440  0.26070  Biso   1.000  C
  H28      1.0000 0.54870  0.52680  0.26860  Biso   1.000  H
  C59      1.0000 0.59650  0.60250  0.24050  Biso   1.000  C
  H29      1.0000 0.57660  0.65730  0.23520  Biso   1.000  H
  C60      1.0000 0.64330  0.59810  0.22790  Biso   1.000  C
  C61      1.0000 0.67260  0.51590  0.23780  Biso   1.000  C
  H30      1.0000 0.70370  0.51250  0.22920  Biso   1.000  H
  C62      1.0000 0.66350  0.68160  0.20520  Biso   1.000  C
  C63      1.0000 0.74890  0.44630  0.14770  Biso   1.000  C
  C64      1.0000 0.72550  0.35510  0.12030  Biso   1.000  C
  C65      1.0000 0.70090  0.34750  0.06130  Biso   1.000  C
  H31      1.0000 0.70010  0.39750  0.03800  Biso   1.000  H
  C66      1.0000 0.67710  0.26300  0.03750  Biso   1.000  C
  H32      1.0000 0.66180  0.25670  0.99780  Biso   1.000  H
  C67      1.0000 0.67540  0.18850  0.07060  Biso   1.000  C
  H33      1.0000 0.65830  0.13360  0.05350  Biso   1.000  H
  C68      1.0000 0.69980  0.19710  0.12990  Biso   1.000  C
  C69      1.0000 0.72480  0.28040  0.15450  Biso   1.000  C
  H34      1.0000 0.74110  0.28610  0.19430  Biso   1.000  H
  C70      1.0000 0.70010  0.11730  0.16720  Biso   1.000  C
  C71      1.0000 0.84680  0.65230  0.09660  Biso   1.000  C
  C72      1.0000 0.87830  0.60100  0.06780  Biso   1.000  C
  C73      1.0000 0.91670  0.53030  0.09560  Biso   1.000  C
  H35      1.0000 0.92310  0.51360  0.13300  Biso   1.000  H
  C74      1.0000 0.94470  0.48630  0.06750  Biso   1.000  C
  H36      1.0000 0.97010  0.44010  0.08620  Biso   1.000  H
  C75      1.0000 0.93550  0.50960  0.01180  Biso   1.000  C
  H37      1.0000 0.95500  0.47950  0.99330  Biso   1.000  H
  C76      1.0000 0.89770  0.57760  0.98330  Biso   1.000  C
  C77      1.0000 0.87050  0.62450  0.01270  Biso   1.000  C
  H38      1.0000 0.84660  0.67280  0.99450  Biso   1.000  H
  C78      1.0000 0.88410  0.60040  0.92140  Biso   1.000  C
  C79      1.0000 0.91240  0.51700  0.26600  Biso   1.000  C
  C80      1.0000 0.95720  0.56860  0.25630  Biso   1.000  C
  C81      1.0000 0.95770  0.66490  0.25530  Biso   1.000  C
  H39      1.0000 0.92850  0.69740  0.25820  Biso   1.000  H
  O29      1.0000 0.67200  0.28020  0.27800  Biso   1.000  O
  O30      1.0000 0.74420  0.36550  0.28310  Biso   1.000  O
  O31      1.0000 0.69570  0.66840  0.18080  Biso   1.000  O
  O32      1.0000 0.64620  0.76040  0.21350  Biso   1.000  O
  O33      1.0000 0.78240  0.45000  0.20050  Biso   1.000  O
  O34      1.0000 0.73480  0.51790  0.11810  Biso   1.000  O
  O35      1.0000 0.68370  0.04050  0.14550  Biso   1.000  O
  O36      1.0000 0.71780  0.13260  0.22020  Biso   1.000  O
  O37      1.0000 0.84450  0.61480  0.14140  Biso   1.000  O
  O38      1.0000 0.82430  0.72590  0.07490  Biso   1.000  O
  O39      1.0000 0.84050  0.64580  0.89400  Biso   1.000  O
  O40      1.0000 0.91320  0.57000  0.89700  Biso   1.000  O
  O41      1.0000 0.87030  0.56300  0.26600  Biso   1.000  O
  O42      1.0000 0.91620  0.43240  0.27500  Biso   1.000  O
  Sm7      1.0000 0.28624  0.13500  0.18994  Biso   1.000  Sm
  Sm8      1.0000 0.33504  0.91439  0.30206  Biso   1.000  Sm
  C82      1.0000 0.19310  0.85630  0.27420  Biso   1.000  C
  C83      1.0000 0.15720  0.93940  0.25970  Biso   1.000  C
  C84      1.0000 0.10940  0.94390  0.26950  Biso   1.000  C
  H40      1.0000 0.09700  0.89160  0.28220  Biso   1.000  H
  C85      1.0000 0.08020  0.02440  0.26070  Biso   1.000  C
  H41      1.0000 0.04870  0.02680  0.26860  Biso   1.000  H
  C86      1.0000 0.09650  0.10250  0.24050  Biso   1.000  C
  H42      1.0000 0.07660  0.15730  0.23520  Biso   1.000  H
  C87      1.0000 0.14330  0.09810  0.22790  Biso   1.000  C
  C88      1.0000 0.17260  0.01590  0.23780  Biso   1.000  C
  H43      1.0000 0.20370  0.01250  0.22920  Biso   1.000  H
  C89      1.0000 0.16350  0.18160  0.20520  Biso   1.000  C
  C90      1.0000 0.24890  0.94630  0.14770  Biso   1.000  C
  C91      1.0000 0.22550  0.85510  0.12030  Biso   1.000  C
  C92      1.0000 0.20090  0.84750  0.06130  Biso   1.000  C
  H44      1.0000 0.20010  0.89750  0.03800  Biso   1.000  H
  C93      1.0000 0.17710  0.76300  0.03750  Biso   1.000  C
  H45      1.0000 0.16180  0.75670  0.99780  Biso   1.000  H
  C94      1.0000 0.17540  0.68850  0.07060  Biso   1.000  C
  H46      1.0000 0.15830  0.63360  0.05350  Biso   1.000  H
  C95      1.0000 0.19980  0.69710  0.12990  Biso   1.000  C
  C96      1.0000 0.22480  0.78040  0.15450  Biso   1.000  C
  H47      1.0000 0.24110  0.78610  0.19430  Biso   1.000  H
  C97      1.0000 0.20010  0.61730  0.16720  Biso   1.000  C
  C98      1.0000 0.34680  0.15230  0.09660  Biso   1.000  C
  C99      1.0000 0.37830  0.10100  0.06780  Biso   1.000  C
  C100     1.0000 0.41670  0.03030  0.09560  Biso   1.000  C
  H48      1.0000 0.42310  0.01360  0.13300  Biso   1.000  H
  C101     1.0000 0.44470  0.98630  0.06750  Biso   1.000  C
  H49      1.0000 0.47010  0.94010  0.08620  Biso   1.000  H
  C102     1.0000 0.43550  0.00960  0.01180  Biso   1.000  C
  H50      1.0000 0.45500  0.97950  0.99330  Biso   1.000  H
  C103     1.0000 0.39770  0.07760  0.98330  Biso   1.000  C
  C104     1.0000 0.37050  0.12450  0.01270  Biso   1.000  C
  H51      1.0000 0.34660  0.17280  0.99450  Biso   1.000  H
  C105     1.0000 0.38410  0.10040  0.92140  Biso   1.000  C
  C106     1.0000 0.41240  0.01700  0.26600  Biso   1.000  C
  C107     1.0000 0.45720  0.06860  0.25630  Biso   1.000  C
  C108     1.0000 0.45770  0.16490  0.25530  Biso   1.000  C
  H52      1.0000 0.42850  0.19740  0.25820  Biso   1.000  H
  O43      1.0000 0.17200  0.78020  0.27800  Biso   1.000  O
  O44      1.0000 0.24420  0.86550  0.28310  Biso   1.000  O
  O45      1.0000 0.19570  0.16840  0.18080  Biso   1.000  O
  O46      1.0000 0.14620  0.26040  0.21350  Biso   1.000  O
  O47      1.0000 0.28240  0.95000  0.20050  Biso   1.000  O
  O48      1.0000 0.23480  0.01790  0.11810  Biso   1.000  O
  O49      1.0000 0.18370  0.54050  0.14550  Biso   1.000  O
  O50      1.0000 0.21780  0.63260  0.22020  Biso   1.000  O
  O51      1.0000 0.34450  0.11480  0.14140  Biso   1.000  O
  O52      1.0000 0.32430  0.22590  0.07490  Biso   1.000  O
  O53      1.0000 0.34050  0.14580  0.89400  Biso   1.000  O
  O54      1.0000 0.41320  0.07000  0.89700  Biso   1.000  O
  O55      1.0000 0.37030  0.06300  0.26600  Biso   1.000  O
  O56      1.0000 0.41620  0.93240  0.27500  Biso   1.000  O
  Sm9      1.0000 0.78624  0.36500  0.68994  Biso   1.000  Sm
  Sm10     1.0000 0.83504  0.58561  0.80206  Biso   1.000  Sm
  C109     1.0000 0.69310  0.64370  0.77420  Biso   1.000  C
  C110     1.0000 0.65720  0.56060  0.75970  Biso   1.000  C
  C111     1.0000 0.60940  0.55610  0.76950  Biso   1.000  C
  H53      1.0000 0.59700  0.60840  0.78220  Biso   1.000  H
  C112     1.0000 0.58020  0.47560  0.76070  Biso   1.000  C
  H54      1.0000 0.54870  0.47320  0.76860  Biso   1.000  H
  C113     1.0000 0.59650  0.39750  0.74050  Biso   1.000  C
  H55      1.0000 0.57660  0.34270  0.73520  Biso   1.000  H
  C114     1.0000 0.64330  0.40190  0.72790  Biso   1.000  C
  C115     1.0000 0.67260  0.48410  0.73780  Biso   1.000  C
  H56      1.0000 0.70370  0.48750  0.72920  Biso   1.000  H
  C116     1.0000 0.66350  0.31840  0.70520  Biso   1.000  C
  C117     1.0000 0.74890  0.55370  0.64770  Biso   1.000  C
  C118     1.0000 0.72550  0.64490  0.62030  Biso   1.000  C
  C119     1.0000 0.70090  0.65250  0.56130  Biso   1.000  C
  H57      1.0000 0.70010  0.60250  0.53800  Biso   1.000  H
  C120     1.0000 0.67710  0.73700  0.53750  Biso   1.000  C
  H58      1.0000 0.66180  0.74330  0.49780  Biso   1.000  H
  C121     1.0000 0.67540  0.81150  0.57060  Biso   1.000  C
  H59      1.0000 0.65830  0.86640  0.55350  Biso   1.000  H
  C122     1.0000 0.69980  0.80290  0.62990  Biso   1.000  C
  C123     1.0000 0.72480  0.71960  0.65450  Biso   1.000  C
  H60      1.0000 0.74110  0.71390  0.69430  Biso   1.000  H
  C124     1.0000 0.70010  0.88270  0.66720  Biso   1.000  C
  C125     1.0000 0.84680  0.34770  0.59660  Biso   1.000  C
  C126     1.0000 0.87830  0.39900  0.56780  Biso   1.000  C
  C127     1.0000 0.91670  0.46970  0.59560  Biso   1.000  C
  H61      1.0000 0.92310  0.48640  0.63300  Biso   1.000  H
  C128     1.0000 0.94470  0.51370  0.56750  Biso   1.000  C
  H62      1.0000 0.97010  0.55990  0.58620  Biso   1.000  H
  C129     1.0000 0.93550  0.49040  0.51180  Biso   1.000  C
  H63      1.0000 0.95500  0.52050  0.49330  Biso   1.000  H
  C130     1.0000 0.89770  0.42240  0.48330  Biso   1.000  C
  C131     1.0000 0.87050  0.37550  0.51270  Biso   1.000  C
  H64      1.0000 0.84660  0.32720  0.49450  Biso   1.000  H
  C132     1.0000 0.88410  0.39960  0.42140  Biso   1.000  C
  C133     1.0000 0.91240  0.48300  0.76600  Biso   1.000  C
  C134     1.0000 0.95720  0.43140  0.75630  Biso   1.000  C
  C135     1.0000 0.95770  0.33510  0.75530  Biso   1.000  C
  H65      1.0000 0.92850  0.30260  0.75820  Biso   1.000  H
  O57      1.0000 0.67200  0.71980  0.77800  Biso   1.000  O
  O58      1.0000 0.74420  0.63450  0.78310  Biso   1.000  O
  O59      1.0000 0.69570  0.33160  0.68080  Biso   1.000  O
  O60      1.0000 0.64620  0.23960  0.71350  Biso   1.000  O
  O61      1.0000 0.78240  0.55000  0.70050  Biso   1.000  O
  O62      1.0000 0.73480  0.48210  0.61810  Biso   1.000  O
  O63      1.0000 0.68370  0.95950  0.64550  Biso   1.000  O
  O64      1.0000 0.71780  0.86740  0.72020  Biso   1.000  O
  O65      1.0000 0.84450  0.38520  0.64140  Biso   1.000  O
  O66      1.0000 0.82430  0.27410  0.57490  Biso   1.000  O
  O67      1.0000 0.84050  0.35420  0.39400  Biso   1.000  O
  O68      1.0000 0.91320  0.43000  0.39700  Biso   1.000  O
  O69      1.0000 0.87030  0.43700  0.76600  Biso   1.000  O
  O70      1.0000 0.91620  0.56760  0.77500  Biso   1.000  O
  Sm11     1.0000 0.28624  0.86500  0.68994  Biso   1.000  Sm
  Sm12     1.0000 0.33504  0.08561  0.80206  Biso   1.000  Sm
  C136     1.0000 0.19310  0.14370  0.77420  Biso   1.000  C
  C137     1.0000 0.15720  0.06060  0.75970  Biso   1.000  C
  C138     1.0000 0.10940  0.05610  0.76950  Biso   1.000  C
  H66      1.0000 0.09700  0.10840  0.78220  Biso   1.000  H
  C139     1.0000 0.08020  0.97560  0.76070  Biso   1.000  C
  H67      1.0000 0.04870  0.97320  0.76860  Biso   1.000  H
  C140     1.0000 0.09650  0.89750  0.74050  Biso   1.000  C
  H68      1.0000 0.07660  0.84270  0.73520  Biso   1.000  H
  C141     1.0000 0.14330  0.90190  0.72790  Biso   1.000  C
  C142     1.0000 0.17260  0.98410  0.73780  Biso   1.000  C
  H69      1.0000 0.20370  0.98750  0.72920  Biso   1.000  H
  C143     1.0000 0.16350  0.81840  0.70520  Biso   1.000  C
  C144     1.0000 0.24890  0.05370  0.64770  Biso   1.000  C
  C145     1.0000 0.22550  0.14490  0.62030  Biso   1.000  C
  C146     1.0000 0.20090  0.15250  0.56130  Biso   1.000  C
  H70      1.0000 0.20010  0.10250  0.53800  Biso   1.000  H
  C147     1.0000 0.17710  0.23700  0.53750  Biso   1.000  C
  H71      1.0000 0.16180  0.24330  0.49780  Biso   1.000  H
  C148     1.0000 0.17540  0.31150  0.57060  Biso   1.000  C
  H72      1.0000 0.15830  0.36640  0.55350  Biso   1.000  H
  C149     1.0000 0.19980  0.30290  0.62990  Biso   1.000  C
  C150     1.0000 0.22480  0.21960  0.65450  Biso   1.000  C
  H73      1.0000 0.24110  0.21390  0.69430  Biso   1.000  H
  C151     1.0000 0.20010  0.38270  0.66720  Biso   1.000  C
  C152     1.0000 0.34680  0.84770  0.59660  Biso   1.000  C
  C153     1.0000 0.37830  0.89900  0.56780  Biso   1.000  C
  C154     1.0000 0.41670  0.96970  0.59560  Biso   1.000  C
  H74      1.0000 0.42310  0.98640  0.63300  Biso   1.000  H
  C155     1.0000 0.44470  0.01370  0.56750  Biso   1.000  C
  H75      1.0000 0.47010  0.05990  0.58620  Biso   1.000  H
  C156     1.0000 0.43550  0.99040  0.51180  Biso   1.000  C
  H76      1.0000 0.45500  0.02050  0.49330  Biso   1.000  H
  C157     1.0000 0.39770  0.92240  0.48330  Biso   1.000  C
  C158     1.0000 0.37050  0.87550  0.51270  Biso   1.000  C
  H77      1.0000 0.34660  0.82720  0.49450  Biso   1.000  H
  C159     1.0000 0.38410  0.89960  0.42140  Biso   1.000  C
  C160     1.0000 0.41240  0.98300  0.76600  Biso   1.000  C
  C161     1.0000 0.45720  0.93140  0.75630  Biso   1.000  C
  C162     1.0000 0.45770  0.83510  0.75530  Biso   1.000  C
  H78      1.0000 0.42850  0.80260  0.75820  Biso   1.000  H
  O71      1.0000 0.17200  0.21980  0.77800  Biso   1.000  O
  O72      1.0000 0.24420  0.13450  0.78310  Biso   1.000  O
  O73      1.0000 0.19570  0.83160  0.68080  Biso   1.000  O
  O74      1.0000 0.14620  0.73960  0.71350  Biso   1.000  O
  O75      1.0000 0.28240  0.05000  0.70050  Biso   1.000  O
  O76      1.0000 0.23480  0.98210  0.61810  Biso   1.000  O
  O77      1.0000 0.18370  0.45950  0.64550  Biso   1.000  O
  O78      1.0000 0.21780  0.36740  0.72020  Biso   1.000  O
  O79      1.0000 0.34450  0.88520  0.64140  Biso   1.000  O
  O80      1.0000 0.32430  0.77410  0.57490  Biso   1.000  O
  O81      1.0000 0.34050  0.85420  0.39400  Biso   1.000  O
  O82      1.0000 0.41320  0.93000  0.39700  Biso   1.000  O
  O83      1.0000 0.37030  0.93700  0.76600  Biso   1.000  O
  O84      1.0000 0.41620  0.06760  0.77500  Biso   1.000  O
  Sm13     1.0000 0.21376  0.36500  0.81006  Biso   1.000  Sm
  Sm14     1.0000 0.16496  0.58561  0.69794  Biso   1.000  Sm
  C163     1.0000 0.30690  0.64370  0.72580  Biso   1.000  C
  C164     1.0000 0.34280  0.56060  0.74030  Biso   1.000  C
  C165     1.0000 0.39060  0.55610  0.73050  Biso   1.000  C
  H79      1.0000 0.40300  0.60840  0.71780  Biso   1.000  H
  C166     1.0000 0.41980  0.47560  0.73930  Biso   1.000  C
  H80      1.0000 0.45130  0.47320  0.73140  Biso   1.000  H
  C167     1.0000 0.40350  0.39750  0.75950  Biso   1.000  C
  H81      1.0000 0.42340  0.34270  0.76480  Biso   1.000  H
  C168     1.0000 0.35670  0.40190  0.77210  Biso   1.000  C
  C169     1.0000 0.32740  0.48410  0.76220  Biso   1.000  C
  H82      1.0000 0.29630  0.48750  0.77080  Biso   1.000  H
  C170     1.0000 0.33650  0.31840  0.79480  Biso   1.000  C
  C171     1.0000 0.25110  0.55370  0.85230  Biso   1.000  C
  C172     1.0000 0.27450  0.64490  0.87970  Biso   1.000  C
  C173     1.0000 0.29910  0.65250  0.93870  Biso   1.000  C
  H83      1.0000 0.29990  0.60250  0.96200  Biso   1.000  H
  C174     1.0000 0.32290  0.73700  0.96250  Biso   1.000  C
  H84      1.0000 0.33820  0.74330  0.00220  Biso   1.000  H
  C175     1.0000 0.32460  0.81150  0.92940  Biso   1.000  C
  H85      1.0000 0.34170  0.86640  0.94650  Biso   1.000  H
  C176     1.0000 0.30020  0.80290  0.87010  Biso   1.000  C
  C177     1.0000 0.27520  0.71960  0.84550  Biso   1.000  C
  H86      1.0000 0.25890  0.71390  0.80570  Biso   1.000  H
  C178     1.0000 0.29990  0.88270  0.83280  Biso   1.000  C
  C179     1.0000 0.15320  0.34770  0.90340  Biso   1.000  C
  C180     1.0000 0.12170  0.39900  0.93220  Biso   1.000  C
  C181     1.0000 0.08330  0.46970  0.90440  Biso   1.000  C
  H87      1.0000 0.07690  0.48640  0.86700  Biso   1.000  H
  C182     1.0000 0.05530  0.51370  0.93250  Biso   1.000  C
  H88      1.0000 0.02990  0.55990  0.91380  Biso   1.000  H
  C183     1.0000 0.06450  0.49040  0.98820  Biso   1.000  C
  H89      1.0000 0.04500  0.52050  0.00670  Biso   1.000  H
  C184     1.0000 0.10230  0.42240  0.01670  Biso   1.000  C
  C185     1.0000 0.12950  0.37550  0.98730  Biso   1.000  C
  H90      1.0000 0.15340  0.32720  0.00550  Biso   1.000  H
  C186     1.0000 0.11590  0.39960  0.07860  Biso   1.000  C
  C187     1.0000 0.08760  0.48300  0.73400  Biso   1.000  C
  C188     1.0000 0.04280  0.43140  0.74370  Biso   1.000  C
  C189     1.0000 0.04230  0.33510  0.74470  Biso   1.000  C
  H91      1.0000 0.07150  0.30260  0.74180  Biso   1.000  H
  O85      1.0000 0.32800  0.71980  0.72200  Biso   1.000  O
  O86      1.0000 0.25580  0.63450  0.71690  Biso   1.000  O
  O87      1.0000 0.30430  0.33160  0.81920  Biso   1.000  O
  O88      1.0000 0.35380  0.23960  0.78650  Biso   1.000  O
  O89      1.0000 0.21760  0.55000  0.79950  Biso   1.000  O
  O90      1.0000 0.26520  0.48210  0.88190  Biso   1.000  O
  O91      1.0000 0.31630  0.95950  0.85450  Biso   1.000  O
  O92      1.0000 0.28220  0.86740  0.77980  Biso   1.000  O
  O93      1.0000 0.15550  0.38520  0.85860  Biso   1.000  O
  O94      1.0000 0.17570  0.27410  0.92510  Biso   1.000  O
  O95      1.0000 0.15950  0.35420  0.10600  Biso   1.000  O
  O96      1.0000 0.08680  0.43000  0.10300  Biso   1.000  O
  O97      1.0000 0.12970  0.43700  0.73400  Biso   1.000  O
  O98      1.0000 0.08380  0.56760  0.72500  Biso   1.000  O
  Sm15     1.0000 0.71376  0.86500  0.81006  Biso   1.000  Sm
  Sm16     1.0000 0.66496  0.08561  0.69794  Biso   1.000  Sm
  C190     1.0000 0.80690  0.14370  0.72580  Biso   1.000  C
  C191     1.0000 0.84280  0.06060  0.74030  Biso   1.000  C
  C192     1.0000 0.89060  0.05610  0.73050  Biso   1.000  C
  H92      1.0000 0.90300  0.10840  0.71780  Biso   1.000  H
  C193     1.0000 0.91980  0.97560  0.73930  Biso   1.000  C
  H93      1.0000 0.95130  0.97320  0.73140  Biso   1.000  H
  C194     1.0000 0.90350  0.89750  0.75950  Biso   1.000  C
  H94      1.0000 0.92340  0.84270  0.76480  Biso   1.000  H
  C195     1.0000 0.85670  0.90190  0.77210  Biso   1.000  C
  C196     1.0000 0.82740  0.98410  0.76220  Biso   1.000  C
  H95      1.0000 0.79630  0.98750  0.77080  Biso   1.000  H
  C197     1.0000 0.83650  0.81840  0.79480  Biso   1.000  C
  C198     1.0000 0.75110  0.05370  0.85230  Biso   1.000  C
  C199     1.0000 0.77450  0.14490  0.87970  Biso   1.000  C
  C200     1.0000 0.79910  0.15250  0.93870  Biso   1.000  C
  H96      1.0000 0.79990  0.10250  0.96200  Biso   1.000  H
  C201     1.0000 0.82290  0.23700  0.96250  Biso   1.000  C
  H97      1.0000 0.83820  0.24330  0.00220  Biso   1.000  H
  C202     1.0000 0.82460  0.31150  0.92940  Biso   1.000  C
  H98      1.0000 0.84170  0.36640  0.94650  Biso   1.000  H
  C203     1.0000 0.80020  0.30290  0.87010  Biso   1.000  C
  C204     1.0000 0.77520  0.21960  0.84550  Biso   1.000  C
  H99      1.0000 0.75890  0.21390  0.80570  Biso   1.000  H
  C205     1.0000 0.79990  0.38270  0.83280  Biso   1.000  C
  C206     1.0000 0.65320  0.84770  0.90340  Biso   1.000  C
  C207     1.0000 0.62170  0.89900  0.93220  Biso   1.000  C
  C208     1.0000 0.58330  0.96970  0.90440  Biso   1.000  C
  H100     1.0000 0.57690  0.98640  0.86700  Biso   1.000  H
  C209     1.0000 0.55530  0.01370  0.93250  Biso   1.000  C
  H101     1.0000 0.52990  0.05990  0.91380  Biso   1.000  H
  C210     1.0000 0.56450  0.99040  0.98820  Biso   1.000  C
  H102     1.0000 0.54500  0.02050  0.00670  Biso   1.000  H
  C211     1.0000 0.60230  0.92240  0.01670  Biso   1.000  C
  C212     1.0000 0.62950  0.87550  0.98730  Biso   1.000  C
  H103     1.0000 0.65340  0.82720  0.00550  Biso   1.000  H
  C213     1.0000 0.61590  0.89960  0.07860  Biso   1.000  C
  C214     1.0000 0.58760  0.98300  0.73400  Biso   1.000  C
  C215     1.0000 0.54280  0.93140  0.74370  Biso   1.000  C
  C216     1.0000 0.54230  0.83510  0.74470  Biso   1.000  C
  H104     1.0000 0.57150  0.80260  0.74180  Biso   1.000  H
  O99      1.0000 0.82800  0.21980  0.72200  Biso   1.000  O
  O100     1.0000 0.75580  0.13450  0.71690  Biso   1.000  O
  O101     1.0000 0.80430  0.83160  0.81920  Biso   1.000  O
  O102     1.0000 0.85380  0.73960  0.78650  Biso   1.000  O
  O103     1.0000 0.71760  0.05000  0.79950  Biso   1.000  O
  O104     1.0000 0.76520  0.98210  0.88190  Biso   1.000  O
  O105     1.0000 0.81630  0.45950  0.85450  Biso   1.000  O
  O106     1.0000 0.78220  0.36740  0.77980  Biso   1.000  O
  O107     1.0000 0.65550  0.88520  0.85860  Biso   1.000  O
  O108     1.0000 0.67570  0.77410  0.92510  Biso   1.000  O
  O109     1.0000 0.65950  0.85420  0.10600  Biso   1.000  O
  O110     1.0000 0.58680  0.93000  0.10300  Biso   1.000  O
  O111     1.0000 0.62970  0.93700  0.73400  Biso   1.000  O
  O112     1.0000 0.58380  0.06760  0.72500  Biso   1.000  O
  C217     1.0000 0.00000  0.71290  0.25000  Biso   1.000  C
  H105     1.0000 0.00000  0.77730  0.25000  Biso   1.000  H
  C218     1.0000 0.00000  0.52200  0.25000  Biso   1.000  C
  H106     1.0000 0.00000  0.45760  0.25000  Biso   1.000  H
  C219     1.0000 0.50000  0.21290  0.25000  Biso   1.000  C
  H107     1.0000 0.50000  0.27730  0.25000  Biso   1.000  H
  C220     1.0000 0.50000  0.02200  0.25000  Biso   1.000  C
  H108     1.0000 0.50000  0.95760  0.25000  Biso   1.000  H
  C221     1.0000 0.00000  0.28710  0.75000  Biso   1.000  C
  H109     1.0000 0.00000  0.22270  0.75000  Biso   1.000  H
  C222     1.0000 0.00000  0.47800  0.75000  Biso   1.000  C
  H110     1.0000 0.00000  0.54240  0.75000  Biso   1.000  H
  C223     1.0000 0.50000  0.78710  0.75000  Biso   1.000  C
  H111     1.0000 0.50000  0.72270  0.75000  Biso   1.000  H
  C224     1.0000 0.50000  0.97800  0.75000  Biso   1.000  C
  H112     1.0000 0.50000  0.04240  0.75000  Biso   1.000  H
