data_image0
_cell_length_a       27.644
_cell_length_b       16.017
_cell_length_c       22.902
_cell_angle_alpha    90
_cell_angle_beta     90
_cell_angle_gamma    90

_symmetry_space_group_name_H-M    "P 1"
_symmetry_int_tables_number       1

loop_
  _symmetry_equiv_pos_as_xyz
  'x, y, z'

loop_
  _atom_site_label
  _atom_site_occupancy
  _atom_site_fract_x
  _atom_site_fract_y
  _atom_site_fract_z
  _atom_site_thermal_displace_type
  _atom_site_B_iso_or_equiv
  _atom_site_type_symbol
  P1       1.0000 0.99126  0.18806  0.26247  Biso   1.000  P
  P2       1.0000 0.86867  0.78090  0.34351  Biso   1.000  P
  P3       1.0000 0.13316  0.79691  0.33476  Biso   1.000  P
  P4       1.0000 0.99790  0.93374  0.34007  Biso   1.000  P
  O1       1.0000 0.89618  0.02450  0.32978  Biso   1.000  O
  O2       1.0000 0.93999  0.03270  0.44436  Biso   1.000  O
  O3       1.0000 0.00193  0.73970  0.39100  Biso   1.000  O
  O4       1.0000 0.09734  0.03690  0.32308  Biso   1.000  O
  O5       1.0000 0.05796  0.04010  0.43997  Biso   1.000  O
  O6       1.0000 0.90150  0.87590  0.46590  Biso   1.000  O
  O7       1.0000 0.99738  0.02870  0.34688  Biso   1.000  O
  O8       1.0000 0.00206  0.87270  0.47609  Biso   1.000  O
  O9       1.0000 0.90399  0.74510  0.38802  Biso   1.000  O
  O10      1.0000 0.10107  0.88770  0.45839  Biso   1.000  O
  O11      1.0000 0.89384  0.78020  0.28157  Biso   1.000  O
  O12      1.0000 0.99370  0.91740  0.27386  Biso   1.000  O
  O13      1.0000 0.09760  0.75740  0.37778  Biso   1.000  O
  O14      1.0000 0.10994  0.79760  0.27230  Biso   1.000  O
  O15      1.0000 0.85739  0.87310  0.35539  Biso   1.000  O
  O16      1.0000 0.14463  0.88810  0.35071  Biso   1.000  O
  O17      1.0000 0.99562  0.16780  0.40101  Biso   1.000  O
  O18      1.0000 0.04458  0.89920  0.36594  Biso   1.000  O
  O19      1.0000 0.98103  0.27970  0.25620  Biso   1.000  O
  O20      1.0000 0.94800  0.14910  0.29323  Biso   1.000  O
  O21      1.0000 0.17781  0.74480  0.33132  Biso   1.000  O
  O22      1.0000 0.82329  0.72930  0.34113  Biso   1.000  O
  O23      1.0000 0.03942  0.16890  0.29184  Biso   1.000  O
  O24      1.0000 0.95471  0.89530  0.37216  Biso   1.000  O
  O25      1.0000 0.99287  0.14680  0.20020  Biso   1.000  O
  Mo1      1.0000 0.04938  0.79852  0.43815  Biso   1.000  Mo
  Mo2      1.0000 0.10986  0.98202  0.39657  Biso   1.000  Mo
  Mo3      1.0000 0.06009  0.11389  0.37014  Biso   1.000  Mo
  Mo4      1.0000 0.93293  0.10497  0.37437  Biso   1.000  Mo
  Mo5      1.0000 0.88906  0.96858  0.40370  Biso   1.000  Mo
  Mo6      1.0000 0.95568  0.79220  0.44271  Biso   1.000  Mo
  C1       1.0000 0.77740  0.69770  0.21830  Biso   1.000  C
  H1       1.0000 0.79700  0.66060  0.23860  Biso   1.000  H
  C2       1.0000 0.77820  0.69600  0.15750  Biso   1.000  C
  H2       1.0000 0.79790  0.65800  0.13820  Biso   1.000  H
  C3       1.0000 0.78440  0.71170  0.96930  Biso   1.000  C
  H3       1.0000 0.80890  0.68430  0.94900  Biso   1.000  H
  C4       1.0000 0.78590  0.71020  0.02900  Biso   1.000  C
  H4       1.0000 0.81090  0.68260  0.04820  Biso   1.000  H
  C5       1.0000 0.21730  0.70770  0.20880  Biso   1.000  C
  H5       1.0000 0.19380  0.67810  0.22920  Biso   1.000  H
  C6       1.0000 0.21650  0.70570  0.14810  Biso   1.000  C
  H6       1.0000 0.19330  0.67410  0.12880  Biso   1.000  H
  C7       1.0000 0.21240  0.72390  0.95970  Biso   1.000  C
  H7       1.0000 0.18510  0.70650  0.93910  Biso   1.000  H
  C8       1.0000 0.21090  0.72080  0.02000  Biso   1.000  C
  H8       1.0000 0.18390  0.69930  0.03900  Biso   1.000  H
  P5       1.0000 0.50874  0.31194  0.26247  Biso   1.000  P
  P6       1.0000 0.63133  0.71910  0.34351  Biso   1.000  P
  P7       1.0000 0.36684  0.70309  0.33476  Biso   1.000  P
  P8       1.0000 0.50210  0.56626  0.34007  Biso   1.000  P
  O26      1.0000 0.60382  0.47550  0.32978  Biso   1.000  O
  O27      1.0000 0.56001  0.46730  0.44436  Biso   1.000  O
  O28      1.0000 0.49807  0.76030  0.39100  Biso   1.000  O
  O29      1.0000 0.40266  0.46310  0.32308  Biso   1.000  O
  O30      1.0000 0.44204  0.45990  0.43997  Biso   1.000  O
  O31      1.0000 0.59850  0.62410  0.46590  Biso   1.000  O
  O32      1.0000 0.50262  0.47130  0.34688  Biso   1.000  O
  O33      1.0000 0.49794  0.62730  0.47609  Biso   1.000  O
  O34      1.0000 0.59601  0.75490  0.38802  Biso   1.000  O
  O35      1.0000 0.39893  0.61230  0.45839  Biso   1.000  O
  O36      1.0000 0.60616  0.71980  0.28157  Biso   1.000  O
  O37      1.0000 0.50630  0.58260  0.27386  Biso   1.000  O
  O38      1.0000 0.40240  0.74260  0.37778  Biso   1.000  O
  O39      1.0000 0.39006  0.70240  0.27230  Biso   1.000  O
  O40      1.0000 0.64261  0.62690  0.35539  Biso   1.000  O
  O41      1.0000 0.35537  0.61190  0.35071  Biso   1.000  O
  O42      1.0000 0.50438  0.33220  0.40101  Biso   1.000  O
  O43      1.0000 0.45542  0.60080  0.36594  Biso   1.000  O
  O44      1.0000 0.51897  0.22030  0.25620  Biso   1.000  O
  O45      1.0000 0.55200  0.35090  0.29323  Biso   1.000  O
  O46      1.0000 0.32219  0.75520  0.33132  Biso   1.000  O
  O47      1.0000 0.67671  0.77070  0.34113  Biso   1.000  O
  O48      1.0000 0.46058  0.33110  0.29184  Biso   1.000  O
  O49      1.0000 0.54529  0.60470  0.37216  Biso   1.000  O
  O50      1.0000 0.50713  0.35320  0.20020  Biso   1.000  O
  Mo7      1.0000 0.45062  0.70148  0.43815  Biso   1.000  Mo
  Mo8      1.0000 0.39014  0.51798  0.39657  Biso   1.000  Mo
  Mo9      1.0000 0.43991  0.38611  0.37014  Biso   1.000  Mo
  Mo10     1.0000 0.56707  0.39503  0.37437  Biso   1.000  Mo
  Mo11     1.0000 0.61094  0.53142  0.40370  Biso   1.000  Mo
  Mo12     1.0000 0.54432  0.70780  0.44271  Biso   1.000  Mo
  C9       1.0000 0.72260  0.80230  0.21830  Biso   1.000  C
  H9       1.0000 0.70300  0.83940  0.23860  Biso   1.000  H
  C10      1.0000 0.72180  0.80400  0.15750  Biso   1.000  C
  H10      1.0000 0.70210  0.84200  0.13820  Biso   1.000  H
  C11      1.0000 0.71560  0.78830  0.96930  Biso   1.000  C
  H11      1.0000 0.69110  0.81570  0.94900  Biso   1.000  H
  C12      1.0000 0.71410  0.78980  0.02900  Biso   1.000  C
  H12      1.0000 0.68910  0.81740  0.04820  Biso   1.000  H
  C13      1.0000 0.28270  0.79230  0.20880  Biso   1.000  C
  H13      1.0000 0.30620  0.82190  0.22920  Biso   1.000  H
  C14      1.0000 0.28350  0.79430  0.14810  Biso   1.000  C
  H14      1.0000 0.30670  0.82590  0.12880  Biso   1.000  H
  C15      1.0000 0.28760  0.77610  0.95970  Biso   1.000  C
  H15      1.0000 0.31490  0.79350  0.93910  Biso   1.000  H
  C16      1.0000 0.28910  0.77920  0.02000  Biso   1.000  C
  H16      1.0000 0.31610  0.80070  0.03900  Biso   1.000  H
  P9       1.0000 0.00874  0.68806  0.23753  Biso   1.000  P
  P10      1.0000 0.13133  0.28090  0.15649  Biso   1.000  P
  P11      1.0000 0.86684  0.29691  0.16524  Biso   1.000  P
  P12      1.0000 0.00210  0.43374  0.15993  Biso   1.000  P
  O51      1.0000 0.10382  0.52450  0.17022  Biso   1.000  O
  O52      1.0000 0.06001  0.53270  0.05564  Biso   1.000  O
  O53      1.0000 0.99807  0.23970  0.10900  Biso   1.000  O
  O54      1.0000 0.90266  0.53690  0.17692  Biso   1.000  O
  O55      1.0000 0.94204  0.54010  0.06003  Biso   1.000  O
  O56      1.0000 0.09850  0.37590  0.03410  Biso   1.000  O
  O57      1.0000 0.00262  0.52870  0.15312  Biso   1.000  O
  O58      1.0000 0.99794  0.37270  0.02391  Biso   1.000  O
  O59      1.0000 0.09601  0.24510  0.11198  Biso   1.000  O
  O60      1.0000 0.89893  0.38770  0.04161  Biso   1.000  O
  O61      1.0000 0.10616  0.28020  0.21843  Biso   1.000  O
  O62      1.0000 0.00630  0.41740  0.22614  Biso   1.000  O
  O63      1.0000 0.90240  0.25740  0.12222  Biso   1.000  O
  O64      1.0000 0.89006  0.29760  0.22770  Biso   1.000  O
  O65      1.0000 0.14261  0.37310  0.14461  Biso   1.000  O
  O66      1.0000 0.85537  0.38810  0.14929  Biso   1.000  O
  O67      1.0000 0.00438  0.66780  0.09899  Biso   1.000  O
  O68      1.0000 0.95542  0.39920  0.13406  Biso   1.000  O
  O69      1.0000 0.01897  0.77970  0.24380  Biso   1.000  O
  O70      1.0000 0.05200  0.64910  0.20677  Biso   1.000  O
  O71      1.0000 0.82219  0.24480  0.16868  Biso   1.000  O
  O72      1.0000 0.17671  0.22930  0.15887  Biso   1.000  O
  O73      1.0000 0.96058  0.66890  0.20816  Biso   1.000  O
  O74      1.0000 0.04529  0.39530  0.12784  Biso   1.000  O
  O75      1.0000 0.00713  0.64680  0.29980  Biso   1.000  O
  Mo13     1.0000 0.95062  0.29852  0.06185  Biso   1.000  Mo
  Mo14     1.0000 0.89014  0.48202  0.10343  Biso   1.000  Mo
  Mo15     1.0000 0.93991  0.61389  0.12986  Biso   1.000  Mo
  Mo16     1.0000 0.06707  0.60497  0.12563  Biso   1.000  Mo
  Mo17     1.0000 0.11094  0.46858  0.09630  Biso   1.000  Mo
  Mo18     1.0000 0.04432  0.29220  0.05729  Biso   1.000  Mo
  C17      1.0000 0.22260  0.19770  0.28170  Biso   1.000  C
  H17      1.0000 0.20300  0.16060  0.26140  Biso   1.000  H
  C18      1.0000 0.22180  0.19600  0.34250  Biso   1.000  C
  H18      1.0000 0.20210  0.15800  0.36180  Biso   1.000  H
  C19      1.0000 0.21560  0.21170  0.53070  Biso   1.000  C
  H19      1.0000 0.19110  0.18430  0.55100  Biso   1.000  H
  C20      1.0000 0.21410  0.21020  0.47100  Biso   1.000  C
  H20      1.0000 0.18910  0.18260  0.45180  Biso   1.000  H
  C21      1.0000 0.78270  0.20770  0.29120  Biso   1.000  C
  H21      1.0000 0.80620  0.17810  0.27080  Biso   1.000  H
  C22      1.0000 0.78350  0.20570  0.35190  Biso   1.000  C
  H22      1.0000 0.80670  0.17410  0.37120  Biso   1.000  H
  C23      1.0000 0.78760  0.22390  0.54030  Biso   1.000  C
  H23      1.0000 0.81490  0.20650  0.56090  Biso   1.000  H
  C24      1.0000 0.78910  0.22080  0.48000  Biso   1.000  C
  H24      1.0000 0.81610  0.19930  0.46100  Biso   1.000  H
  P13      1.0000 0.49126  0.81194  0.23753  Biso   1.000  P
  P14      1.0000 0.36867  0.21910  0.15649  Biso   1.000  P
  P15      1.0000 0.63316  0.20309  0.16524  Biso   1.000  P
  P16      1.0000 0.49790  0.06626  0.15993  Biso   1.000  P
  O76      1.0000 0.39618  0.97550  0.17022  Biso   1.000  O
  O77      1.0000 0.43999  0.96730  0.05564  Biso   1.000  O
  O78      1.0000 0.50193  0.26030  0.10900  Biso   1.000  O
  O79      1.0000 0.59734  0.96310  0.17692  Biso   1.000  O
  O80      1.0000 0.55796  0.95990  0.06003  Biso   1.000  O
  O81      1.0000 0.40150  0.12410  0.03410  Biso   1.000  O
  O82      1.0000 0.49738  0.97130  0.15312  Biso   1.000  O
  O83      1.0000 0.50206  0.12730  0.02391  Biso   1.000  O
  O84      1.0000 0.40399  0.25490  0.11198  Biso   1.000  O
  O85      1.0000 0.60107  0.11230  0.04161  Biso   1.000  O
  O86      1.0000 0.39384  0.21980  0.21843  Biso   1.000  O
  O87      1.0000 0.49370  0.08260  0.22614  Biso   1.000  O
  O88      1.0000 0.59760  0.24260  0.12222  Biso   1.000  O
  O89      1.0000 0.60994  0.20240  0.22770  Biso   1.000  O
  O90      1.0000 0.35739  0.12690  0.14461  Biso   1.000  O
  O91      1.0000 0.64463  0.11190  0.14929  Biso   1.000  O
  O92      1.0000 0.49562  0.83220  0.09899  Biso   1.000  O
  O93      1.0000 0.54458  0.10080  0.13406  Biso   1.000  O
  O94      1.0000 0.48103  0.72030  0.24380  Biso   1.000  O
  O95      1.0000 0.44800  0.85090  0.20677  Biso   1.000  O
  O96      1.0000 0.67781  0.25520  0.16868  Biso   1.000  O
  O97      1.0000 0.32329  0.27070  0.15887  Biso   1.000  O
  O98      1.0000 0.53942  0.83110  0.20816  Biso   1.000  O
  O99      1.0000 0.45471  0.10470  0.12784  Biso   1.000  O
  O100     1.0000 0.49287  0.85320  0.29980  Biso   1.000  O
  Mo19     1.0000 0.54938  0.20148  0.06185  Biso   1.000  Mo
  Mo20     1.0000 0.60986  0.01798  0.10343  Biso   1.000  Mo
  Mo21     1.0000 0.56009  0.88611  0.12986  Biso   1.000  Mo
  Mo22     1.0000 0.43293  0.89503  0.12563  Biso   1.000  Mo
  Mo23     1.0000 0.38906  0.03142  0.09630  Biso   1.000  Mo
  Mo24     1.0000 0.45568  0.20780  0.05729  Biso   1.000  Mo
  C25      1.0000 0.27740  0.30230  0.28170  Biso   1.000  C
  H25      1.0000 0.29700  0.33940  0.26140  Biso   1.000  H
  C26      1.0000 0.27820  0.30400  0.34250  Biso   1.000  C
  H26      1.0000 0.29790  0.34200  0.36180  Biso   1.000  H
  C27      1.0000 0.28440  0.28830  0.53070  Biso   1.000  C
  H27      1.0000 0.30890  0.31570  0.55100  Biso   1.000  H
  C28      1.0000 0.28590  0.28980  0.47100  Biso   1.000  C
  H28      1.0000 0.31090  0.31740  0.45180  Biso   1.000  H
  C29      1.0000 0.71730  0.29230  0.29120  Biso   1.000  C
  H29      1.0000 0.69380  0.32190  0.27080  Biso   1.000  H
  C30      1.0000 0.71650  0.29430  0.35190  Biso   1.000  C
  H30      1.0000 0.69330  0.32590  0.37120  Biso   1.000  H
  C31      1.0000 0.71240  0.27610  0.54030  Biso   1.000  C
  H31      1.0000 0.68510  0.29350  0.56090  Biso   1.000  H
  C32      1.0000 0.71090  0.27920  0.48000  Biso   1.000  C
  H32      1.0000 0.68390  0.30070  0.46100  Biso   1.000  H
  P17      1.0000 0.00874  0.81194  0.73753  Biso   1.000  P
  P18      1.0000 0.13133  0.21910  0.65649  Biso   1.000  P
  P19      1.0000 0.86684  0.20309  0.66524  Biso   1.000  P
  P20      1.0000 0.00210  0.06626  0.65993  Biso   1.000  P
  O101     1.0000 0.10382  0.97550  0.67022  Biso   1.000  O
  O102     1.0000 0.06001  0.96730  0.55564  Biso   1.000  O
  O103     1.0000 0.99807  0.26030  0.60900  Biso   1.000  O
  O104     1.0000 0.90266  0.96310  0.67692  Biso   1.000  O
  O105     1.0000 0.94204  0.95990  0.56003  Biso   1.000  O
  O106     1.0000 0.09850  0.12410  0.53410  Biso   1.000  O
  O107     1.0000 0.00262  0.97130  0.65312  Biso   1.000  O
  O108     1.0000 0.99794  0.12730  0.52391  Biso   1.000  O
  O109     1.0000 0.09601  0.25490  0.61198  Biso   1.000  O
  O110     1.0000 0.89893  0.11230  0.54161  Biso   1.000  O
  O111     1.0000 0.10616  0.21980  0.71843  Biso   1.000  O
  O112     1.0000 0.00630  0.08260  0.72614  Biso   1.000  O
  O113     1.0000 0.90240  0.24260  0.62222  Biso   1.000  O
  O114     1.0000 0.89006  0.20240  0.72770  Biso   1.000  O
  O115     1.0000 0.14261  0.12690  0.64461  Biso   1.000  O
  O116     1.0000 0.85537  0.11190  0.64929  Biso   1.000  O
  O117     1.0000 0.00438  0.83220  0.59899  Biso   1.000  O
  O118     1.0000 0.95542  0.10080  0.63406  Biso   1.000  O
  O119     1.0000 0.01897  0.72030  0.74380  Biso   1.000  O
  O120     1.0000 0.05200  0.85090  0.70677  Biso   1.000  O
  O121     1.0000 0.82219  0.25520  0.66868  Biso   1.000  O
  O122     1.0000 0.17671  0.27070  0.65887  Biso   1.000  O
  O123     1.0000 0.96058  0.83110  0.70816  Biso   1.000  O
  O124     1.0000 0.04529  0.10470  0.62784  Biso   1.000  O
  O125     1.0000 0.00713  0.85320  0.79980  Biso   1.000  O
  Mo25     1.0000 0.95062  0.20148  0.56185  Biso   1.000  Mo
  Mo26     1.0000 0.89014  0.01798  0.60343  Biso   1.000  Mo
  Mo27     1.0000 0.93991  0.88611  0.62986  Biso   1.000  Mo
  Mo28     1.0000 0.06707  0.89503  0.62563  Biso   1.000  Mo
  Mo29     1.0000 0.11094  0.03142  0.59630  Biso   1.000  Mo
  Mo30     1.0000 0.04432  0.20780  0.55729  Biso   1.000  Mo
  C33      1.0000 0.22260  0.30230  0.78170  Biso   1.000  C
  H33      1.0000 0.20300  0.33940  0.76140  Biso   1.000  H
  C34      1.0000 0.22180  0.30400  0.84250  Biso   1.000  C
  H34      1.0000 0.20210  0.34200  0.86180  Biso   1.000  H
  C35      1.0000 0.21560  0.28830  0.03070  Biso   1.000  C
  H35      1.0000 0.19110  0.31570  0.05100  Biso   1.000  H
  C36      1.0000 0.21410  0.28980  0.97100  Biso   1.000  C
  H36      1.0000 0.18910  0.31740  0.95180  Biso   1.000  H
  C37      1.0000 0.78270  0.29230  0.79120  Biso   1.000  C
  H37      1.0000 0.80620  0.32190  0.77080  Biso   1.000  H
  C38      1.0000 0.78350  0.29430  0.85190  Biso   1.000  C
  H38      1.0000 0.80670  0.32590  0.87120  Biso   1.000  H
  C39      1.0000 0.78760  0.27610  0.04030  Biso   1.000  C
  H39      1.0000 0.81490  0.29350  0.06090  Biso   1.000  H
  C40      1.0000 0.78910  0.27920  0.98000  Biso   1.000  C
  H40      1.0000 0.81610  0.30070  0.96100  Biso   1.000  H
  P21      1.0000 0.49126  0.68806  0.73753  Biso   1.000  P
  P22      1.0000 0.36867  0.28090  0.65649  Biso   1.000  P
  P23      1.0000 0.63316  0.29691  0.66524  Biso   1.000  P
  P24      1.0000 0.49790  0.43374  0.65993  Biso   1.000  P
  O126     1.0000 0.39618  0.52450  0.67022  Biso   1.000  O
  O127     1.0000 0.43999  0.53270  0.55564  Biso   1.000  O
  O128     1.0000 0.50193  0.23970  0.60900  Biso   1.000  O
  O129     1.0000 0.59734  0.53690  0.67692  Biso   1.000  O
  O130     1.0000 0.55796  0.54010  0.56003  Biso   1.000  O
  O131     1.0000 0.40150  0.37590  0.53410  Biso   1.000  O
  O132     1.0000 0.49738  0.52870  0.65312  Biso   1.000  O
  O133     1.0000 0.50206  0.37270  0.52391  Biso   1.000  O
  O134     1.0000 0.40399  0.24510  0.61198  Biso   1.000  O
  O135     1.0000 0.60107  0.38770  0.54161  Biso   1.000  O
  O136     1.0000 0.39384  0.28020  0.71843  Biso   1.000  O
  O137     1.0000 0.49370  0.41740  0.72614  Biso   1.000  O
  O138     1.0000 0.59760  0.25740  0.62222  Biso   1.000  O
  O139     1.0000 0.60994  0.29760  0.72770  Biso   1.000  O
  O140     1.0000 0.35739  0.37310  0.64461  Biso   1.000  O
  O141     1.0000 0.64463  0.38810  0.64929  Biso   1.000  O
  O142     1.0000 0.49562  0.66780  0.59899  Biso   1.000  O
  O143     1.0000 0.54458  0.39920  0.63406  Biso   1.000  O
  O144     1.0000 0.48103  0.77970  0.74380  Biso   1.000  O
  O145     1.0000 0.44800  0.64910  0.70677  Biso   1.000  O
  O146     1.0000 0.67781  0.24480  0.66868  Biso   1.000  O
  O147     1.0000 0.32329  0.22930  0.65887  Biso   1.000  O
  O148     1.0000 0.53942  0.66890  0.70816  Biso   1.000  O
  O149     1.0000 0.45471  0.39530  0.62784  Biso   1.000  O
  O150     1.0000 0.49287  0.64680  0.79980  Biso   1.000  O
  Mo31     1.0000 0.54938  0.29852  0.56185  Biso   1.000  Mo
  Mo32     1.0000 0.60986  0.48202  0.60343  Biso   1.000  Mo
  Mo33     1.0000 0.56009  0.61389  0.62986  Biso   1.000  Mo
  Mo34     1.0000 0.43293  0.60497  0.62563  Biso   1.000  Mo
  Mo35     1.0000 0.38906  0.46858  0.59630  Biso   1.000  Mo
  Mo36     1.0000 0.45568  0.29220  0.55729  Biso   1.000  Mo
  C41      1.0000 0.27740  0.19770  0.78170  Biso   1.000  C
  H41      1.0000 0.29700  0.16060  0.76140  Biso   1.000  H
  C42      1.0000 0.27820  0.19600  0.84250  Biso   1.000  C
  H42      1.0000 0.29790  0.15800  0.86180  Biso   1.000  H
  C43      1.0000 0.28440  0.21170  0.03070  Biso   1.000  C
  H43      1.0000 0.30890  0.18430  0.05100  Biso   1.000  H
  C44      1.0000 0.28590  0.21020  0.97100  Biso   1.000  C
  H44      1.0000 0.31090  0.18260  0.95180  Biso   1.000  H
  C45      1.0000 0.71730  0.20770  0.79120  Biso   1.000  C
  H45      1.0000 0.69380  0.17810  0.77080  Biso   1.000  H
  C46      1.0000 0.71650  0.20570  0.85190  Biso   1.000  C
  H46      1.0000 0.69330  0.17410  0.87120  Biso   1.000  H
  C47      1.0000 0.71240  0.22390  0.04030  Biso   1.000  C
  H47      1.0000 0.68510  0.20650  0.06090  Biso   1.000  H
  C48      1.0000 0.71090  0.22080  0.98000  Biso   1.000  C
  H48      1.0000 0.68390  0.19930  0.96100  Biso   1.000  H
  P25      1.0000 0.99126  0.31194  0.76247  Biso   1.000  P
  P26      1.0000 0.86867  0.71910  0.84351  Biso   1.000  P
  P27      1.0000 0.13316  0.70309  0.83476  Biso   1.000  P
  P28      1.0000 0.99790  0.56626  0.84007  Biso   1.000  P
  O151     1.0000 0.89618  0.47550  0.82978  Biso   1.000  O
  O152     1.0000 0.93999  0.46730  0.94436  Biso   1.000  O
  O153     1.0000 0.00193  0.76030  0.89100  Biso   1.000  O
  O154     1.0000 0.09734  0.46310  0.82308  Biso   1.000  O
  O155     1.0000 0.05796  0.45990  0.93997  Biso   1.000  O
  O156     1.0000 0.90150  0.62410  0.96590  Biso   1.000  O
  O157     1.0000 0.99738  0.47130  0.84688  Biso   1.000  O
  O158     1.0000 0.00206  0.62730  0.97609  Biso   1.000  O
  O159     1.0000 0.90399  0.75490  0.88802  Biso   1.000  O
  O160     1.0000 0.10107  0.61230  0.95839  Biso   1.000  O
  O161     1.0000 0.89384  0.71980  0.78157  Biso   1.000  O
  O162     1.0000 0.99370  0.58260  0.77386  Biso   1.000  O
  O163     1.0000 0.09760  0.74260  0.87778  Biso   1.000  O
  O164     1.0000 0.10994  0.70240  0.77230  Biso   1.000  O
  O165     1.0000 0.85739  0.62690  0.85539  Biso   1.000  O
  O166     1.0000 0.14463  0.61190  0.85071  Biso   1.000  O
  O167     1.0000 0.99562  0.33220  0.90101  Biso   1.000  O
  O168     1.0000 0.04458  0.60080  0.86594  Biso   1.000  O
  O169     1.0000 0.98103  0.22030  0.75620  Biso   1.000  O
  O170     1.0000 0.94800  0.35090  0.79323  Biso   1.000  O
  O171     1.0000 0.17781  0.75520  0.83132  Biso   1.000  O
  O172     1.0000 0.82329  0.77070  0.84113  Biso   1.000  O
  O173     1.0000 0.03942  0.33110  0.79184  Biso   1.000  O
  O174     1.0000 0.95471  0.60470  0.87216  Biso   1.000  O
  O175     1.0000 0.99287  0.35320  0.70020  Biso   1.000  O
  Mo37     1.0000 0.04938  0.70148  0.93815  Biso   1.000  Mo
  Mo38     1.0000 0.10986  0.51798  0.89657  Biso   1.000  Mo
  Mo39     1.0000 0.06009  0.38611  0.87014  Biso   1.000  Mo
  Mo40     1.0000 0.93293  0.39503  0.87437  Biso   1.000  Mo
  Mo41     1.0000 0.88906  0.53142  0.90370  Biso   1.000  Mo
  Mo42     1.0000 0.95568  0.70780  0.94271  Biso   1.000  Mo
  C49      1.0000 0.77740  0.80230  0.71830  Biso   1.000  C
  H49      1.0000 0.79700  0.83940  0.73860  Biso   1.000  H
  C50      1.0000 0.77820  0.80400  0.65750  Biso   1.000  C
  H50      1.0000 0.79790  0.84200  0.63820  Biso   1.000  H
  C51      1.0000 0.78440  0.78830  0.46930  Biso   1.000  C
  H51      1.0000 0.80890  0.81570  0.44900  Biso   1.000  H
  C52      1.0000 0.78590  0.78980  0.52900  Biso   1.000  C
  H52      1.0000 0.81090  0.81740  0.54820  Biso   1.000  H
  C53      1.0000 0.21730  0.79230  0.70880  Biso   1.000  C
  H53      1.0000 0.19380  0.82190  0.72920  Biso   1.000  H
  C54      1.0000 0.21650  0.79430  0.64810  Biso   1.000  C
  H54      1.0000 0.19330  0.82590  0.62880  Biso   1.000  H
  C55      1.0000 0.21240  0.77610  0.45970  Biso   1.000  C
  H55      1.0000 0.18510  0.79350  0.43910  Biso   1.000  H
  C56      1.0000 0.21090  0.77920  0.52000  Biso   1.000  C
  H56      1.0000 0.18390  0.80070  0.53900  Biso   1.000  H
  P29      1.0000 0.50874  0.18806  0.76247  Biso   1.000  P
  P30      1.0000 0.63133  0.78090  0.84351  Biso   1.000  P
  P31      1.0000 0.36684  0.79691  0.83476  Biso   1.000  P
  P32      1.0000 0.50210  0.93374  0.84007  Biso   1.000  P
  O176     1.0000 0.60382  0.02450  0.82978  Biso   1.000  O
  O177     1.0000 0.56001  0.03270  0.94436  Biso   1.000  O
  O178     1.0000 0.49807  0.73970  0.89100  Biso   1.000  O
  O179     1.0000 0.40266  0.03690  0.82308  Biso   1.000  O
  O180     1.0000 0.44204  0.04010  0.93997  Biso   1.000  O
  O181     1.0000 0.59850  0.87590  0.96590  Biso   1.000  O
  O182     1.0000 0.50262  0.02870  0.84688  Biso   1.000  O
  O183     1.0000 0.49794  0.87270  0.97609  Biso   1.000  O
  O184     1.0000 0.59601  0.74510  0.88802  Biso   1.000  O
  O185     1.0000 0.39893  0.88770  0.95839  Biso   1.000  O
  O186     1.0000 0.60616  0.78020  0.78157  Biso   1.000  O
  O187     1.0000 0.50630  0.91740  0.77386  Biso   1.000  O
  O188     1.0000 0.40240  0.75740  0.87778  Biso   1.000  O
  O189     1.0000 0.39006  0.79760  0.77230  Biso   1.000  O
  O190     1.0000 0.64261  0.87310  0.85539  Biso   1.000  O
  O191     1.0000 0.35537  0.88810  0.85071  Biso   1.000  O
  O192     1.0000 0.50438  0.16780  0.90101  Biso   1.000  O
  O193     1.0000 0.45542  0.89920  0.86594  Biso   1.000  O
  O194     1.0000 0.51897  0.27970  0.75620  Biso   1.000  O
  O195     1.0000 0.55200  0.14910  0.79323  Biso   1.000  O
  O196     1.0000 0.32219  0.74480  0.83132  Biso   1.000  O
  O197     1.0000 0.67671  0.72930  0.84113  Biso   1.000  O
  O198     1.0000 0.46058  0.16890  0.79184  Biso   1.000  O
  O199     1.0000 0.54529  0.89530  0.87216  Biso   1.000  O
  O200     1.0000 0.50713  0.14680  0.70020  Biso   1.000  O
  Mo43     1.0000 0.45062  0.79852  0.93815  Biso   1.000  Mo
  Mo44     1.0000 0.39014  0.98202  0.89657  Biso   1.000  Mo
  Mo45     1.0000 0.43991  0.11389  0.87014  Biso   1.000  Mo
  Mo46     1.0000 0.56707  0.10497  0.87437  Biso   1.000  Mo
  Mo47     1.0000 0.61094  0.96858  0.90370  Biso   1.000  Mo
  Mo48     1.0000 0.54432  0.79220  0.94271  Biso   1.000  Mo
  C57      1.0000 0.72260  0.69770  0.71830  Biso   1.000  C
  H57      1.0000 0.70300  0.66060  0.73860  Biso   1.000  H
  C58      1.0000 0.72180  0.69600  0.65750  Biso   1.000  C
  H58      1.0000 0.70210  0.65800  0.63820  Biso   1.000  H
  C59      1.0000 0.71560  0.71170  0.46930  Biso   1.000  C
  H59      1.0000 0.69110  0.68430  0.44900  Biso   1.000  H
  C60      1.0000 0.71410  0.71020  0.52900  Biso   1.000  C
  H60      1.0000 0.68910  0.68260  0.54820  Biso   1.000  H
  C61      1.0000 0.28270  0.70770  0.70880  Biso   1.000  C
  H61      1.0000 0.30620  0.67810  0.72920  Biso   1.000  H
  C62      1.0000 0.28350  0.70570  0.64810  Biso   1.000  C
  H62      1.0000 0.30670  0.67410  0.62880  Biso   1.000  H
  C63      1.0000 0.28760  0.72390  0.45970  Biso   1.000  C
  H63      1.0000 0.31490  0.70650  0.43910  Biso   1.000  H
  C64      1.0000 0.28910  0.72080  0.52000  Biso   1.000  C
  H64      1.0000 0.31610  0.69930  0.53900  Biso   1.000  H
  Co1      1.0000 0.00000  0.00000  0.50000  Biso   1.000  Co
  Co2      1.0000 0.50000  0.50000  0.50000  Biso   1.000  Co
  Co3      1.0000 0.00000  0.50000  0.00000  Biso   1.000  Co
  Co4      1.0000 0.50000  0.00000  0.00000  Biso   1.000  Co
  C65      1.0000 0.75000  0.75000  0.12610  Biso   1.000  C
  C66      1.0000 0.75000  0.75000  0.06080  Biso   1.000  C
  N1       1.0000 0.75000  0.75000  0.24840  Biso   1.000  N
  N2       1.0000 0.75000  0.75000  0.93820  Biso   1.000  N
  Co5      1.0000 0.75000  0.75000  0.34270  Biso   1.000  Co
  C67      1.0000 0.25000  0.25000  0.37390  Biso   1.000  C
  C68      1.0000 0.25000  0.25000  0.43920  Biso   1.000  C
  N3       1.0000 0.25000  0.25000  0.25160  Biso   1.000  N
  N4       1.0000 0.25000  0.25000  0.56180  Biso   1.000  N
  Co6      1.0000 0.25000  0.25000  0.15730  Biso   1.000  Co
  C69      1.0000 0.25000  0.25000  0.87390  Biso   1.000  C
  C70      1.0000 0.25000  0.25000  0.93920  Biso   1.000  C
  N5       1.0000 0.25000  0.25000  0.75160  Biso   1.000  N
  N6       1.0000 0.25000  0.25000  0.06180  Biso   1.000  N
  Co7      1.0000 0.25000  0.25000  0.65730  Biso   1.000  Co
  C71      1.0000 0.75000  0.75000  0.62610  Biso   1.000  C
  C72      1.0000 0.75000  0.75000  0.56080  Biso   1.000  C
  N7       1.0000 0.75000  0.75000  0.74840  Biso   1.000  N
  N8       1.0000 0.75000  0.75000  0.43820  Biso   1.000  N
  Co8      1.0000 0.75000  0.75000  0.84270  Biso   1.000  Co
  C73      1.0000 0.25000  0.75000  0.11650  Biso   1.000  C
  C74      1.0000 0.25000  0.75000  0.05190  Biso   1.000  C
  N9       1.0000 0.25000  0.75000  0.23860  Biso   1.000  N
  N10      1.0000 0.25000  0.75000  0.92950  Biso   1.000  N
  Co9      1.0000 0.25000  0.75000  0.33347  Biso   1.000  Co
  C75      1.0000 0.75000  0.25000  0.38350  Biso   1.000  C
  C76      1.0000 0.75000  0.25000  0.44810  Biso   1.000  C
  N11      1.0000 0.75000  0.25000  0.26140  Biso   1.000  N
  N12      1.0000 0.75000  0.25000  0.57050  Biso   1.000  N
  Co10     1.0000 0.75000  0.25000  0.16653  Biso   1.000  Co
  C77      1.0000 0.75000  0.25000  0.88350  Biso   1.000  C
  C78      1.0000 0.75000  0.25000  0.94810  Biso   1.000  C
  N13      1.0000 0.75000  0.25000  0.76140  Biso   1.000  N
  N14      1.0000 0.75000  0.25000  0.07050  Biso   1.000  N
  Co11     1.0000 0.75000  0.25000  0.66653  Biso   1.000  Co
  C79      1.0000 0.25000  0.75000  0.61650  Biso   1.000  C
  C80      1.0000 0.25000  0.75000  0.55190  Biso   1.000  C
  N15      1.0000 0.25000  0.75000  0.73860  Biso   1.000  N
  N16      1.0000 0.25000  0.75000  0.42950  Biso   1.000  N
  Co12     1.0000 0.25000  0.75000  0.83347  Biso   1.000  Co
