data_image0
_cell_length_a       12.806
_cell_length_b       13.809
_cell_length_c       14.508
_cell_angle_alpha    113.57
_cell_angle_beta     96.71
_cell_angle_gamma    106.21

_symmetry_space_group_name_H-M    "P 1"
_symmetry_int_tables_number       1

loop_
  _symmetry_equiv_pos_as_xyz
  'x, y, z'

loop_
  _atom_site_label
  _atom_site_occupancy
  _atom_site_fract_x
  _atom_site_fract_y
  _atom_site_fract_z
  _atom_site_thermal_displace_type
  _atom_site_B_iso_or_equiv
  _atom_site_type_symbol
  Mo1      1.0000 0.05688  0.42496  0.22506  Biso   1.000  Mo
  Mo2      1.0000 0.84710  0.40609  0.21016  Biso   1.000  Mo
  P1       1.0000 0.02902  0.68339  0.35205  Biso   1.000  P
  P2       1.0000 0.87117  0.98745  0.36648  Biso   1.000  P
  P3       1.0000 0.28039  0.59716  0.20117  Biso   1.000  P
  P4       1.0000 0.68275  0.53818  0.15644  Biso   1.000  P
  O1       1.0000 0.23530  0.68550  0.18050  Biso   1.000  O
  O2       1.0000 0.56050  0.48710  0.08940  Biso   1.000  O
  O3       1.0000 0.83780  0.87740  0.26790  Biso   1.000  O
  O4       1.0000 0.05600  0.75460  0.47130  Biso   1.000  O
  O5       1.0000 0.04710  0.75460  0.29550  Biso   1.000  O
  O6       1.0000 0.78480  0.04440  0.36570  Biso   1.000  O
  O7       1.0000 0.36700  0.58090  0.14280  Biso   1.000  O
  O8       1.0000 0.86970  0.96480  0.46340  Biso   1.000  O
  O9       1.0000 0.32980  0.65010  0.31870  Biso   1.000  O
  O10      1.0000 0.71000  0.19150  0.51330  Biso   1.000  O
  O11      1.0000 0.74740  0.63360  0.13630  Biso   1.000  O
  O12      1.0000 0.90530  0.59810  0.31350  Biso   1.000  O
  O13      1.0000 0.67700  0.57840  0.27130  Biso   1.000  O
  O14      1.0000 0.99020  0.06550  0.38180  Biso   1.000  O
  O15      1.0000 0.95300  0.45190  0.13770  Biso   1.000  O
  O16      1.0000 0.73260  0.44350  0.12900  Biso   1.000  O
  O17      1.0000 0.17840  0.48780  0.16100  Biso   1.000  O
  O18      1.0000 0.10800  0.61410  0.33110  Biso   1.000  O
  O19      1.0000 0.19460  0.47430  0.34930  Biso   1.000  O
  O20      1.0000 0.75130  0.43210  0.31990  Biso   1.000  O
  O21      1.0000 0.10860  0.39660  0.49280  Biso   1.000  O
  O22      1.0000 0.92100  0.21770  0.33910  Biso   1.000  O
  O23      1.0000 0.96200  0.41720  0.32100  Biso   1.000  O
  O24      1.0000 0.16470  0.23580  0.54650  Biso   1.000  O
  O25      1.0000 0.83430  0.36820  0.46890  Biso   1.000  O
  C1       1.0000 0.30680  0.27480  0.03490  Biso   1.000  C
  H1       1.0000 0.31390  0.35050  0.06310  Biso   1.000  H
  C2       1.0000 0.24020  0.20580  0.06920  Biso   1.000  C
  H2       1.0000 0.20370  0.23490  0.11970  Biso   1.000  H
  C3       1.0000 0.22830  0.09170  0.02720  Biso   1.000  C
  C4       1.0000 0.27940  0.05200  0.94820  Biso   1.000  C
  H3       1.0000 0.26970  0.97570  0.91490  Biso   1.000  H
  C5       1.0000 0.34530  0.12810  0.91960  Biso   1.000  C
  H4       1.0000 0.37970  0.10010  0.86700  Biso   1.000  H
  C6       1.0000 0.10390  0.84390  0.08180  Biso   1.000  C
  H5       1.0000 0.11380  0.77620  0.07070  Biso   1.000  H
  C7       1.0000 0.17290  0.91460  0.05070  Biso   1.000  C
  H6       1.0000 0.22890  0.89520  0.02050  Biso   1.000  H
  C8       1.0000 0.15800  0.01520  0.06490  Biso   1.000  C
  C9       1.0000 0.07590  0.04110  0.11300  Biso   1.000  C
  H7       1.0000 0.06350  0.10770  0.12410  Biso   1.000  H
  Cd1      1.0000 0.91520  0.75344  0.18480  Biso   1.000  Cd
  Cd2      1.0000 0.51195  0.63929  0.08284  Biso   1.000  Cd
  C10      1.0000 0.01170  0.96650  0.14460  Biso   1.000  C
  H8       1.0000 0.95850  0.98610  0.17940  Biso   1.000  H
  N1       1.0000 0.36260  0.23670  0.96150  Biso   1.000  N
  N2       1.0000 0.02330  0.86830  0.12720  Biso   1.000  N
  Mo3      1.0000 0.73082  0.34951  0.55473  Biso   1.000  Mo
  Mo4      1.0000 0.78567  0.20238  0.40624  Biso   1.000  Mo
  Mo5      1.0000 0.07093  0.23276  0.42877  Biso   1.000  Mo
  Mo6      1.0000 0.22675  0.39764  0.59198  Biso   1.000  Mo
  Mo7      1.0000 0.94312  0.57504  0.77494  Biso   1.000  Mo
  Mo8      1.0000 0.15290  0.59391  0.78984  Biso   1.000  Mo
  P5       1.0000 0.97098  0.31661  0.64795  Biso   1.000  P
  P6       1.0000 0.12883  0.01255  0.63352  Biso   1.000  P
  P7       1.0000 0.71961  0.40284  0.79883  Biso   1.000  P
  P8       1.0000 0.31725  0.46182  0.84356  Biso   1.000  P
  O26      1.0000 0.76470  0.31450  0.81950  Biso   1.000  O
  O27      1.0000 0.43950  0.51290  0.91060  Biso   1.000  O
  O28      1.0000 0.16220  0.12260  0.73210  Biso   1.000  O
  O29      1.0000 0.94400  0.24540  0.52870  Biso   1.000  O
  O30      1.0000 0.95290  0.24540  0.70450  Biso   1.000  O
  O31      1.0000 0.21520  0.95560  0.63430  Biso   1.000  O
  O32      1.0000 0.63300  0.41910  0.85720  Biso   1.000  O
  O33      1.0000 0.13030  0.03520  0.53660  Biso   1.000  O
  O34      1.0000 0.67020  0.34990  0.68130  Biso   1.000  O
  O35      1.0000 0.29000  0.80850  0.48670  Biso   1.000  O
  O36      1.0000 0.25260  0.36640  0.86370  Biso   1.000  O
  O37      1.0000 0.09470  0.40190  0.68650  Biso   1.000  O
  O38      1.0000 0.32300  0.42160  0.72870  Biso   1.000  O
  O39      1.0000 0.00980  0.93450  0.61820  Biso   1.000  O
  O40      1.0000 0.04700  0.54810  0.86230  Biso   1.000  O
  O41      1.0000 0.26740  0.55650  0.87100  Biso   1.000  O
  O42      1.0000 0.82160  0.51220  0.83900  Biso   1.000  O
  O43      1.0000 0.89200  0.38590  0.66890  Biso   1.000  O
  O44      1.0000 0.80540  0.52570  0.65070  Biso   1.000  O
  O45      1.0000 0.24870  0.56790  0.68010  Biso   1.000  O
  O46      1.0000 0.89140  0.60340  0.50720  Biso   1.000  O
  O47      1.0000 0.07900  0.78230  0.66090  Biso   1.000  O
  O48      1.0000 0.03800  0.58280  0.67900  Biso   1.000  O
  O49      1.0000 0.83530  0.76420  0.45350  Biso   1.000  O
  O50      1.0000 0.16570  0.63180  0.53110  Biso   1.000  O
  C11      1.0000 0.69320  0.72520  0.96510  Biso   1.000  C
  H9       1.0000 0.68610  0.64950  0.93690  Biso   1.000  H
  C12      1.0000 0.75980  0.79420  0.93080  Biso   1.000  C
  H10      1.0000 0.79630  0.76510  0.88030  Biso   1.000  H
  C13      1.0000 0.77170  0.90830  0.97280  Biso   1.000  C
  C14      1.0000 0.72060  0.94800  0.05180  Biso   1.000  C
  H11      1.0000 0.73030  0.02430  0.08510  Biso   1.000  H
  C15      1.0000 0.65470  0.87190  0.08040  Biso   1.000  C
  H12      1.0000 0.62030  0.89990  0.13300  Biso   1.000  H
  C16      1.0000 0.89610  0.15610  0.91820  Biso   1.000  C
  H13      1.0000 0.88620  0.22380  0.92930  Biso   1.000  H
  C17      1.0000 0.82710  0.08540  0.94930  Biso   1.000  C
  H14      1.0000 0.77110  0.10480  0.97950  Biso   1.000  H
  C18      1.0000 0.84200  0.98480  0.93510  Biso   1.000  C
  C19      1.0000 0.92410  0.95890  0.88700  Biso   1.000  C
  H15      1.0000 0.93650  0.89230  0.87590  Biso   1.000  H
  Cd3      1.0000 0.08480  0.24656  0.81520  Biso   1.000  Cd
  Cd4      1.0000 0.48805  0.36071  0.91716  Biso   1.000  Cd
  C20      1.0000 0.98830  0.03350  0.85540  Biso   1.000  C
  H16      1.0000 0.04150  0.01390  0.82060  Biso   1.000  H
  N3       1.0000 0.63740  0.76330  0.03850  Biso   1.000  N
  N4       1.0000 0.97670  0.13170  0.87280  Biso   1.000  N
  Mo9      1.0000 0.26918  0.65049  0.44527  Biso   1.000  Mo
  Mo10     1.0000 0.21433  0.79762  0.59376  Biso   1.000  Mo
  Mo11     1.0000 0.92907  0.76724  0.57123  Biso   1.000  Mo
  Mo12     1.0000 0.77325  0.60236  0.40802  Biso   1.000  Mo
  Cd5      1.0000 0.00000  0.50000  0.50000  Biso   1.000  Cd
