data_image0
_cell_length_a       9.3611
_cell_length_b       9.921
_cell_length_c       10.015
_cell_angle_alpha    85.03
_cell_angle_beta     85.81
_cell_angle_gamma    65.09

_symmetry_space_group_name_H-M    "P 1"
_symmetry_int_tables_number       1

loop_
  _symmetry_equiv_pos_as_xyz
  'x, y, z'

loop_
  _atom_site_label
  _atom_site_occupancy
  _atom_site_fract_x
  _atom_site_fract_y
  _atom_site_fract_z
  _atom_site_thermal_displace_type
  _atom_site_B_iso_or_equiv
  _atom_site_type_symbol
  O1       1.0000 0.86880  0.32860  0.25410  Biso   1.000  O
  O2       1.0000 0.45570  0.13380  0.62380  Biso   1.000  O
  Cd1      1.0000 0.56027  0.03946  0.82362  Biso   1.000  Cd
  Ru1      1.0000 0.58025  0.48262  0.58452  Biso   1.000  Ru
  Ru2      1.0000 0.94724  0.45534  0.08826  Biso   1.000  Ru
  O3       1.0000 0.57440  0.28330  0.63450  Biso   1.000  O
  O4       1.0000 0.41450  0.31700  0.46560  Biso   1.000  O
  O5       1.0000 0.76810  0.39380  0.45800  Biso   1.000  O
  O6       1.0000 0.60930  0.42420  0.28870  Biso   1.000  O
  O7       1.0000 0.74350  0.41060  0.75890  Biso   1.000  O
  O8       1.0000 0.12340  0.25180  0.06330  Biso   1.000  O
  O9       1.0000 0.22960  0.34040  0.88820  Biso   1.000  O
  O10      1.0000 0.81530  0.41510  0.96120  Biso   1.000  O
  O11      1.0000 0.92080  0.50150  0.78270  Biso   1.000  O
  O12      1.0000 0.34750  0.10410  0.96880  Biso   1.000  O
  O13      1.0000 0.64640  0.19540  0.91250  Biso   1.000  O
  H1       1.0000 0.61060  0.27910  0.86820  Biso   1.000  H
  H2       1.0000 0.61330  0.20720  0.99380  Biso   1.000  H
  C1       1.0000 0.48170  0.24440  0.57530  Biso   1.000  C
  C2       1.0000 0.75000  0.38170  0.33330  Biso   1.000  C
  C3       1.0000 0.23550  0.23260  0.97230  Biso   1.000  C
  C4       1.0000 0.82650  0.44360  0.83370  Biso   1.000  C
  O14      1.0000 0.13120  0.67140  0.74590  Biso   1.000  O
  O15      1.0000 0.54430  0.86620  0.37620  Biso   1.000  O
  Cd2      1.0000 0.43973  0.96054  0.17638  Biso   1.000  Cd
  Ru3      1.0000 0.41975  0.51738  0.41548  Biso   1.000  Ru
  Ru4      1.0000 0.05276  0.54466  0.91174  Biso   1.000  Ru
  O16      1.0000 0.42560  0.71670  0.36550  Biso   1.000  O
  O17      1.0000 0.58550  0.68300  0.53440  Biso   1.000  O
  O18      1.0000 0.23190  0.60620  0.54200  Biso   1.000  O
  O19      1.0000 0.39070  0.57580  0.71130  Biso   1.000  O
  O20      1.0000 0.25650  0.58940  0.24110  Biso   1.000  O
  O21      1.0000 0.87660  0.74820  0.93670  Biso   1.000  O
  O22      1.0000 0.77040  0.65960  0.11180  Biso   1.000  O
  O23      1.0000 0.18470  0.58490  0.03880  Biso   1.000  O
  O24      1.0000 0.07920  0.49850  0.21730  Biso   1.000  O
  O25      1.0000 0.65250  0.89590  0.03120  Biso   1.000  O
  O26      1.0000 0.35360  0.80460  0.08750  Biso   1.000  O
  H3       1.0000 0.38940  0.72090  0.13180  Biso   1.000  H
  H4       1.0000 0.38670  0.79280  0.00620  Biso   1.000  H
  C5       1.0000 0.51830  0.75560  0.42470  Biso   1.000  C
  C6       1.0000 0.25000  0.61830  0.66670  Biso   1.000  C
  C7       1.0000 0.76450  0.76740  0.02770  Biso   1.000  C
  C8       1.0000 0.17350  0.55640  0.16630  Biso   1.000  C
  K1       1.0000 0.50000  0.50000  0.00000  Biso   1.000  K
  K2       1.0000 0.00000  0.50000  0.50000  Biso   1.000  K
