data_DEYJOI_clean
_audit_creation_date              2014-07-02
_audit_creation_method            'Materials Studio'
_symmetry_space_group_name_H-M    'P1'
_symmetry_Int_Tables_number       1
_symmetry_cell_setting            triclinic
loop_
_symmetry_equiv_pos_as_xyz
  x,y,z
_cell_length_a                    7.7745
_cell_length_b                    11.4635
_cell_length_c                    13.5377
_cell_angle_alpha                 96.8030
_cell_angle_beta                  105.7100
_cell_angle_gamma                 99.2250
loop_
_atom_site_label
_atom_site_type_symbol
_atom_site_fract_x
_atom_site_fract_y
_atom_site_fract_z
_atom_site_U_iso_or_equiv
_atom_site_adp_type
_atom_site_occupancy
V1     V     0.85757   0.67661   0.97477   0.01267  Uiso   1.00
V2     V     0.79445   0.41953   0.86044   0.01267  Uiso   1.00
V3     V     0.14243   0.32339   0.02523   0.01267  Uiso   1.00
V4     V     0.20555   0.58047   0.13956   0.01267  Uiso   1.00
Co1    Co    0.50000   0.50000  -0.00000   0.01267  Uiso   1.00
Co2    Co    0.00000   0.00000   0.00000   0.01267  Uiso   1.00
H1     H     0.07810   0.86390   0.81840   0.01267  Uiso   1.00
H2     H     0.08200   0.87360   0.65130   0.01267  Uiso   1.00
H3     H     0.87290   0.17070   0.66760   0.01267  Uiso   1.00
H4     H     0.86870   0.14880   0.83350   0.01267  Uiso   1.00
H5     H     0.94920   0.10770   0.51050   0.01267  Uiso   1.00
H6     H     0.66330   0.65570   0.21730   0.01267  Uiso   1.00
H7     H     0.81950   0.64200   0.38660   0.01267  Uiso   1.00
H8     H     0.91360   0.32750   0.27340   0.01267  Uiso   1.00
H9     H     0.73080   0.34100   0.11360   0.01267  Uiso   1.00
H10    H     0.05910   0.40570   0.45730   0.01267  Uiso   1.00
H11    H     0.92190   0.13610   0.18160   0.01267  Uiso   1.00
H12    H     0.91800   0.12640   0.34870   0.01267  Uiso   1.00
H13    H     0.12710   0.82930   0.33240   0.01267  Uiso   1.00
H14    H     0.13130   0.85120   0.16650   0.01267  Uiso   1.00
H15    H     0.05080   0.89230   0.48950   0.01267  Uiso   1.00
H16    H     0.33670   0.34430   0.78270   0.01267  Uiso   1.00
H17    H     0.18050   0.35800   0.61340   0.01267  Uiso   1.00
H18    H     0.08640   0.67250   0.72660   0.01267  Uiso   1.00
H19    H     0.26920   0.65900   0.88640   0.01267  Uiso   1.00
H20    H     0.94090   0.59430   0.54270   0.01267  Uiso   1.00
C1     C     0.03610   0.92622   0.78735   0.01267  Uiso   1.00
C2     C     0.03930   0.93157   0.68690   0.01267  Uiso   1.00
C3     C     0.97810   0.02451   0.63882   0.01267  Uiso   1.00
C4     C     0.91470   0.10696   0.69623   0.01267  Uiso   1.00
C5     C     0.91420   0.09375   0.79664   0.01267  Uiso   1.00
C6     C     0.97980   0.03820   0.53305   0.01267  Uiso   1.00
C7     C     0.70910   0.58707   0.23002   0.01267  Uiso   1.00
C8     C     0.80740   0.58070   0.33220   0.01267  Uiso   1.00
C9     C     0.88680   0.48160   0.35140   0.01267  Uiso   1.00
C10    C     0.85910   0.39370   0.26550   0.01267  Uiso   1.00
C11    C     0.75150   0.40360   0.16850   0.01267  Uiso   1.00
C12    C     0.99370   0.46700   0.45466   0.01267  Uiso   1.00
C13    C     0.96390   0.07378   0.21265   0.01267  Uiso   1.00
C14    C     0.96070   0.06843   0.31310   0.01267  Uiso   1.00
C15    C     0.02190   0.97549   0.36118   0.01267  Uiso   1.00
C16    C     0.08530   0.89304   0.30377   0.01267  Uiso   1.00
C17    C     0.08580   0.90625   0.20336   0.01267  Uiso   1.00
C18    C     0.02020   0.96180   0.46695   0.01267  Uiso   1.00
C19    C     0.29090   0.41293   0.76998   0.01267  Uiso   1.00
C20    C     0.19260   0.41930   0.66780   0.01267  Uiso   1.00
C21    C     0.11320   0.51840   0.64860   0.01267  Uiso   1.00
C22    C     0.14090   0.60630   0.73450   0.01267  Uiso   1.00
C23    C     0.24850   0.59640   0.83150   0.01267  Uiso   1.00
C24    C     0.00630   0.53300   0.54534   0.01267  Uiso   1.00
N1     N     0.97560   0.00610   0.84259   0.01267  Uiso   1.00
N2     N     0.67610   0.49765   0.14954   0.01267  Uiso   1.00
N3     N     0.02440   0.99390   0.15741   0.01267  Uiso   1.00
N4     N     0.32390   0.50235   0.85046   0.01267  Uiso   1.00
O1     O     0.65409   0.40366   0.93261   0.01267  Uiso   1.00
O2     O     0.65056   0.66348   0.98979   0.01267  Uiso   1.00
O3     O     0.00154   0.63258   0.08305   0.01267  Uiso   1.00
O4     O     0.93805   0.81564   0.96682   0.01267  Uiso   1.00
O5     O     0.84735   0.57848   0.85880   0.01267  Uiso   1.00
O6     O     0.34591   0.59634   0.06739   0.01267  Uiso   1.00
O7     O     0.34944   0.33652   0.01021   0.01267  Uiso   1.00
O8     O     0.99846   0.36742   0.91695   0.01267  Uiso   1.00
O9     O     0.06195   0.18436   0.03318   0.01267  Uiso   1.00
O10    O     0.15265   0.42152   0.14120   0.01267  Uiso   1.00
