data_DEYXIQ_clean
_audit_creation_date              2014-07-02
_audit_creation_method            'Materials Studio'
_symmetry_space_group_name_H-M    'P1'
_symmetry_Int_Tables_number       1
_symmetry_cell_setting            triclinic
loop_
_symmetry_equiv_pos_as_xyz
  x,y,z
_cell_length_a                    7.9030
_cell_length_b                    10.5379
_cell_length_c                    32.8580
_cell_angle_alpha                 90.0000
_cell_angle_beta                  90.0000
_cell_angle_gamma                 99.6070
loop_
_atom_site_label
_atom_site_type_symbol
_atom_site_fract_x
_atom_site_fract_y
_atom_site_fract_z
_atom_site_U_iso_or_equiv
_atom_site_adp_type
_atom_site_occupancy
Co1    Co    0.05326   0.48049   0.25018   0.01267  Uiso   1.00
Co2    Co    0.44674   0.51951   0.75018   0.01267  Uiso   1.00
Co3    Co    0.94674   0.51951   0.74982   0.01267  Uiso   1.00
Co4    Co    0.55326   0.48049   0.24982   0.01267  Uiso   1.00
Co5    Co    0.50000   0.50000   0.50000   0.01267  Uiso   1.00
Co6    Co    0.00000   0.50000   0.00000   0.01267  Uiso   1.00
Co7    Co    0.00000   0.50000   0.50000   0.01267  Uiso   1.00
Co8    Co    0.50000   0.50000   0.00000   0.01267  Uiso   1.00
H1     H     0.91380   0.06990   0.23840   0.01267  Uiso   1.00
H2     H     0.74350   0.87000   0.23890   0.01267  Uiso   1.00
H3     H     0.63890   0.91640   0.51050   0.01267  Uiso   1.00
H4     H     0.80370   0.11880   0.51000   0.01267  Uiso   1.00
H5     H     0.82850   0.54530   0.20590   0.01267  Uiso   1.00
H6     H     0.77370   0.41060   0.20870   0.01267  Uiso   1.00
H7     H     0.23150   0.43760   0.45690   0.01267  Uiso   1.00
H8     H     0.28080   0.57280   0.45700   0.01267  Uiso   1.00
H9     H     0.58620   0.93010   0.73840   0.01267  Uiso   1.00
H10    H     0.75650   0.13000   0.73890   0.01267  Uiso   1.00
H11    H     0.86110   0.08360   0.01050   0.01267  Uiso   1.00
H12    H     0.69630   0.88120   0.01000   0.01267  Uiso   1.00
H13    H     0.67150   0.45470   0.70590   0.01267  Uiso   1.00
H14    H     0.72630   0.58940   0.70870   0.01267  Uiso   1.00
H15    H     0.26850   0.56240   0.95690   0.01267  Uiso   1.00
H16    H     0.21920   0.42720   0.95700   0.01267  Uiso   1.00
H17    H     0.08620   0.93010   0.76160   0.01267  Uiso   1.00
H18    H     0.25650   0.13000   0.76110   0.01267  Uiso   1.00
H19    H     0.36110   0.08360   0.48950   0.01267  Uiso   1.00
H20    H     0.19630   0.88120   0.49000   0.01267  Uiso   1.00
H21    H     0.17150   0.45470   0.79410   0.01267  Uiso   1.00
H22    H     0.22630   0.58940   0.79130   0.01267  Uiso   1.00
H23    H     0.76850   0.56240   0.54310   0.01267  Uiso   1.00
H24    H     0.71920   0.42720   0.54300   0.01267  Uiso   1.00
H25    H     0.41380   0.06990   0.26160   0.01267  Uiso   1.00
H26    H     0.24350   0.87000   0.26110   0.01267  Uiso   1.00
H27    H     0.13890   0.91640   0.98950   0.01267  Uiso   1.00
H28    H     0.30370   0.11880   0.99000   0.01267  Uiso   1.00
H29    H     0.32850   0.54530   0.29410   0.01267  Uiso   1.00
H30    H     0.27370   0.41060   0.29130   0.01267  Uiso   1.00
H31    H     0.73150   0.43760   0.04310   0.01267  Uiso   1.00
H32    H     0.78080   0.57280   0.04300   0.01267  Uiso   1.00
C1     C     0.90760   0.10280   0.29894   0.01267  Uiso   1.00
C2     C     0.87040   0.03430   0.26291   0.01267  Uiso   1.00
C3     C     0.76940   0.91380   0.26333   0.01267  Uiso   1.00
C4     C     0.70580   0.85700   0.29971   0.01267  Uiso   1.00
C5     C     0.74670   0.92330   0.33628   0.01267  Uiso   1.00
C6     C     0.70140   0.85860   0.37567   0.01267  Uiso   1.00
C7     C     0.71870   0.93630   0.41366   0.01267  Uiso   1.00
C8     C     0.65150   0.88150   0.45018   0.01267  Uiso   1.00
C9     C     0.68380   0.95170   0.48603   0.01267  Uiso   1.00
C10    C     0.78210   0.07370   0.48570   0.01267  Uiso   1.00
C11    C     0.84860   0.12910   0.44957   0.01267  Uiso   1.00
C12    C     0.81430   0.06140   0.41313   0.01267  Uiso   1.00
C13    C     0.87070   0.12500   0.37384   0.01267  Uiso   1.00
C14    C     0.84440   0.04800   0.33577   0.01267  Uiso   1.00
C15    C     0.01960   0.23390   0.29600   0.01267  Uiso   1.00
C16    C     0.59070   0.72700   0.29742   0.01267  Uiso   1.00
C17    C     0.54120   0.75030   0.45319   0.01267  Uiso   1.00
C18    C     0.96420   0.25820   0.45291   0.01267  Uiso   1.00
C19    C     0.59240   0.89720   0.79894   0.01267  Uiso   1.00
C20    C     0.62960   0.96570   0.76291   0.01267  Uiso   1.00
C21    C     0.73060   0.08620   0.76333   0.01267  Uiso   1.00
C22    C     0.79420   0.14300   0.79971   0.01267  Uiso   1.00
C23    C     0.75330   0.07670   0.83628   0.01267  Uiso   1.00
C24    C     0.79860   0.14140   0.87567   0.01267  Uiso   1.00
C25    C     0.78130   0.06370   0.91366   0.01267  Uiso   1.00
C26    C     0.84850   0.11850   0.95018   0.01267  Uiso   1.00
C27    C     0.81620   0.04830   0.98603   0.01267  Uiso   1.00
C28    C     0.71790   0.92630   0.98570   0.01267  Uiso   1.00
C29    C     0.65140   0.87090   0.94957   0.01267  Uiso   1.00
C30    C     0.68570   0.93860   0.91313   0.01267  Uiso   1.00
C31    C     0.62930   0.87500   0.87384   0.01267  Uiso   1.00
C32    C     0.65560   0.95200   0.83577   0.01267  Uiso   1.00
C33    C     0.48040   0.76610   0.79600   0.01267  Uiso   1.00
C34    C     0.90930   0.27300   0.79742   0.01267  Uiso   1.00
C35    C     0.95880   0.24970   0.95319   0.01267  Uiso   1.00
C36    C     0.53580   0.74180   0.95291   0.01267  Uiso   1.00
C37    C     0.09240   0.89720   0.70106   0.01267  Uiso   1.00
C38    C     0.12960   0.96570   0.73709   0.01267  Uiso   1.00
C39    C     0.23060   0.08620   0.73667   0.01267  Uiso   1.00
C40    C     0.29420   0.14300   0.70029   0.01267  Uiso   1.00
C41    C     0.25330   0.07670   0.66372   0.01267  Uiso   1.00
C42    C     0.29860   0.14140   0.62433   0.01267  Uiso   1.00
C43    C     0.28130   0.06370   0.58634   0.01267  Uiso   1.00
C44    C     0.34850   0.11850   0.54982   0.01267  Uiso   1.00
C45    C     0.31620   0.04830   0.51397   0.01267  Uiso   1.00
C46    C     0.21790   0.92630   0.51430   0.01267  Uiso   1.00
C47    C     0.15140   0.87090   0.55043   0.01267  Uiso   1.00
C48    C     0.18570   0.93860   0.58687   0.01267  Uiso   1.00
C49    C     0.12930   0.87500   0.62616   0.01267  Uiso   1.00
C50    C     0.15560   0.95200   0.66423   0.01267  Uiso   1.00
C51    C     0.98040   0.76610   0.70400   0.01267  Uiso   1.00
C52    C     0.40930   0.27300   0.70258   0.01267  Uiso   1.00
C53    C     0.45880   0.24970   0.54681   0.01267  Uiso   1.00
C54    C     0.03580   0.74180   0.54709   0.01267  Uiso   1.00
C55    C     0.40760   0.10280   0.20106   0.01267  Uiso   1.00
C56    C     0.37040   0.03430   0.23709   0.01267  Uiso   1.00
C57    C     0.26940   0.91380   0.23667   0.01267  Uiso   1.00
C58    C     0.20580   0.85700   0.20029   0.01267  Uiso   1.00
C59    C     0.24670   0.92330   0.16372   0.01267  Uiso   1.00
C60    C     0.20140   0.85860   0.12433   0.01267  Uiso   1.00
C61    C     0.21870   0.93630   0.08634   0.01267  Uiso   1.00
C62    C     0.15150   0.88150   0.04982   0.01267  Uiso   1.00
C63    C     0.18380   0.95170   0.01397   0.01267  Uiso   1.00
C64    C     0.28210   0.07370   0.01430   0.01267  Uiso   1.00
C65    C     0.34860   0.12910   0.05043   0.01267  Uiso   1.00
C66    C     0.31430   0.06140   0.08687   0.01267  Uiso   1.00
C67    C     0.37070   0.12500   0.12616   0.01267  Uiso   1.00
C68    C     0.34440   0.04800   0.16423   0.01267  Uiso   1.00
C69    C     0.51960   0.23390   0.20400   0.01267  Uiso   1.00
C70    C     0.09070   0.72700   0.20258   0.01267  Uiso   1.00
C71    C     0.04120   0.75030   0.04681   0.01267  Uiso   1.00
C72    C     0.46420   0.25820   0.04709   0.01267  Uiso   1.00
O1     O     0.66000   0.74160   0.37771   0.01267  Uiso   1.00
O2     O     0.92880   0.23910   0.37254   0.01267  Uiso   1.00
O3     O     0.94400   0.32240   0.28196   0.01267  Uiso   1.00
O4     O     0.17380   0.24640   0.30451   0.01267  Uiso   1.00
O5     O     0.66260   0.63790   0.28255   0.01267  Uiso   1.00
O6     O     0.43720   0.71520   0.30666   0.01267  Uiso   1.00
O7     O     0.39080   0.73460   0.44059   0.01267  Uiso   1.00
O8     O     0.61110   0.66610   0.47179   0.01267  Uiso   1.00
O9     O     0.11990   0.26580   0.44847   0.01267  Uiso   1.00
O10    O     0.89050   0.35180   0.46405   0.01267  Uiso   1.00
O11    O     0.80370   0.48080   0.22158   0.01267  Uiso   1.00
O12    O     0.25240   0.50540   0.47135   0.01267  Uiso   1.00
O13    O     0.84000   0.25840   0.87771   0.01267  Uiso   1.00
O14    O     0.57120   0.76090   0.87254   0.01267  Uiso   1.00
O15    O     0.55600   0.67760   0.78196   0.01267  Uiso   1.00
O16    O     0.32620   0.75360   0.80451   0.01267  Uiso   1.00
O17    O     0.83740   0.36210   0.78255   0.01267  Uiso   1.00
O18    O     0.06280   0.28480   0.80666   0.01267  Uiso   1.00
O19    O     0.10920   0.26540   0.94059   0.01267  Uiso   1.00
O20    O     0.88890   0.33390   0.97179   0.01267  Uiso   1.00
O21    O     0.38010   0.73420   0.94847   0.01267  Uiso   1.00
O22    O     0.60950   0.64820   0.96405   0.01267  Uiso   1.00
O23    O     0.69630   0.51920   0.72158   0.01267  Uiso   1.00
O24    O     0.24760   0.49460   0.97135   0.01267  Uiso   1.00
O25    O     0.34000   0.25840   0.62229   0.01267  Uiso   1.00
O26    O     0.07120   0.76090   0.62746   0.01267  Uiso   1.00
O27    O     0.05600   0.67760   0.71804   0.01267  Uiso   1.00
O28    O     0.82620   0.75360   0.69549   0.01267  Uiso   1.00
O29    O     0.33740   0.36210   0.71745   0.01267  Uiso   1.00
O30    O     0.56280   0.28480   0.69334   0.01267  Uiso   1.00
O31    O     0.60920   0.26540   0.55941   0.01267  Uiso   1.00
O32    O     0.38890   0.33390   0.52821   0.01267  Uiso   1.00
O33    O     0.88010   0.73420   0.55153   0.01267  Uiso   1.00
O34    O     0.10950   0.64820   0.53595   0.01267  Uiso   1.00
O35    O     0.19630   0.51920   0.77842   0.01267  Uiso   1.00
O36    O     0.74760   0.49460   0.52865   0.01267  Uiso   1.00
O37    O     0.16000   0.74160   0.12229   0.01267  Uiso   1.00
O38    O     0.42880   0.23910   0.12746   0.01267  Uiso   1.00
O39    O     0.44400   0.32240   0.21804   0.01267  Uiso   1.00
O40    O     0.67380   0.24640   0.19549   0.01267  Uiso   1.00
O41    O     0.16260   0.63790   0.21745   0.01267  Uiso   1.00
O42    O     0.93720   0.71520   0.19334   0.01267  Uiso   1.00
O43    O     0.89080   0.73460   0.05941   0.01267  Uiso   1.00
O44    O     0.11110   0.66610   0.02821   0.01267  Uiso   1.00
O45    O     0.61990   0.26580   0.05153   0.01267  Uiso   1.00
O46    O     0.39050   0.35180   0.03595   0.01267  Uiso   1.00
O47    O     0.30370   0.48080   0.27842   0.01267  Uiso   1.00
O48    O     0.75240   0.50540   0.02865   0.01267  Uiso   1.00
