data_image0
_cell_length_a       10.1273
_cell_length_b       15.3853
_cell_length_c       27.6549
_cell_angle_alpha    90
_cell_angle_beta     92.722
_cell_angle_gamma    90

_symmetry_space_group_name_H-M    "P 1"
_symmetry_int_tables_number       1

loop_
  _symmetry_equiv_pos_as_xyz
  'x, y, z'

loop_
  _atom_site_label
  _atom_site_occupancy
  _atom_site_fract_x
  _atom_site_fract_y
  _atom_site_fract_z
  _atom_site_thermal_displace_type
  _atom_site_B_iso_or_equiv
  _atom_site_type_symbol
  Mn1      1.0000 0.39829  0.18929  0.24694  Biso   1.000  Mn
  Mn2      1.0000 0.96641  0.01192  0.24940  Biso   1.000  Mn
  O1       1.0000 0.16720  0.95622  0.25281  Biso   1.000  O
  O2       1.0000 0.26360  0.08300  0.24664  Biso   1.000  O
  O3       1.0000 0.08070  0.37437  0.24486  Biso   1.000  O
  O4       1.0000 0.21410  0.26024  0.24790  Biso   1.000  O
  O5       1.0000 0.58660  0.13180  0.24701  Biso   1.000  O
  O6       1.0000 0.75850  0.04328  0.24739  Biso   1.000  O
  N1       1.0000 0.40290  0.18915  0.33024  Biso   1.000  N
  N2       1.0000 0.37900  0.30630  0.66387  Biso   1.000  N
  N3       1.0000 0.97570  0.02030  0.33075  Biso   1.000  N
  N4       1.0000 0.96620  0.99445  0.16827  Biso   1.000  N
  C1       1.0000 0.26460  0.00450  0.25090  Biso   1.000  C
  H1       1.0000 0.34710  0.97780  0.25300  Biso   1.000  H
  C2       1.0000 0.18820  0.33910  0.24748  Biso   1.000  C
  H2       1.0000 0.26080  0.37620  0.24940  Biso   1.000  H
  C3       1.0000 0.65130  0.07230  0.24558  Biso   1.000  C
  H3       1.0000 0.59430  0.02540  0.24090  Biso   1.000  H
  C4       1.0000 0.29190  0.19400  0.35444  Biso   1.000  C
  H4       1.0000 0.21160  0.18730  0.33710  Biso   1.000  H
  C5       1.0000 0.51460  0.19610  0.35678  Biso   1.000  C
  H5       1.0000 0.59350  0.19060  0.34120  Biso   1.000  H
  C6       1.0000 0.28960  0.20850  0.40341  Biso   1.000  C
  H6       1.0000 0.20950  0.21180  0.41840  Biso   1.000  H
  C7       1.0000 0.52190  0.21100  0.40574  Biso   1.000  C
  H7       1.0000 0.60390  0.21620  0.42210  Biso   1.000  H
  C8       1.0000 0.40870  0.21810  0.43041  Biso   1.000  C
  C9       1.0000 0.41980  0.23830  0.48289  Biso   1.000  C
  H8       1.0000 0.50500  0.23750  0.49690  Biso   1.000  H
  C10      1.0000 0.32970  0.25640  0.51103  Biso   1.000  C
  H9       1.0000 0.24340  0.25730  0.49790  Biso   1.000  H
  C11      1.0000 0.34970  0.27650  0.56352  Biso   1.000  C
  C12      1.0000 0.24210  0.28300  0.59180  Biso   1.000  C
  H10      1.0000 0.15710  0.27830  0.57780  Biso   1.000  H
  C13      1.0000 0.47250  0.28920  0.58645  Biso   1.000  C
  H11      1.0000 0.54820  0.28790  0.56870  Biso   1.000  H
  C14      1.0000 0.26040  0.29630  0.64072  Biso   1.000  C
  H12      1.0000 0.18580  0.29860  0.65900  Biso   1.000  H
  C15      1.0000 0.48250  0.30400  0.63609  Biso   1.000  C
  H13      1.0000 0.56610  0.31270  0.65070  Biso   1.000  H
  C16      1.0000 0.94560  0.09170  0.35480  Biso   1.000  C
  H14      1.0000 0.91840  0.14030  0.33700  Biso   1.000  H
  C17      1.0000 0.01550  0.95210  0.35755  Biso   1.000  C
  H15      1.0000 0.03880  0.90160  0.34160  Biso   1.000  H
  C18      1.0000 0.95220  0.09820  0.40439  Biso   1.000  C
  H16      1.0000 0.92970  0.15000  0.41930  Biso   1.000  H
  C19      1.0000 0.02410  0.95220  0.40703  Biso   1.000  C
  H17      1.0000 0.05080  0.90230  0.42380  Biso   1.000  H
  C20      1.0000 0.99280  0.02660  0.43209  Biso   1.000  C
  C21      1.0000 0.99710  0.03230  0.48532  Biso   1.000  C
  H18      1.0000 0.99560  0.08760  0.49880  Biso   1.000  H
  C22      1.0000 0.99880  0.96850  0.01587  Biso   1.000  C
  H19      1.0000 0.00640  0.91210  0.00410  Biso   1.000  H
  C23      1.0000 0.98530  0.97820  0.06803  Biso   1.000  C
  C24      1.0000 0.00420  0.90800  0.09906  Biso   1.000  C
  H20      1.0000 0.02320  0.85340  0.08670  Biso   1.000  H
  C25      1.0000 0.95330  0.05600  0.08940  Biso   1.000  C
  H21      1.0000 0.93770  0.10500  0.07030  Biso   1.000  H
  C26      1.0000 0.99480  0.91890  0.14759  Biso   1.000  C
  H22      1.0000 0.00930  0.87080  0.16750  Biso   1.000  H
  C27      1.0000 0.94430  0.06140  0.13827  Biso   1.000  C
  H23      1.0000 0.92180  0.11460  0.15150  Biso   1.000  H
  Mn3      1.0000 0.60171  0.68929  0.25306  Biso   1.000  Mn
  Mn4      1.0000 0.03359  0.51192  0.25060  Biso   1.000  Mn
  O7       1.0000 0.83280  0.45622  0.24719  Biso   1.000  O
  O8       1.0000 0.73640  0.58300  0.25336  Biso   1.000  O
  O9       1.0000 0.91930  0.87437  0.25514  Biso   1.000  O
  O10      1.0000 0.78590  0.76024  0.25210  Biso   1.000  O
  O11      1.0000 0.41340  0.63180  0.25299  Biso   1.000  O
  O12      1.0000 0.24150  0.54328  0.25261  Biso   1.000  O
  N5       1.0000 0.59710  0.68915  0.16976  Biso   1.000  N
  N6       1.0000 0.62100  0.80630  0.83613  Biso   1.000  N
  N7       1.0000 0.02430  0.52030  0.16925  Biso   1.000  N
  N8       1.0000 0.03380  0.49445  0.33173  Biso   1.000  N
  C28      1.0000 0.73540  0.50450  0.24910  Biso   1.000  C
  H24      1.0000 0.65290  0.47780  0.24700  Biso   1.000  H
  C29      1.0000 0.81180  0.83910  0.25252  Biso   1.000  C
  H25      1.0000 0.73920  0.87620  0.25060  Biso   1.000  H
  C30      1.0000 0.34870  0.57230  0.25442  Biso   1.000  C
  H26      1.0000 0.40570  0.52540  0.25910  Biso   1.000  H
  C31      1.0000 0.70810  0.69400  0.14556  Biso   1.000  C
  H27      1.0000 0.78840  0.68730  0.16290  Biso   1.000  H
  C32      1.0000 0.48540  0.69610  0.14322  Biso   1.000  C
  H28      1.0000 0.40650  0.69060  0.15880  Biso   1.000  H
  C33      1.0000 0.71040  0.70850  0.09659  Biso   1.000  C
  H29      1.0000 0.79050  0.71180  0.08160  Biso   1.000  H
  C34      1.0000 0.47810  0.71100  0.09426  Biso   1.000  C
  H30      1.0000 0.39610  0.71620  0.07790  Biso   1.000  H
  C35      1.0000 0.59130  0.71810  0.06959  Biso   1.000  C
  C36      1.0000 0.58020  0.73830  0.01711  Biso   1.000  C
  H31      1.0000 0.49500  0.73750  0.00310  Biso   1.000  H
  C37      1.0000 0.67030  0.75640  0.98897  Biso   1.000  C
  H32      1.0000 0.75660  0.75730  0.00210  Biso   1.000  H
  C38      1.0000 0.65030  0.77650  0.93648  Biso   1.000  C
  C39      1.0000 0.75790  0.78300  0.90820  Biso   1.000  C
  H33      1.0000 0.84290  0.77830  0.92220  Biso   1.000  H
  C40      1.0000 0.52750  0.78920  0.91355  Biso   1.000  C
  H34      1.0000 0.45180  0.78790  0.93130  Biso   1.000  H
  C41      1.0000 0.73960  0.79630  0.85928  Biso   1.000  C
  H35      1.0000 0.81420  0.79860  0.84100  Biso   1.000  H
  C42      1.0000 0.51750  0.80400  0.86391  Biso   1.000  C
  H36      1.0000 0.43390  0.81270  0.84930  Biso   1.000  H
  C43      1.0000 0.05440  0.59170  0.14520  Biso   1.000  C
  H37      1.0000 0.08160  0.64030  0.16300  Biso   1.000  H
  C44      1.0000 0.98450  0.45210  0.14245  Biso   1.000  C
  H38      1.0000 0.96120  0.40160  0.15840  Biso   1.000  H
  C45      1.0000 0.04780  0.59820  0.09561  Biso   1.000  C
  H39      1.0000 0.07030  0.65000  0.08070  Biso   1.000  H
  C46      1.0000 0.97590  0.45220  0.09297  Biso   1.000  C
  H40      1.0000 0.94920  0.40230  0.07620  Biso   1.000  H
  C47      1.0000 0.00720  0.52660  0.06791  Biso   1.000  C
  C48      1.0000 0.00290  0.53230  0.01468  Biso   1.000  C
  H41      1.0000 0.00440  0.58760  0.00120  Biso   1.000  H
  C49      1.0000 0.00120  0.46850  0.48413  Biso   1.000  C
  H42      1.0000 0.99360  0.41210  0.49590  Biso   1.000  H
  C50      1.0000 0.01470  0.47820  0.43197  Biso   1.000  C
  C51      1.0000 0.99580  0.40800  0.40094  Biso   1.000  C
  H43      1.0000 0.97680  0.35340  0.41330  Biso   1.000  H
  C52      1.0000 0.04670  0.55600  0.41060  Biso   1.000  C
  H44      1.0000 0.06230  0.60500  0.42970  Biso   1.000  H
  C53      1.0000 0.00520  0.41890  0.35241  Biso   1.000  C
  H45      1.0000 0.99070  0.37080  0.33250  Biso   1.000  H
  C54      1.0000 0.05570  0.56140  0.36173  Biso   1.000  C
  H46      1.0000 0.07820  0.61460  0.34850  Biso   1.000  H
  Mn5      1.0000 0.60171  0.81071  0.75306  Biso   1.000  Mn
  Mn6      1.0000 0.03359  0.98808  0.75060  Biso   1.000  Mn
  O13      1.0000 0.83280  0.04378  0.74719  Biso   1.000  O
  O14      1.0000 0.73640  0.91700  0.75336  Biso   1.000  O
  O15      1.0000 0.91930  0.62563  0.75514  Biso   1.000  O
  O16      1.0000 0.78590  0.73976  0.75210  Biso   1.000  O
  O17      1.0000 0.41340  0.86820  0.75299  Biso   1.000  O
  O18      1.0000 0.24150  0.95672  0.75261  Biso   1.000  O
  N9       1.0000 0.59710  0.81085  0.66976  Biso   1.000  N
  N10      1.0000 0.62100  0.69370  0.33613  Biso   1.000  N
  N11      1.0000 0.02430  0.97970  0.66925  Biso   1.000  N
  N12      1.0000 0.03380  0.00555  0.83173  Biso   1.000  N
  C55      1.0000 0.73540  0.99550  0.74910  Biso   1.000  C
  H47      1.0000 0.65290  0.02220  0.74700  Biso   1.000  H
  C56      1.0000 0.81180  0.66090  0.75252  Biso   1.000  C
  H48      1.0000 0.73920  0.62380  0.75060  Biso   1.000  H
  C57      1.0000 0.34870  0.92770  0.75442  Biso   1.000  C
  H49      1.0000 0.40570  0.97460  0.75910  Biso   1.000  H
  C58      1.0000 0.70810  0.80600  0.64556  Biso   1.000  C
  H50      1.0000 0.78840  0.81270  0.66290  Biso   1.000  H
  C59      1.0000 0.48540  0.80390  0.64322  Biso   1.000  C
  H51      1.0000 0.40650  0.80940  0.65880  Biso   1.000  H
  C60      1.0000 0.71040  0.79150  0.59659  Biso   1.000  C
  H52      1.0000 0.79050  0.78820  0.58160  Biso   1.000  H
  C61      1.0000 0.47810  0.78900  0.59426  Biso   1.000  C
  H53      1.0000 0.39610  0.78380  0.57790  Biso   1.000  H
  C62      1.0000 0.59130  0.78190  0.56959  Biso   1.000  C
  C63      1.0000 0.58020  0.76170  0.51711  Biso   1.000  C
  H54      1.0000 0.49500  0.76250  0.50310  Biso   1.000  H
  C64      1.0000 0.67030  0.74360  0.48897  Biso   1.000  C
  H55      1.0000 0.75660  0.74270  0.50210  Biso   1.000  H
  C65      1.0000 0.65030  0.72350  0.43648  Biso   1.000  C
  C66      1.0000 0.75790  0.71700  0.40820  Biso   1.000  C
  H56      1.0000 0.84290  0.72170  0.42220  Biso   1.000  H
  C67      1.0000 0.52750  0.71080  0.41355  Biso   1.000  C
  H57      1.0000 0.45180  0.71210  0.43130  Biso   1.000  H
  C68      1.0000 0.73960  0.70370  0.35928  Biso   1.000  C
  H58      1.0000 0.81420  0.70140  0.34100  Biso   1.000  H
  C69      1.0000 0.51750  0.69600  0.36391  Biso   1.000  C
  H59      1.0000 0.43390  0.68730  0.34930  Biso   1.000  H
  C70      1.0000 0.05440  0.90830  0.64520  Biso   1.000  C
  H60      1.0000 0.08160  0.85970  0.66300  Biso   1.000  H
  C71      1.0000 0.98450  0.04790  0.64245  Biso   1.000  C
  H61      1.0000 0.96120  0.09840  0.65840  Biso   1.000  H
  C72      1.0000 0.04780  0.90180  0.59561  Biso   1.000  C
  H62      1.0000 0.07030  0.85000  0.58070  Biso   1.000  H
  C73      1.0000 0.97590  0.04780  0.59297  Biso   1.000  C
  H63      1.0000 0.94920  0.09770  0.57620  Biso   1.000  H
  C74      1.0000 0.00720  0.97340  0.56791  Biso   1.000  C
  C75      1.0000 0.00290  0.96770  0.51468  Biso   1.000  C
  H64      1.0000 0.00440  0.91240  0.50120  Biso   1.000  H
  C76      1.0000 0.00120  0.03150  0.98413  Biso   1.000  C
  H65      1.0000 0.99360  0.08790  0.99590  Biso   1.000  H
  C77      1.0000 0.01470  0.02180  0.93197  Biso   1.000  C
  C78      1.0000 0.99580  0.09200  0.90094  Biso   1.000  C
  H66      1.0000 0.97680  0.14660  0.91330  Biso   1.000  H
  C79      1.0000 0.04670  0.94400  0.91060  Biso   1.000  C
  H67      1.0000 0.06230  0.89500  0.92970  Biso   1.000  H
  C80      1.0000 0.00520  0.08110  0.85241  Biso   1.000  C
  H68      1.0000 0.99070  0.12920  0.83250  Biso   1.000  H
  C81      1.0000 0.05570  0.93860  0.86173  Biso   1.000  C
  H69      1.0000 0.07820  0.88540  0.84850  Biso   1.000  H
  Mn7      1.0000 0.39829  0.31071  0.74694  Biso   1.000  Mn
  Mn8      1.0000 0.96641  0.48808  0.74941  Biso   1.000  Mn
  O19      1.0000 0.16720  0.54378  0.75281  Biso   1.000  O
  O20      1.0000 0.26360  0.41700  0.74664  Biso   1.000  O
  O21      1.0000 0.08070  0.12563  0.74486  Biso   1.000  O
  O22      1.0000 0.21410  0.23976  0.74790  Biso   1.000  O
  O23      1.0000 0.58660  0.36820  0.74701  Biso   1.000  O
  O24      1.0000 0.75850  0.45672  0.74739  Biso   1.000  O
  N13      1.0000 0.40290  0.31085  0.83024  Biso   1.000  N
  N14      1.0000 0.37900  0.19370  0.16387  Biso   1.000  N
  N15      1.0000 0.97570  0.47970  0.83075  Biso   1.000  N
  N16      1.0000 0.96620  0.50555  0.66827  Biso   1.000  N
  C82      1.0000 0.26460  0.49550  0.75090  Biso   1.000  C
  H70      1.0000 0.34710  0.52220  0.75300  Biso   1.000  H
  C83      1.0000 0.18820  0.16090  0.74748  Biso   1.000  C
  H71      1.0000 0.26080  0.12380  0.74940  Biso   1.000  H
  C84      1.0000 0.65130  0.42770  0.74558  Biso   1.000  C
  H72      1.0000 0.59430  0.47460  0.74090  Biso   1.000  H
  C85      1.0000 0.29190  0.30600  0.85444  Biso   1.000  C
  H73      1.0000 0.21160  0.31270  0.83710  Biso   1.000  H
  C86      1.0000 0.51460  0.30390  0.85678  Biso   1.000  C
  H74      1.0000 0.59350  0.30940  0.84120  Biso   1.000  H
  C87      1.0000 0.28960  0.29150  0.90341  Biso   1.000  C
  H75      1.0000 0.20950  0.28820  0.91840  Biso   1.000  H
  C88      1.0000 0.52190  0.28900  0.90574  Biso   1.000  C
  H76      1.0000 0.60390  0.28380  0.92210  Biso   1.000  H
  C89      1.0000 0.40870  0.28190  0.93041  Biso   1.000  C
  C90      1.0000 0.41980  0.26170  0.98289  Biso   1.000  C
  H77      1.0000 0.50500  0.26250  0.99690  Biso   1.000  H
  C91      1.0000 0.32970  0.24360  0.01103  Biso   1.000  C
  H78      1.0000 0.24340  0.24270  0.99790  Biso   1.000  H
  C92      1.0000 0.34970  0.22350  0.06352  Biso   1.000  C
  C93      1.0000 0.24210  0.21700  0.09180  Biso   1.000  C
  H79      1.0000 0.15710  0.22170  0.07780  Biso   1.000  H
  C94      1.0000 0.47250  0.21080  0.08645  Biso   1.000  C
  H80      1.0000 0.54820  0.21210  0.06870  Biso   1.000  H
  C95      1.0000 0.26040  0.20370  0.14072  Biso   1.000  C
  H81      1.0000 0.18580  0.20140  0.15900  Biso   1.000  H
  C96      1.0000 0.48250  0.19600  0.13609  Biso   1.000  C
  H82      1.0000 0.56610  0.18730  0.15070  Biso   1.000  H
  C97      1.0000 0.94560  0.40830  0.85480  Biso   1.000  C
  H83      1.0000 0.91840  0.35970  0.83700  Biso   1.000  H
  C98      1.0000 0.01550  0.54790  0.85755  Biso   1.000  C
  H84      1.0000 0.03880  0.59840  0.84160  Biso   1.000  H
  C99      1.0000 0.95220  0.40180  0.90439  Biso   1.000  C
  H85      1.0000 0.92970  0.35000  0.91930  Biso   1.000  H
  C100     1.0000 0.02410  0.54780  0.90703  Biso   1.000  C
  H86      1.0000 0.05080  0.59770  0.92380  Biso   1.000  H
  C101     1.0000 0.99280  0.47340  0.93209  Biso   1.000  C
  C102     1.0000 0.99710  0.46770  0.98532  Biso   1.000  C
  H87      1.0000 0.99560  0.41240  0.99880  Biso   1.000  H
  C103     1.0000 0.99880  0.53150  0.51587  Biso   1.000  C
  H88      1.0000 0.00640  0.58790  0.50410  Biso   1.000  H
  C104     1.0000 0.98530  0.52180  0.56803  Biso   1.000  C
  C105     1.0000 0.00420  0.59200  0.59906  Biso   1.000  C
  H89      1.0000 0.02320  0.64660  0.58670  Biso   1.000  H
  C106     1.0000 0.95330  0.44400  0.58940  Biso   1.000  C
  H90      1.0000 0.93770  0.39500  0.57030  Biso   1.000  H
  C107     1.0000 0.99480  0.58110  0.64759  Biso   1.000  C
  H91      1.0000 0.00930  0.62920  0.66750  Biso   1.000  H
  C108     1.0000 0.94430  0.43860  0.63827  Biso   1.000  C
  H92      1.0000 0.92180  0.38540  0.65150  Biso   1.000  H
