data_DEZKAW_clean
_audit_creation_date              2014-07-02
_audit_creation_method            'Materials Studio'
_symmetry_space_group_name_H-M    'P1'
_symmetry_Int_Tables_number       1
_symmetry_cell_setting            triclinic
loop_
_symmetry_equiv_pos_as_xyz
  x,y,z
_cell_length_a                    17.1454
_cell_length_b                    17.1454
_cell_length_c                    17.1454
_cell_angle_alpha                 108.6510
_cell_angle_beta                  109.8830
_cell_angle_gamma                 109.8830
loop_
_atom_site_label
_atom_site_type_symbol
_atom_site_fract_x
_atom_site_fract_y
_atom_site_fract_z
_atom_site_U_iso_or_equiv
_atom_site_adp_type
_atom_site_occupancy
Mn1    Mn    0.87710   0.00646   0.91928   0.01267  Uiso   1.00
Mn2    Mn    0.62290   0.54218   0.12936   0.01267  Uiso   1.00
Mn3    Mn    0.91282   0.91928   0.54218   0.01267  Uiso   1.00
Mn4    Mn    0.58718   0.12936   0.00646   0.01267  Uiso   1.00
Mn5    Mn    0.12290   0.99354   0.08072   0.01267  Uiso   1.00
Mn6    Mn    0.37710   0.45782   0.87064   0.01267  Uiso   1.00
Mn7    Mn    0.08718   0.08072   0.45782   0.01267  Uiso   1.00
Mn8    Mn    0.41282   0.87064   0.99354   0.01267  Uiso   1.00
H1     H     0.54490   0.78910   0.92120   0.01267  Uiso   1.00
H2     H     0.93410   0.33990   0.97860   0.01267  Uiso   1.00
H3     H     0.08030   0.40290   0.98620   0.01267  Uiso   1.00
H4     H     0.15970   0.31750   0.98100   0.01267  Uiso   1.00
H5     H     0.08500   0.16620   0.95780   0.01267  Uiso   1.00
H6     H     0.95510   0.87630   0.24420   0.01267  Uiso   1.00
H7     H     0.56590   0.54450   0.40580   0.01267  Uiso   1.00
H8     H     0.41970   0.40590   0.32260   0.01267  Uiso   1.00
H9     H     0.34030   0.32130   0.15780   0.01267  Uiso   1.00
H10    H     0.41500   0.37280   0.08120   0.01267  Uiso   1.00
H11    H     0.13210   0.92120   0.87630   0.01267  Uiso   1.00
H12    H     0.63870   0.97860   0.54450   0.01267  Uiso   1.00
H13    H     0.58330   0.98620   0.40590   0.01267  Uiso   1.00
H14    H     0.66350   0.98100   0.32130   0.01267  Uiso   1.00
H15    H     0.79160   0.95780   0.37280   0.01267  Uiso   1.00
H16    H     0.36790   0.24420   0.78910   0.01267  Uiso   1.00
H17    H     0.86130   0.40580   0.33990   0.01267  Uiso   1.00
H18    H     0.91670   0.32260   0.40290   0.01267  Uiso   1.00
H19    H     0.83650   0.15780   0.31750   0.01267  Uiso   1.00
H20    H     0.70840   0.08120   0.16620   0.01267  Uiso   1.00
H21    H     0.45510   0.21090   0.07880   0.01267  Uiso   1.00
H22    H     0.06590   0.66010   0.02140   0.01267  Uiso   1.00
H23    H     0.91970   0.59710   0.01380   0.01267  Uiso   1.00
H24    H     0.84030   0.68250   0.01900   0.01267  Uiso   1.00
H25    H     0.91500   0.83380   0.04220   0.01267  Uiso   1.00
H26    H     0.04490   0.12370   0.75580   0.01267  Uiso   1.00
H27    H     0.43410   0.45550   0.59420   0.01267  Uiso   1.00
H28    H     0.58030   0.59410   0.67740   0.01267  Uiso   1.00
H29    H     0.65970   0.67870   0.84220   0.01267  Uiso   1.00
H30    H     0.58500   0.62720   0.91880   0.01267  Uiso   1.00
H31    H     0.86790   0.07880   0.12370   0.01267  Uiso   1.00
H32    H     0.36130   0.02140   0.45550   0.01267  Uiso   1.00
H33    H     0.41670   0.01380   0.59410   0.01267  Uiso   1.00
H34    H     0.33650   0.01900   0.67870   0.01267  Uiso   1.00
H35    H     0.20840   0.04220   0.62720   0.01267  Uiso   1.00
H36    H     0.63210   0.75580   0.21090   0.01267  Uiso   1.00
H37    H     0.13870   0.59420   0.66010   0.01267  Uiso   1.00
H38    H     0.08330   0.67740   0.59710   0.01267  Uiso   1.00
H39    H     0.16350   0.84220   0.68250   0.01267  Uiso   1.00
H40    H     0.29160   0.91880   0.83380   0.01267  Uiso   1.00
C1     C     0.56720   0.85120   0.93180   0.01267  Uiso   1.00
C2     C     0.64649   0.98171   0.94426   0.01267  Uiso   1.00
C3     C     0.71572   0.06460   0.95036   0.01267  Uiso   1.00
C4     C     0.83364   0.16854   0.96050   0.01267  Uiso   1.00
C5     C     0.92520   0.21420   0.96400   0.01267  Uiso   1.00
C6     C     0.96560   0.30520   0.97480   0.01267  Uiso   1.00
C7     C     0.05260   0.34260   0.97980   0.01267  Uiso   1.00
C8     C     0.09960   0.29180   0.97540   0.01267  Uiso   1.00
C9     C     0.05450   0.20180   0.96250   0.01267  Uiso   1.00
C10    C     0.93280   0.86460   0.28400   0.01267  Uiso   1.00
C11    C     0.85351   0.79777   0.33522   0.01267  Uiso   1.00
C12    C     0.78428   0.73464   0.34888   0.01267  Uiso   1.00
C13    C     0.66636   0.62686   0.33490   0.01267  Uiso   1.00
C14    C     0.57480   0.53880   0.28900   0.01267  Uiso   1.00
C15    C     0.53440   0.50920   0.33960   0.01267  Uiso   1.00
C16    C     0.44740   0.42720   0.29000   0.01267  Uiso   1.00
C17    C     0.40040   0.37580   0.19220   0.01267  Uiso   1.00
C18    C     0.44550   0.40800   0.14730   0.01267  Uiso   1.00
C19    C     0.08060   0.93180   0.86460   0.01267  Uiso   1.00
C20    C     0.96255   0.94426   0.79777   0.01267  Uiso   1.00
C21    C     0.88576   0.95036   0.73464   0.01267  Uiso   1.00
C22    C     0.79196   0.96050   0.62686   0.01267  Uiso   1.00
C23    C     0.74980   0.96400   0.53880   0.01267  Uiso   1.00
C24    C     0.66960   0.97480   0.50920   0.01267  Uiso   1.00
C25    C     0.63720   0.97980   0.42720   0.01267  Uiso   1.00
C26    C     0.68360   0.97540   0.37580   0.01267  Uiso   1.00
C27    C     0.76070   0.96250   0.40800   0.01267  Uiso   1.00
C28    C     0.41940   0.28400   0.85120   0.01267  Uiso   1.00
C29    C     0.53745   0.33522   0.98171   0.01267  Uiso   1.00
C30    C     0.61424   0.34888   0.06460   0.01267  Uiso   1.00
C31    C     0.70804   0.33490   0.16854   0.01267  Uiso   1.00
C32    C     0.75020   0.28900   0.21420   0.01267  Uiso   1.00
C33    C     0.83040   0.33960   0.30520   0.01267  Uiso   1.00
C34    C     0.86280   0.29000   0.34260   0.01267  Uiso   1.00
C35    C     0.81640   0.19220   0.29180   0.01267  Uiso   1.00
C36    C     0.73930   0.14730   0.20180   0.01267  Uiso   1.00
C37    C     0.43280   0.14880   0.06820   0.01267  Uiso   1.00
C38    C     0.35351   0.01829   0.05574   0.01267  Uiso   1.00
C39    C     0.28428   0.93540   0.04964   0.01267  Uiso   1.00
C40    C     0.16636   0.83146   0.03950   0.01267  Uiso   1.00
C41    C     0.07480   0.78580   0.03600   0.01267  Uiso   1.00
C42    C     0.03440   0.69480   0.02520   0.01267  Uiso   1.00
C43    C     0.94740   0.65740   0.02020   0.01267  Uiso   1.00
C44    C     0.90040   0.70820   0.02460   0.01267  Uiso   1.00
C45    C     0.94550   0.79820   0.03750   0.01267  Uiso   1.00
C46    C     0.06720   0.13540   0.71600   0.01267  Uiso   1.00
C47    C     0.14649   0.20223   0.66478   0.01267  Uiso   1.00
C48    C     0.21572   0.26536   0.65112   0.01267  Uiso   1.00
C49    C     0.33364   0.37314   0.66510   0.01267  Uiso   1.00
C50    C     0.42520   0.46120   0.71100   0.01267  Uiso   1.00
C51    C     0.46560   0.49080   0.66040   0.01267  Uiso   1.00
C52    C     0.55260   0.57280   0.71000   0.01267  Uiso   1.00
C53    C     0.59960   0.62420   0.80780   0.01267  Uiso   1.00
C54    C     0.55450   0.59200   0.85270   0.01267  Uiso   1.00
C55    C     0.91940   0.06820   0.13540   0.01267  Uiso   1.00
C56    C     0.03745   0.05574   0.20223   0.01267  Uiso   1.00
C57    C     0.11424   0.04964   0.26536   0.01267  Uiso   1.00
C58    C     0.20804   0.03950   0.37314   0.01267  Uiso   1.00
C59    C     0.25020   0.03600   0.46120   0.01267  Uiso   1.00
C60    C     0.33040   0.02520   0.49080   0.01267  Uiso   1.00
C61    C     0.36280   0.02020   0.57280   0.01267  Uiso   1.00
C62    C     0.31640   0.02460   0.62420   0.01267  Uiso   1.00
C63    C     0.23930   0.03750   0.59200   0.01267  Uiso   1.00
C64    C     0.58060   0.71600   0.14880   0.01267  Uiso   1.00
C65    C     0.46255   0.66478   0.01829   0.01267  Uiso   1.00
C66    C     0.38576   0.65112   0.93540   0.01267  Uiso   1.00
C67    C     0.29196   0.66510   0.83146   0.01267  Uiso   1.00
C68    C     0.24980   0.71100   0.78580   0.01267  Uiso   1.00
C69    C     0.16960   0.66040   0.69480   0.01267  Uiso   1.00
C70    C     0.13720   0.71000   0.65740   0.01267  Uiso   1.00
C71    C     0.18360   0.80780   0.70820   0.01267  Uiso   1.00
C72    C     0.26070   0.85270   0.79820   0.01267  Uiso   1.00
N1     N     0.64161   0.89690   0.92229   0.01267  Uiso   1.00
N2     N     0.58057   0.98819   0.96602   0.01267  Uiso   1.00
N3     N     0.52838   0.90247   0.95763   0.01267  Uiso   1.00
N4     N     0.79336   0.07618   0.94150   0.01267  Uiso   1.00
N5     N     0.78481   0.21041   0.97838   0.01267  Uiso   1.00
N6     N     0.70714   0.14175   0.97105   0.01267  Uiso   1.00
N7     N     0.96841   0.16230   0.95619   0.01267  Uiso   1.00
N8     N     0.85839   0.78068   0.25529   0.01267  Uiso   1.00
N9     N     0.91943   0.88545   0.40762   0.01267  Uiso   1.00
N10    N     0.97162   0.92925   0.37409   0.01267  Uiso   1.00
N11    N     0.70664   0.64814   0.28282   0.01267  Uiso   1.00
N12    N     0.71519   0.69357   0.42560   0.01267  Uiso   1.00
N13    N     0.79286   0.76391   0.43461   0.01267  Uiso   1.00
N14    N     0.53159   0.48778   0.19389   0.01267  Uiso   1.00
N15    N     0.02539   0.92229   0.78068   0.01267  Uiso   1.00
N16    N     0.97783   0.96602   0.88545   0.01267  Uiso   1.00
N17    N     0.05516   0.95763   0.92925   0.01267  Uiso   1.00
N18    N     0.86532   0.94150   0.64814   0.01267  Uiso   1.00
N19    N     0.76797   0.97838   0.69357   0.01267  Uiso   1.00
N20    N     0.82930   0.97105   0.76391   0.01267  Uiso   1.00
N21    N     0.79389   0.95619   0.48778   0.01267  Uiso   1.00
N22    N     0.47461   0.25529   0.89690   0.01267  Uiso   1.00
N23    N     0.52217   0.40762   0.98819   0.01267  Uiso   1.00
N24    N     0.44484   0.37409   0.90247   0.01267  Uiso   1.00
N25    N     0.63468   0.28282   0.07618   0.01267  Uiso   1.00
N26    N     0.73203   0.42560   0.21041   0.01267  Uiso   1.00
N27    N     0.67070   0.43461   0.14175   0.01267  Uiso   1.00
N28    N     0.70611   0.19389   0.16230   0.01267  Uiso   1.00
N29    N     0.35839   0.10310   0.07771   0.01267  Uiso   1.00
N30    N     0.41943   0.01181   0.03398   0.01267  Uiso   1.00
N31    N     0.47162   0.09753   0.04237   0.01267  Uiso   1.00
N32    N     0.20664   0.92382   0.05850   0.01267  Uiso   1.00
N33    N     0.21519   0.78959   0.02162   0.01267  Uiso   1.00
N34    N     0.29286   0.85825   0.02895   0.01267  Uiso   1.00
N35    N     0.03159   0.83770   0.04381   0.01267  Uiso   1.00
N36    N     0.14161   0.21932   0.74471   0.01267  Uiso   1.00
N37    N     0.08057   0.11455   0.59238   0.01267  Uiso   1.00
N38    N     0.02838   0.07075   0.62591   0.01267  Uiso   1.00
N39    N     0.29336   0.35186   0.71718   0.01267  Uiso   1.00
N40    N     0.28481   0.30643   0.57440   0.01267  Uiso   1.00
N41    N     0.20714   0.23609   0.56539   0.01267  Uiso   1.00
N42    N     0.46841   0.51222   0.80611   0.01267  Uiso   1.00
N43    N     0.97461   0.07771   0.21932   0.01267  Uiso   1.00
N44    N     0.02217   0.03398   0.11455   0.01267  Uiso   1.00
N45    N     0.94484   0.04237   0.07075   0.01267  Uiso   1.00
N46    N     0.13468   0.05850   0.35186   0.01267  Uiso   1.00
N47    N     0.23203   0.02162   0.30643   0.01267  Uiso   1.00
N48    N     0.17070   0.02895   0.23609   0.01267  Uiso   1.00
N49    N     0.20611   0.04381   0.51222   0.01267  Uiso   1.00
N50    N     0.52539   0.74471   0.10310   0.01267  Uiso   1.00
N51    N     0.47783   0.59238   0.01181   0.01267  Uiso   1.00
N52    N     0.55516   0.62591   0.09753   0.01267  Uiso   1.00
N53    N     0.36532   0.71718   0.92382   0.01267  Uiso   1.00
N54    N     0.26797   0.57440   0.78959   0.01267  Uiso   1.00
N55    N     0.32930   0.56539   0.85825   0.01267  Uiso   1.00
N56    N     0.29389   0.80611   0.83770   0.01267  Uiso   1.00
