data_DIBJEF_clean
_audit_creation_date              2014-07-02
_audit_creation_method            'Materials Studio'
_symmetry_space_group_name_H-M    'P1'
_symmetry_Int_Tables_number       1
_symmetry_cell_setting            triclinic
loop_
_symmetry_equiv_pos_as_xyz
  x,y,z
_cell_length_a                    9.1496
_cell_length_b                    23.4260
_cell_length_c                    26.8480
_cell_angle_alpha                 76.7536
_cell_angle_beta                  80.1891
_cell_angle_gamma                 78.7385
loop_
_atom_site_label
_atom_site_type_symbol
_atom_site_fract_x
_atom_site_fract_y
_atom_site_fract_z
_atom_site_U_iso_or_equiv
_atom_site_adp_type
_atom_site_occupancy
Eu1    Eu    0.62112   0.03242   0.57284   0.01267  Uiso   1.00
Eu2    Eu    0.25603   0.07855   0.51851   0.01267  Uiso   1.00
Eu3    Eu    0.36908   0.91950   0.57562   0.01267  Uiso   1.00
Eu4    Eu    0.22638   0.46758   0.92716   0.01267  Uiso   1.00
Eu5    Eu    0.85309   0.42145   0.98149   0.01267  Uiso   1.00
Eu6    Eu    0.86420   0.58050   0.92438   0.01267  Uiso   1.00
Eu7    Eu    0.37888   0.96758   0.42716   0.01267  Uiso   1.00
Eu8    Eu    0.74397   0.92145   0.48149   0.01267  Uiso   1.00
Eu9    Eu    0.63092   0.08050   0.42438   0.01267  Uiso   1.00
Eu10   Eu    0.77362   0.53242   0.07284   0.01267  Uiso   1.00
Eu11   Eu    0.14691   0.57855   0.01851   0.01267  Uiso   1.00
Eu12   Eu    0.13580   0.41950   0.07562   0.01267  Uiso   1.00
H1     H     0.28490   0.98390   0.06490   0.01267  Uiso   1.00
H2     H     0.45810   0.84290   0.16330   0.01267  Uiso   1.00
H3     H     0.28570   0.91110   0.21410   0.01267  Uiso   1.00
H4     H     0.55540   0.92400   0.88140   0.01267  Uiso   1.00
H5     H     0.67020   0.86810   0.95950   0.01267  Uiso   1.00
H6     H     0.16840   0.04210   0.98890   0.01267  Uiso   1.00
H7     H     0.87650   0.14540   0.89800   0.01267  Uiso   1.00
H8     H     0.05010   0.07770   0.84770   0.01267  Uiso   1.00
H9     H     0.01370   0.13570   0.16230   0.01267  Uiso   1.00
H10    H     0.91650   0.19690   0.08270   0.01267  Uiso   1.00
H11    H     0.71850   0.85850   0.11570   0.01267  Uiso   1.00
H12    H     0.86740   0.76580   0.14240   0.01267  Uiso   1.00
H13    H     0.68820   0.69680   0.04640   0.01267  Uiso   1.00
H14    H     0.53670   0.78780   0.02260   0.01267  Uiso   1.00
H15    H     0.25430   0.90840   0.86580   0.01267  Uiso   1.00
H16    H     0.33530   0.88270   0.78530   0.01267  Uiso   1.00
H17    H     0.44540   0.04640   0.72820   0.01267  Uiso   1.00
H18    H     0.36600   0.07030   0.80910   0.01267  Uiso   1.00
H19    H     0.69200   0.15560   0.06180   0.01267  Uiso   1.00
H20    H     0.52450   0.24390   0.06610   0.01267  Uiso   1.00
H21    H     0.71770   0.31940   0.92620   0.01267  Uiso   1.00
H22    H     0.89120   0.23280   0.92340   0.01267  Uiso   1.00
H23    H     0.23670   0.07640   0.21440   0.01267  Uiso   1.00
H24    H     0.17140   0.07290   0.30410   0.01267  Uiso   1.00
H25    H     0.90450   0.95130   0.31230   0.01267  Uiso   1.00
H26    H     0.96340   0.95840   0.22280   0.01267  Uiso   1.00
H27    H     0.33370   0.51610   0.43510   0.01267  Uiso   1.00
H28    H     0.46430   0.65710   0.33670   0.01267  Uiso   1.00
H29    H     0.41090   0.58890   0.28590   0.01267  Uiso   1.00
H30    H     0.36080   0.57600   0.61860   0.01267  Uiso   1.00
H31    H     0.49780   0.63190   0.54050   0.01267  Uiso   1.00
H32    H     0.19940   0.45790   0.51110   0.01267  Uiso   1.00
H33    H     0.91990   0.35460   0.60200   0.01267  Uiso   1.00
H34    H     0.97550   0.42230   0.65230   0.01267  Uiso   1.00
H35    H     0.31170   0.36430   0.33770   0.01267  Uiso   1.00
H36    H     0.19610   0.30310   0.41730   0.01267  Uiso   1.00
H37    H     0.69270   0.64150   0.38430   0.01267  Uiso   1.00
H38    H     0.77560   0.73420   0.35760   0.01267  Uiso   1.00
H39    H     0.43140   0.80320   0.45360   0.01267  Uiso   1.00
H40    H     0.34710   0.71220   0.47740   0.01267  Uiso   1.00
H41    H     0.02850   0.59160   0.63420   0.01267  Uiso   1.00
H42    H     0.00330   0.61730   0.71470   0.01267  Uiso   1.00
H43    H     0.22000   0.45360   0.77180   0.01267  Uiso   1.00
H44    H     0.24540   0.42970   0.69090   0.01267  Uiso   1.00
H45    H     0.90940   0.34440   0.43820   0.01267  Uiso   1.00
H46    H     0.83450   0.25610   0.43390   0.01267  Uiso   1.00
H47    H     0.96330   0.18060   0.57380   0.01267  Uiso   1.00
H48    H     0.04740   0.26720   0.57660   0.01267  Uiso   1.00
H49    H     0.52750   0.42360   0.28560   0.01267  Uiso   1.00
H50    H     0.54840   0.42710   0.19590   0.01267  Uiso   1.00
H51    H     0.16810   0.54870   0.18770   0.01267  Uiso   1.00
H52    H     0.14460   0.54160   0.27720   0.01267  Uiso   1.00
H53    H     0.71510   0.01610   0.93510   0.01267  Uiso   1.00
H54    H     0.54190   0.15710   0.83670   0.01267  Uiso   1.00
H55    H     0.71430   0.08890   0.78590   0.01267  Uiso   1.00
H56    H     0.44460   0.07600   0.11860   0.01267  Uiso   1.00
H57    H     0.32980   0.13190   0.04050   0.01267  Uiso   1.00
H58    H     0.83160   0.95790   0.01110   0.01267  Uiso   1.00
H59    H     0.12350   0.85460   0.10200   0.01267  Uiso   1.00
H60    H     0.94990   0.92230   0.15230   0.01267  Uiso   1.00
H61    H     0.98630   0.86430   0.83770   0.01267  Uiso   1.00
H62    H     0.08350   0.80310   0.91730   0.01267  Uiso   1.00
H63    H     0.28150   0.14150   0.88430   0.01267  Uiso   1.00
H64    H     0.13260   0.23420   0.85760   0.01267  Uiso   1.00
H65    H     0.31180   0.30320   0.95360   0.01267  Uiso   1.00
H66    H     0.46330   0.21220   0.97740   0.01267  Uiso   1.00
H67    H     0.74570   0.09160   0.13420   0.01267  Uiso   1.00
H68    H     0.66470   0.11730   0.21470   0.01267  Uiso   1.00
H69    H     0.55460   0.95360   0.27180   0.01267  Uiso   1.00
H70    H     0.63400   0.92970   0.19090   0.01267  Uiso   1.00
H71    H     0.30800   0.84440   0.93820   0.01267  Uiso   1.00
H72    H     0.47550   0.75610   0.93390   0.01267  Uiso   1.00
H73    H     0.28230   0.68060   0.07380   0.01267  Uiso   1.00
H74    H     0.10880   0.76720   0.07660   0.01267  Uiso   1.00
H75    H     0.76330   0.92360   0.78560   0.01267  Uiso   1.00
H76    H     0.82860   0.92710   0.69590   0.01267  Uiso   1.00
H77    H     0.09550   0.04870   0.68770   0.01267  Uiso   1.00
H78    H     0.03660   0.04160   0.77720   0.01267  Uiso   1.00
H79    H     0.66630   0.48390   0.56490   0.01267  Uiso   1.00
H80    H     0.53570   0.34290   0.66330   0.01267  Uiso   1.00
H81    H     0.58910   0.41110   0.71410   0.01267  Uiso   1.00
H82    H     0.63920   0.42400   0.38140   0.01267  Uiso   1.00
H83    H     0.50220   0.36810   0.45950   0.01267  Uiso   1.00
H84    H     0.80060   0.54210   0.48890   0.01267  Uiso   1.00
H85    H     0.08010   0.64540   0.39800   0.01267  Uiso   1.00
H86    H     0.02450   0.57770   0.34770   0.01267  Uiso   1.00
H87    H     0.68830   0.63570   0.66230   0.01267  Uiso   1.00
H88    H     0.80390   0.69690   0.58270   0.01267  Uiso   1.00
H89    H     0.30730   0.35850   0.61570   0.01267  Uiso   1.00
H90    H     0.22440   0.26580   0.64240   0.01267  Uiso   1.00
H91    H     0.56860   0.19680   0.54640   0.01267  Uiso   1.00
H92    H     0.65290   0.28780   0.52260   0.01267  Uiso   1.00
H93    H     0.97150   0.40840   0.36580   0.01267  Uiso   1.00
H94    H     0.99670   0.38270   0.28530   0.01267  Uiso   1.00
H95    H     0.78000   0.54640   0.22820   0.01267  Uiso   1.00
H96    H     0.75460   0.57030   0.30910   0.01267  Uiso   1.00
H97    H     0.09060   0.65560   0.56180   0.01267  Uiso   1.00
H98    H     0.16550   0.74390   0.56610   0.01267  Uiso   1.00
H99    H     0.03670   0.81940   0.42620   0.01267  Uiso   1.00
H100   H     0.95260   0.73280   0.42340   0.01267  Uiso   1.00
H101   H     0.47250   0.57640   0.71440   0.01267  Uiso   1.00
H102   H     0.45160   0.57290   0.80410   0.01267  Uiso   1.00
H103   H     0.83190   0.45130   0.81230   0.01267  Uiso   1.00
H104   H     0.85540   0.45840   0.72280   0.01267  Uiso   1.00
C1     C     0.40787   0.90736   0.09650   0.01267  Uiso   1.00
C2     C     0.40332   0.88051   0.14945   0.01267  Uiso   1.00
C3     C     0.30688   0.91766   0.17758   0.01267  Uiso   1.00
C4     C     0.24417   0.96783   0.14223   0.01267  Uiso   1.00
C5     C     0.49738   0.88751   0.05413   0.01267  Uiso   1.00
C6     C     0.47988   0.91211   0.00313   0.01267  Uiso   1.00
C7     C     0.38028   0.96465   0.93379   0.01267  Uiso   1.00
C8     C     0.51719   0.92652   0.91610   0.01267  Uiso   1.00
C9     C     0.57880   0.89562   0.95878   0.01267  Uiso   1.00
C10    C     0.28280   0.00049   0.90071   0.01267  Uiso   1.00
C11    C     0.15892   0.04296   0.91460   0.01267  Uiso   1.00
C12    C     0.00013   0.10408   0.96046   0.01267  Uiso   1.00
C13    C     0.95749   0.11639   0.91023   0.01267  Uiso   1.00
C14    C     0.05330   0.07924   0.88256   0.01267  Uiso   1.00
C15    C     0.94323   0.13491   0.00063   0.01267  Uiso   1.00
C16    C     0.99848   0.11946   0.04878   0.01267  Uiso   1.00
C17    C     0.08851   0.06674   0.11824   0.01267  Uiso   1.00
C18    C     0.01981   0.12385   0.13033   0.01267  Uiso   1.00
C19    C     0.96611   0.15678   0.08720   0.01267  Uiso   1.00
C20    C     0.14941   0.01747   0.15411   0.01267  Uiso   1.00
C21    C     0.60635   0.83150   0.06660   0.01267  Uiso   1.00
C22    C     0.71026   0.82508   0.10240   0.01267  Uiso   1.00
C23    C     0.79994   0.77032   0.11800   0.01267  Uiso   1.00
C24    C     0.78786   0.72183   0.09665   0.01267  Uiso   1.00
C25    C     0.69347   0.72916   0.06150   0.01267  Uiso   1.00
C26    C     0.60325   0.78390   0.04720   0.01267  Uiso   1.00
C27    C     0.31171   0.99129   0.84629   0.01267  Uiso   1.00
C28    C     0.29715   0.93590   0.83820   0.01267  Uiso   1.00
C29    C     0.34437   0.92064   0.79022   0.01267  Uiso   1.00
C30    C     0.40445   0.96091   0.74979   0.01267  Uiso   1.00
C31    C     0.40976   0.01764   0.75644   0.01267  Uiso   1.00
C32    C     0.36264   0.03152   0.80480   0.01267  Uiso   1.00
C33    C     0.82016   0.18692   0.99496   0.01267  Uiso   1.00
C34    C     0.70255   0.18988   0.03522   0.01267  Uiso   1.00
C35    C     0.60011   0.24193   0.03725   0.01267  Uiso   1.00
C36    C     0.60833   0.29018   0.99776   0.01267  Uiso   1.00
C37    C     0.71566   0.28674   0.95454   0.01267  Uiso   1.00
C38    C     0.81935   0.23528   0.95322   0.01267  Uiso   1.00
C39    C     0.10678   0.01799   0.21045   0.01267  Uiso   1.00
C40    C     0.16833   0.05129   0.23405   0.01267  Uiso   1.00
C41    C     0.13103   0.04874   0.28760   0.01267  Uiso   1.00
C42    C     0.03588   0.01112   0.31532   0.01267  Uiso   1.00
C43    C     0.97139   0.97694   0.29248   0.01267  Uiso   1.00
C44    C     0.00748   0.98115   0.23949   0.01267  Uiso   1.00
C45    C     0.41173   0.59264   0.40350   0.01267  Uiso   1.00
C46    C     0.43328   0.61949   0.35055   0.01267  Uiso   1.00
C47    C     0.40212   0.58234   0.32242   0.01267  Uiso   1.00
C48    C     0.35423   0.53217   0.35777   0.01267  Uiso   1.00
C49    C     0.43902   0.61249   0.44587   0.01267  Uiso   1.00
C50    C     0.39512   0.58789   0.49687   0.01267  Uiso   1.00
C51    C     0.27872   0.53535   0.56621   0.01267  Uiso   1.00
C52    C     0.35981   0.57348   0.58390   0.01267  Uiso   1.00
C53    C     0.43320   0.60438   0.54122   0.01267  Uiso   1.00
C54    C     0.18400   0.49951   0.59929   0.01267  Uiso   1.00
C55    C     0.11648   0.45704   0.58540   0.01267  Uiso   1.00
C56    C     0.06467   0.39592   0.53954   0.01267  Uiso   1.00
C57    C     0.98411   0.38361   0.58977   0.01267  Uiso   1.00
C58    C     0.01510   0.42076   0.61744   0.01267  Uiso   1.00
C59    C     0.07877   0.36509   0.49937   0.01267  Uiso   1.00
C60    C     0.16672   0.38054   0.45122   0.01267  Uiso   1.00
C61    C     0.27349   0.43326   0.38176   0.01267  Uiso   1.00
C62    C     0.27399   0.37615   0.36967   0.01267  Uiso   1.00
C63    C     0.21009   0.34322   0.41280   0.01267  Uiso   1.00
C64    C     0.32099   0.48253   0.34589   0.01267  Uiso   1.00
C65    C     0.50445   0.66850   0.43340   0.01267  Uiso   1.00
C66    C     0.63774   0.67492   0.39760   0.01267  Uiso   1.00
C67    C     0.68826   0.72968   0.38200   0.01267  Uiso   1.00
C68    C     0.60634   0.77817   0.40335   0.01267  Uiso   1.00
C69    C     0.48413   0.77084   0.43850   0.01267  Uiso   1.00
C70    C     0.43435   0.71610   0.45280   0.01267  Uiso   1.00
C71    C     0.14929   0.50871   0.65371   0.01267  Uiso   1.00
C72    C     0.07125   0.56410   0.66180   0.01267  Uiso   1.00
C73    C     0.05523   0.57936   0.70978   0.01267  Uiso   1.00
C74    C     0.11515   0.53909   0.75021   0.01267  Uiso   1.00
C75    C     0.18384   0.48236   0.74356   0.01267  Uiso   1.00
C76    C     0.19896   0.46848   0.69520   0.01267  Uiso   1.00
C77    C     0.00204   0.31308   0.50504   0.01267  Uiso   1.00
C78    C     0.92765   0.31012   0.46478   0.01267  Uiso   1.00
C79    C     0.87929   0.25807   0.46275   0.01267  Uiso   1.00
C80    C     0.89627   0.20982   0.50224   0.01267  Uiso   1.00
C81    C     0.95694   0.21326   0.54546   0.01267  Uiso   1.00
C82    C     0.00785   0.26472   0.54678   0.01267  Uiso   1.00
C83    C     0.33522   0.48201   0.28955   0.01267  Uiso   1.00
C84    C     0.45367   0.44871   0.26595   0.01267  Uiso   1.00
C85    C     0.46737   0.45126   0.21240   0.01267  Uiso   1.00
C86    C     0.36232   0.48888   0.18468   0.01267  Uiso   1.00
C87    C     0.24081   0.52306   0.20752   0.01267  Uiso   1.00
C88    C     0.22812   0.51885   0.26051   0.01267  Uiso   1.00
C89    C     0.59213   0.09264   0.90350   0.01267  Uiso   1.00
C90    C     0.59668   0.11949   0.85055   0.01267  Uiso   1.00
C91    C     0.69312   0.08234   0.82242   0.01267  Uiso   1.00
C92    C     0.75583   0.03217   0.85777   0.01267  Uiso   1.00
C93    C     0.50262   0.11249   0.94587   0.01267  Uiso   1.00
C94    C     0.52012   0.08789   0.99687   0.01267  Uiso   1.00
C95    C     0.61972   0.03535   0.06621   0.01267  Uiso   1.00
C96    C     0.48281   0.07348   0.08390   0.01267  Uiso   1.00
C97    C     0.42120   0.10438   0.04122   0.01267  Uiso   1.00
C98    C     0.71720   0.99951   0.09929   0.01267  Uiso   1.00
C99    C     0.84108   0.95704   0.08540   0.01267  Uiso   1.00
C100   C     0.99987   0.89592   0.03954   0.01267  Uiso   1.00
C101   C     0.04251   0.88361   0.08977   0.01267  Uiso   1.00
C102   C     0.94670   0.92076   0.11744   0.01267  Uiso   1.00
C103   C     0.05677   0.86509   0.99937   0.01267  Uiso   1.00
C104   C     0.00152   0.88054   0.95122   0.01267  Uiso   1.00
C105   C     0.91149   0.93326   0.88176   0.01267  Uiso   1.00
C106   C     0.98019   0.87615   0.86967   0.01267  Uiso   1.00
C107   C     0.03389   0.84322   0.91280   0.01267  Uiso   1.00
C108   C     0.85059   0.98253   0.84589   0.01267  Uiso   1.00
C109   C     0.39365   0.16850   0.93340   0.01267  Uiso   1.00
C110   C     0.28974   0.17492   0.89760   0.01267  Uiso   1.00
C111   C     0.20006   0.22968   0.88200   0.01267  Uiso   1.00
C112   C     0.21214   0.27817   0.90335   0.01267  Uiso   1.00
C113   C     0.30653   0.27084   0.93850   0.01267  Uiso   1.00
C114   C     0.39675   0.21610   0.95280   0.01267  Uiso   1.00
C115   C     0.68829   0.00871   0.15371   0.01267  Uiso   1.00
C116   C     0.70285   0.06410   0.16180   0.01267  Uiso   1.00
C117   C     0.65563   0.07936   0.20978   0.01267  Uiso   1.00
C118   C     0.59555   0.03909   0.25021   0.01267  Uiso   1.00
C119   C     0.59024   0.98236   0.24356   0.01267  Uiso   1.00
C120   C     0.63736   0.96848   0.19520   0.01267  Uiso   1.00
C121   C     0.17984   0.81308   0.00504   0.01267  Uiso   1.00
C122   C     0.29745   0.81012   0.96478   0.01267  Uiso   1.00
C123   C     0.39989   0.75807   0.96275   0.01267  Uiso   1.00
C124   C     0.39167   0.70982   0.00224   0.01267  Uiso   1.00
C125   C     0.28434   0.71326   0.04546   0.01267  Uiso   1.00
C126   C     0.18065   0.76472   0.04678   0.01267  Uiso   1.00
C127   C     0.89322   0.98201   0.78955   0.01267  Uiso   1.00
C128   C     0.83167   0.94871   0.76595   0.01267  Uiso   1.00
C129   C     0.86897   0.95126   0.71240   0.01267  Uiso   1.00
C130   C     0.96412   0.98888   0.68468   0.01267  Uiso   1.00
C131   C     0.02861   0.02306   0.70752   0.01267  Uiso   1.00
C132   C     0.99252   0.01885   0.76051   0.01267  Uiso   1.00
C133   C     0.58827   0.40736   0.59650   0.01267  Uiso   1.00
C134   C     0.56672   0.38051   0.64945   0.01267  Uiso   1.00
C135   C     0.59788   0.41766   0.67758   0.01267  Uiso   1.00
C136   C     0.64577   0.46783   0.64223   0.01267  Uiso   1.00
C137   C     0.56098   0.38751   0.55413   0.01267  Uiso   1.00
C138   C     0.60488   0.41211   0.50313   0.01267  Uiso   1.00
C139   C     0.72128   0.46465   0.43379   0.01267  Uiso   1.00
C140   C     0.64019   0.42652   0.41610   0.01267  Uiso   1.00
C141   C     0.56680   0.39562   0.45878   0.01267  Uiso   1.00
C142   C     0.81600   0.50049   0.40071   0.01267  Uiso   1.00
C143   C     0.88352   0.54296   0.41460   0.01267  Uiso   1.00
C144   C     0.93533   0.60408   0.46046   0.01267  Uiso   1.00
C145   C     0.01589   0.61639   0.41023   0.01267  Uiso   1.00
C146   C     0.98490   0.57924   0.38256   0.01267  Uiso   1.00
C147   C     0.92123   0.63491   0.50063   0.01267  Uiso   1.00
C148   C     0.83328   0.61946   0.54878   0.01267  Uiso   1.00
C149   C     0.72651   0.56674   0.61824   0.01267  Uiso   1.00
C150   C     0.72601   0.62385   0.63033   0.01267  Uiso   1.00
C151   C     0.78991   0.65678   0.58720   0.01267  Uiso   1.00
C152   C     0.67901   0.51747   0.65411   0.01267  Uiso   1.00
C153   C     0.49555   0.33150   0.56660   0.01267  Uiso   1.00
C154   C     0.36226   0.32508   0.60240   0.01267  Uiso   1.00
C155   C     0.31174   0.27032   0.61800   0.01267  Uiso   1.00
C156   C     0.39366   0.22183   0.59665   0.01267  Uiso   1.00
C157   C     0.51587   0.22916   0.56150   0.01267  Uiso   1.00
C158   C     0.56565   0.28390   0.54720   0.01267  Uiso   1.00
C159   C     0.85071   0.49129   0.34629   0.01267  Uiso   1.00
C160   C     0.92875   0.43590   0.33820   0.01267  Uiso   1.00
C161   C     0.94477   0.42064   0.29022   0.01267  Uiso   1.00
C162   C     0.88485   0.46091   0.24979   0.01267  Uiso   1.00
C163   C     0.81616   0.51764   0.25644   0.01267  Uiso   1.00
C164   C     0.80104   0.53152   0.30480   0.01267  Uiso   1.00
C165   C     0.99796   0.68692   0.49496   0.01267  Uiso   1.00
C166   C     0.07235   0.68988   0.53522   0.01267  Uiso   1.00
C167   C     0.12071   0.74193   0.53725   0.01267  Uiso   1.00
C168   C     0.10373   0.79018   0.49776   0.01267  Uiso   1.00
C169   C     0.04306   0.78674   0.45454   0.01267  Uiso   1.00
C170   C     0.99215   0.73528   0.45322   0.01267  Uiso   1.00
C171   C     0.66478   0.51799   0.71045   0.01267  Uiso   1.00
C172   C     0.54633   0.55129   0.73405   0.01267  Uiso   1.00
C173   C     0.53263   0.54874   0.78760   0.01267  Uiso   1.00
C174   C     0.63768   0.51112   0.81532   0.01267  Uiso   1.00
C175   C     0.75919   0.47694   0.79248   0.01267  Uiso   1.00
C176   C     0.77188   0.48115   0.73949   0.01267  Uiso   1.00
S1     S     0.89665   0.65100   0.11592   0.01267  Uiso   1.00
S2     S     0.48541   0.93711   0.69159   0.01267  Uiso   1.00
S3     S     0.49617   0.35957   0.00305   0.01267  Uiso   1.00
S4     S     0.99330   0.00895   0.38201   0.01267  Uiso   1.00
S5     S     0.66357   0.84900   0.38408   0.01267  Uiso   1.00
S6     S     0.11411   0.56289   0.80841   0.01267  Uiso   1.00
S7     S     0.85879   0.14043   0.49695   0.01267  Uiso   1.00
S8     S     0.38426   0.49105   0.11799   0.01267  Uiso   1.00
S9     S     0.10335   0.34900   0.88408   0.01267  Uiso   1.00
S10    S     0.51459   0.06289   0.30841   0.01267  Uiso   1.00
S11    S     0.50383   0.64043   0.99695   0.01267  Uiso   1.00
S12    S     0.00670   0.99105   0.61799   0.01267  Uiso   1.00
S13    S     0.33643   0.15100   0.61592   0.01267  Uiso   1.00
S14    S     0.88589   0.43711   0.19159   0.01267  Uiso   1.00
S15    S     0.14121   0.85957   0.50305   0.01267  Uiso   1.00
S16    S     0.61574   0.50895   0.88201   0.01267  Uiso   1.00
N1     N     0.30660   0.95947   0.09373   0.01267  Uiso   1.00
N2     N     0.36314   0.95633   0.98699   0.01267  Uiso   1.00
N3     N     0.12185   0.05853   0.96177   0.01267  Uiso   1.00
N4     N     0.08079   0.06566   0.06816   0.01267  Uiso   1.00
N5     N     0.35980   0.54053   0.40627   0.01267  Uiso   1.00
N6     N     0.30646   0.54367   0.51301   0.01267  Uiso   1.00
N7     N     0.14215   0.44147   0.53823   0.01267  Uiso   1.00
N8     N     0.21461   0.43434   0.43184   0.01267  Uiso   1.00
N9     N     0.69340   0.04053   0.90627   0.01267  Uiso   1.00
N10    N     0.63686   0.04367   0.01301   0.01267  Uiso   1.00
N11    N     0.87815   0.94147   0.03823   0.01267  Uiso   1.00
N12    N     0.91921   0.93434   0.93184   0.01267  Uiso   1.00
N13    N     0.64020   0.45947   0.59373   0.01267  Uiso   1.00
N14    N     0.69354   0.45633   0.48699   0.01267  Uiso   1.00
N15    N     0.85785   0.55853   0.46177   0.01267  Uiso   1.00
N16    N     0.78539   0.56566   0.56816   0.01267  Uiso   1.00
O1     O     0.40380   0.01151   0.56429   0.01267  Uiso   1.00
O2     O     0.76884   0.01703   0.49349   0.01267  Uiso   1.00
O3     O     0.35722   0.07484   0.43072   0.01267  Uiso   1.00
O4     O     0.49770   0.89404   0.49796   0.01267  Uiso   1.00
O5     O     0.79694   0.60815   0.11737   0.01267  Uiso   1.00
O6     O     0.02461   0.64613   0.07505   0.01267  Uiso   1.00
O7     O     0.94169   0.64929   0.16493   0.01267  Uiso   1.00
O8     O     0.36199   0.93104   0.66618   0.01267  Uiso   1.00
O9     O     0.58250   0.88114   0.70526   0.01267  Uiso   1.00
O10    O     0.56735   0.98405   0.66185   0.01267  Uiso   1.00
O11    O     0.37932   0.34868   0.04708   0.01267  Uiso   1.00
O12    O     0.43596   0.38392   0.95436   0.01267  Uiso   1.00
O13    O     0.59922   0.39591   0.01205   0.01267  Uiso   1.00
O14    O     0.13417   0.00869   0.40037   0.01267  Uiso   1.00
O15    O     0.88919   0.06347   0.38755   0.01267  Uiso   1.00
O16    O     0.92783   0.95507   0.40547   0.01267  Uiso   1.00
O17    O     0.97960   0.48849   0.93571   0.01267  Uiso   1.00
O18    O     0.27936   0.48297   0.00651   0.01267  Uiso   1.00
O19    O     0.86278   0.42516   0.06928   0.01267  Uiso   1.00
O20    O     0.88970   0.60596   0.00204   0.01267  Uiso   1.00
O21    O     0.52246   0.89185   0.38263   0.01267  Uiso   1.00
O22    O     0.74579   0.85387   0.42495   0.01267  Uiso   1.00
O23    O     0.75591   0.85071   0.33507   0.01267  Uiso   1.00
O24    O     0.95921   0.56896   0.83382   0.01267  Uiso   1.00
O25    O     0.16890   0.61886   0.79474   0.01267  Uiso   1.00
O26    O     0.21325   0.51595   0.83815   0.01267  Uiso   1.00
O27    O     0.77508   0.15132   0.45292   0.01267  Uiso   1.00
O28    O     0.77424   0.11608   0.54564   0.01267  Uiso   1.00
O29    O     0.00718   0.10409   0.48795   0.01267  Uiso   1.00
O30    O     0.54323   0.49131   0.09963   0.01267  Uiso   1.00
O31    O     0.34021   0.43653   0.11245   0.01267  Uiso   1.00
O32    O     0.28837   0.54493   0.09453   0.01267  Uiso   1.00
O33    O     0.59620   0.98849   0.43571   0.01267  Uiso   1.00
O34    O     0.23116   0.98297   0.50651   0.01267  Uiso   1.00
O35    O     0.64278   0.92516   0.56928   0.01267  Uiso   1.00
O36    O     0.50230   0.10596   0.50204   0.01267  Uiso   1.00
O37    O     0.20306   0.39185   0.88263   0.01267  Uiso   1.00
O38    O     0.97539   0.35387   0.92495   0.01267  Uiso   1.00
O39    O     0.05831   0.35071   0.83507   0.01267  Uiso   1.00
O40    O     0.63801   0.06896   0.33382   0.01267  Uiso   1.00
O41    O     0.41750   0.11886   0.29474   0.01267  Uiso   1.00
O42    O     0.43265   0.01595   0.33815   0.01267  Uiso   1.00
O43    O     0.62068   0.65132   0.95292   0.01267  Uiso   1.00
O44    O     0.56404   0.61608   0.04564   0.01267  Uiso   1.00
O45    O     0.40078   0.60409   0.98795   0.01267  Uiso   1.00
O46    O     0.86583   0.99131   0.59963   0.01267  Uiso   1.00
O47    O     0.11081   0.93653   0.61245   0.01267  Uiso   1.00
O48    O     0.07217   0.04493   0.59453   0.01267  Uiso   1.00
O49    O     0.02040   0.51151   0.06429   0.01267  Uiso   1.00
O50    O     0.72064   0.51703   0.99349   0.01267  Uiso   1.00
O51    O     0.13722   0.57484   0.93072   0.01267  Uiso   1.00
O52    O     0.11030   0.39404   0.99796   0.01267  Uiso   1.00
O53    O     0.47754   0.10815   0.61737   0.01267  Uiso   1.00
O54    O     0.25421   0.14613   0.57505   0.01267  Uiso   1.00
O55    O     0.24409   0.14929   0.66493   0.01267  Uiso   1.00
O56    O     0.04079   0.43104   0.16618   0.01267  Uiso   1.00
O57    O     0.83110   0.38114   0.20526   0.01267  Uiso   1.00
O58    O     0.78675   0.48405   0.16185   0.01267  Uiso   1.00
O59    O     0.22492   0.84868   0.54708   0.01267  Uiso   1.00
O60    O     0.22576   0.88392   0.45436   0.01267  Uiso   1.00
O61    O     0.99282   0.89591   0.51205   0.01267  Uiso   1.00
O62    O     0.45677   0.50869   0.90037   0.01267  Uiso   1.00
O63    O     0.65979   0.56347   0.88755   0.01267  Uiso   1.00
O64    O     0.71163   0.45507   0.90547   0.01267  Uiso   1.00
