data_image0
_cell_length_a       16.143
_cell_length_b       7.7507
_cell_length_c       27.374
_cell_angle_alpha    90
_cell_angle_beta     93.077
_cell_angle_gamma    90

_symmetry_space_group_name_H-M    "P 1"
_symmetry_int_tables_number       1

loop_
  _symmetry_equiv_pos_as_xyz
  'x, y, z'

loop_
  _atom_site_label
  _atom_site_occupancy
  _atom_site_fract_x
  _atom_site_fract_y
  _atom_site_fract_z
  _atom_site_thermal_displace_type
  _atom_site_B_iso_or_equiv
  _atom_site_type_symbol
  C1       1.0000 0.78970  0.40790  0.66230  Biso   1.000  C
  C2       1.0000 0.80230  0.28300  0.62040  Biso   1.000  C
  H1       1.0000 0.82200  0.17300  0.63400  Biso   1.000  H
  C3       1.0000 0.98340  0.28860  0.38670  Biso   1.000  C
  H2       1.0000 0.98410  0.27440  0.42190  Biso   1.000  H
  H3       1.0000 0.99430  0.40900  0.37970  Biso   1.000  H
  C4       1.0000 0.05150  0.17560  0.36580  Biso   1.000  C
  H4       1.0000 0.10530  0.21270  0.37930  Biso   1.000  H
  H5       1.0000 0.04340  0.05650  0.37530  Biso   1.000  H
  C5       1.0000 0.04920  0.18820  0.31090  Biso   1.000  C
  H6       1.0000 0.06200  0.30800  0.30200  Biso   1.000  H
  C6       1.0000 0.96360  0.14580  0.29030  Biso   1.000  C
  H7       1.0000 0.95320  0.02410  0.29550  Biso   1.000  H
  H8       1.0000 0.96130  0.16620  0.25530  Biso   1.000  H
  C7       1.0000 0.89580  0.24950  0.31270  Biso   1.000  C
  H9       1.0000 0.89960  0.36890  0.30240  Biso   1.000  H
  H10      1.0000 0.84220  0.20530  0.30100  Biso   1.000  H
  C8       1.0000 0.83840  0.20780  0.39280  Biso   1.000  C
  C9       1.0000 0.70450  0.12050  0.39930  Biso   1.000  C
  C10      1.0000 0.78460  0.18250  0.46760  Biso   1.000  C
  C11      1.0000 0.48150  0.04560  0.38350  Biso   1.000  C
  H11      1.0000 0.47460  0.17000  0.38340  Biso   1.000  H
  H12      1.0000 0.43900  0.99630  0.40300  Biso   1.000  H
  C12      1.0000 0.47060  0.97770  0.33090  Biso   1.000  C
  H13      1.0000 0.47600  0.85200  0.33200  Biso   1.000  H
  C13      1.0000 0.54230  0.05200  0.30280  Biso   1.000  C
  H14      1.0000 0.53890  0.00650  0.26970  Biso   1.000  H
  H15      1.0000 0.53630  0.17630  0.30070  Biso   1.000  H
  C14      1.0000 0.62680  0.00990  0.32640  Biso   1.000  C
  H16      1.0000 0.63650  0.88660  0.32450  Biso   1.000  H
  H17      1.0000 0.66940  0.06820  0.30890  Biso   1.000  H
  C15      1.0000 0.56680  0.00020  0.40650  Biso   1.000  C
  H18      1.0000 0.57270  0.04900  0.43920  Biso   1.000  H
  H19      1.0000 0.57190  0.87590  0.40940  Biso   1.000  H
  C16      1.0000 0.86520  0.34720  0.58540  Biso   1.000  C
  H20      1.0000 0.91910  0.35480  0.60270  Biso   1.000  H
  H21      1.0000 0.84960  0.46230  0.57450  Biso   1.000  H
  C17      1.0000 0.72070  0.25080  0.59200  Biso   1.000  C
  H22      1.0000 0.69750  0.36050  0.58100  Biso   1.000  H
  H23      1.0000 0.68220  0.19820  0.61350  Biso   1.000  H
  C18      1.0000 0.87160  0.23200  0.54160  Biso   1.000  C
  H24      1.0000 0.90840  0.28480  0.51910  Biso   1.000  H
  H25      1.0000 0.89570  0.12260  0.55210  Biso   1.000  H
  C19      1.0000 0.72940  0.13690  0.54870  Biso   1.000  C
  H26      1.0000 0.74480  0.02180  0.55980  Biso   1.000  H
  H27      1.0000 0.67630  0.12890  0.53040  Biso   1.000  H
  C20      1.0000 0.11370  0.07290  0.29070  Biso   1.000  C
  C21      1.0000 0.38850  0.02210  0.30620  Biso   1.000  C
  Ce1      1.0000 0.22396  0.87143  0.23388  Biso   1.000  Ce
  N1       1.0000 0.70820  0.13250  0.44860  Biso   1.000  N
  N2       1.0000 0.63130  0.06500  0.37770  Biso   1.000  N
  N3       1.0000 0.85010  0.21550  0.44250  Biso   1.000  N
  N4       1.0000 0.76430  0.16600  0.36950  Biso   1.000  N
  N5       1.0000 0.90250  0.24100  0.36530  Biso   1.000  N
  N6       1.0000 0.79170  0.20070  0.51640  Biso   1.000  N
  O1       1.0000 0.78290  0.34750  0.70580  Biso   1.000  O
  O2       1.0000 0.78610  0.56580  0.65520  Biso   1.000  O
  O3       1.0000 0.34820  0.90570  0.28420  Biso   1.000  O
  O4       1.0000 0.09800  0.91750  0.28060  Biso   1.000  O
  O5       1.0000 0.18770  0.12730  0.28420  Biso   1.000  O
  O6       1.0000 0.36500  0.17690  0.30700  Biso   1.000  O
  C22      1.0000 0.71030  0.90790  0.83770  Biso   1.000  C
  C23      1.0000 0.69770  0.78300  0.87960  Biso   1.000  C
  H28      1.0000 0.67800  0.67300  0.86600  Biso   1.000  H
  C24      1.0000 0.51660  0.78860  0.11330  Biso   1.000  C
  H29      1.0000 0.51590  0.77440  0.07810  Biso   1.000  H
  H30      1.0000 0.50570  0.90900  0.12030  Biso   1.000  H
  C25      1.0000 0.44850  0.67560  0.13420  Biso   1.000  C
  H31      1.0000 0.39470  0.71270  0.12070  Biso   1.000  H
  H32      1.0000 0.45660  0.55650  0.12470  Biso   1.000  H
  C26      1.0000 0.45080  0.68820  0.18910  Biso   1.000  C
  H33      1.0000 0.43800  0.80800  0.19800  Biso   1.000  H
  C27      1.0000 0.53640  0.64580  0.20970  Biso   1.000  C
  H34      1.0000 0.54680  0.52410  0.20450  Biso   1.000  H
  H35      1.0000 0.53870  0.66620  0.24470  Biso   1.000  H
  C28      1.0000 0.60420  0.74950  0.18730  Biso   1.000  C
  H36      1.0000 0.60040  0.86890  0.19760  Biso   1.000  H
  H37      1.0000 0.65780  0.70530  0.19900  Biso   1.000  H
  C29      1.0000 0.66160  0.70780  0.10720  Biso   1.000  C
  C30      1.0000 0.79550  0.62050  0.10070  Biso   1.000  C
  C31      1.0000 0.71540  0.68250  0.03240  Biso   1.000  C
  C32      1.0000 0.01850  0.54560  0.11650  Biso   1.000  C
  H38      1.0000 0.02540  0.67000  0.11660  Biso   1.000  H
  H39      1.0000 0.06100  0.49630  0.09700  Biso   1.000  H
  C33      1.0000 0.02940  0.47770  0.16910  Biso   1.000  C
  H40      1.0000 0.02400  0.35200  0.16800  Biso   1.000  H
  C34      1.0000 0.95770  0.55200  0.19720  Biso   1.000  C
  H41      1.0000 0.96110  0.50650  0.23030  Biso   1.000  H
  H42      1.0000 0.96370  0.67630  0.19930  Biso   1.000  H
  C35      1.0000 0.87320  0.50990  0.17360  Biso   1.000  C
  H43      1.0000 0.86350  0.38660  0.17550  Biso   1.000  H
  H44      1.0000 0.83060  0.56820  0.19110  Biso   1.000  H
  C36      1.0000 0.93320  0.50020  0.09350  Biso   1.000  C
  H45      1.0000 0.92730  0.54900  0.06080  Biso   1.000  H
  H46      1.0000 0.92810  0.37590  0.09060  Biso   1.000  H
  C37      1.0000 0.63480  0.84720  0.91460  Biso   1.000  C
  H47      1.0000 0.58090  0.85480  0.89730  Biso   1.000  H
  H48      1.0000 0.65040  0.96230  0.92550  Biso   1.000  H
  C38      1.0000 0.77930  0.75080  0.90800  Biso   1.000  C
  H49      1.0000 0.80250  0.86050  0.91900  Biso   1.000  H
  H50      1.0000 0.81780  0.69820  0.88650  Biso   1.000  H
  C39      1.0000 0.62840  0.73200  0.95840  Biso   1.000  C
  H51      1.0000 0.59160  0.78480  0.98090  Biso   1.000  H
  H52      1.0000 0.60430  0.62260  0.94790  Biso   1.000  H
  C40      1.0000 0.77060  0.63690  0.95130  Biso   1.000  C
  H53      1.0000 0.75520  0.52180  0.94020  Biso   1.000  H
  H54      1.0000 0.82370  0.62890  0.96960  Biso   1.000  H
  C41      1.0000 0.38630  0.57290  0.20930  Biso   1.000  C
  C42      1.0000 0.11150  0.52210  0.19380  Biso   1.000  C
  Ce2      1.0000 0.27604  0.37143  0.26613  Biso   1.000  Ce
  N7       1.0000 0.79180  0.63250  0.05140  Biso   1.000  N
  N8       1.0000 0.86870  0.56500  0.12230  Biso   1.000  N
  N9       1.0000 0.64990  0.71550  0.05750  Biso   1.000  N
  N10      1.0000 0.73570  0.66600  0.13050  Biso   1.000  N
  N11      1.0000 0.59750  0.74100  0.13470  Biso   1.000  N
  N12      1.0000 0.70830  0.70070  0.98360  Biso   1.000  N
  O7       1.0000 0.71710  0.84750  0.79420  Biso   1.000  O
  O8       1.0000 0.71390  0.06580  0.84480  Biso   1.000  O
  O9       1.0000 0.15180  0.40570  0.21580  Biso   1.000  O
  O10      1.0000 0.40200  0.41750  0.21940  Biso   1.000  O
  O11      1.0000 0.31230  0.62730  0.21580  Biso   1.000  O
  O12      1.0000 0.13500  0.67690  0.19300  Biso   1.000  O
  C43      1.0000 0.21030  0.59210  0.33770  Biso   1.000  C
  C44      1.0000 0.19770  0.71700  0.37960  Biso   1.000  C
  H55      1.0000 0.17800  0.82700  0.36600  Biso   1.000  H
  C45      1.0000 0.01660  0.71140  0.61330  Biso   1.000  C
  H56      1.0000 0.01590  0.72560  0.57810  Biso   1.000  H
  H57      1.0000 0.00570  0.59100  0.62030  Biso   1.000  H
  C46      1.0000 0.94850  0.82440  0.63420  Biso   1.000  C
  H58      1.0000 0.89470  0.78730  0.62070  Biso   1.000  H
  H59      1.0000 0.95660  0.94350  0.62470  Biso   1.000  H
  C47      1.0000 0.95080  0.81180  0.68910  Biso   1.000  C
  H60      1.0000 0.93800  0.69200  0.69800  Biso   1.000  H
  C48      1.0000 0.03640  0.85420  0.70970  Biso   1.000  C
  H61      1.0000 0.04680  0.97590  0.70450  Biso   1.000  H
  H62      1.0000 0.03870  0.83380  0.74470  Biso   1.000  H
  C49      1.0000 0.10420  0.75050  0.68730  Biso   1.000  C
  H63      1.0000 0.10040  0.63110  0.69760  Biso   1.000  H
  H64      1.0000 0.15780  0.79470  0.69900  Biso   1.000  H
  C50      1.0000 0.16160  0.79220  0.60720  Biso   1.000  C
  C51      1.0000 0.29550  0.87950  0.60070  Biso   1.000  C
  C52      1.0000 0.21540  0.81750  0.53240  Biso   1.000  C
  C53      1.0000 0.51850  0.95440  0.61650  Biso   1.000  C
  H65      1.0000 0.52540  0.83000  0.61660  Biso   1.000  H
  H66      1.0000 0.56100  0.00370  0.59700  Biso   1.000  H
  C54      1.0000 0.52940  0.02230  0.66910  Biso   1.000  C
  H67      1.0000 0.52400  0.14800  0.66800  Biso   1.000  H
  C55      1.0000 0.45770  0.94800  0.69720  Biso   1.000  C
  H68      1.0000 0.46110  0.99350  0.73030  Biso   1.000  H
  H69      1.0000 0.46370  0.82370  0.69930  Biso   1.000  H
  C56      1.0000 0.37320  0.99010  0.67360  Biso   1.000  C
  H70      1.0000 0.36350  0.11340  0.67550  Biso   1.000  H
  H71      1.0000 0.33060  0.93180  0.69110  Biso   1.000  H
  C57      1.0000 0.43320  0.99980  0.59350  Biso   1.000  C
  H72      1.0000 0.42730  0.95100  0.56080  Biso   1.000  H
  H73      1.0000 0.42810  0.12410  0.59060  Biso   1.000  H
  C58      1.0000 0.13480  0.65280  0.41460  Biso   1.000  C
  H74      1.0000 0.08090  0.64520  0.39730  Biso   1.000  H
  H75      1.0000 0.15040  0.53770  0.42550  Biso   1.000  H
  C59      1.0000 0.27930  0.74920  0.40800  Biso   1.000  C
  H76      1.0000 0.30250  0.63950  0.41900  Biso   1.000  H
  H77      1.0000 0.31780  0.80180  0.38650  Biso   1.000  H
  C60      1.0000 0.12840  0.76800  0.45840  Biso   1.000  C
  H78      1.0000 0.09160  0.71520  0.48090  Biso   1.000  H
  H79      1.0000 0.10430  0.87740  0.44790  Biso   1.000  H
  C61      1.0000 0.27060  0.86310  0.45130  Biso   1.000  C
  H80      1.0000 0.25520  0.97820  0.44020  Biso   1.000  H
  H81      1.0000 0.32370  0.87110  0.46960  Biso   1.000  H
  C62      1.0000 0.88630  0.92710  0.70930  Biso   1.000  C
  C63      1.0000 0.61150  0.97790  0.69380  Biso   1.000  C
  Ce3      1.0000 0.77604  0.12857  0.76613  Biso   1.000  Ce
  N13      1.0000 0.29180  0.86750  0.55140  Biso   1.000  N
  N14      1.0000 0.36870  0.93500  0.62230  Biso   1.000  N
  N15      1.0000 0.14990  0.78450  0.55750  Biso   1.000  N
  N16      1.0000 0.23570  0.83400  0.63050  Biso   1.000  N
  N17      1.0000 0.09750  0.75900  0.63470  Biso   1.000  N
  N18      1.0000 0.20830  0.79930  0.48360  Biso   1.000  N
  O13      1.0000 0.21710  0.65250  0.29420  Biso   1.000  O
  O14      1.0000 0.21390  0.43420  0.34480  Biso   1.000  O
  O15      1.0000 0.65180  0.09430  0.71580  Biso   1.000  O
  O16      1.0000 0.90200  0.08250  0.71940  Biso   1.000  O
  O17      1.0000 0.81230  0.87270  0.71580  Biso   1.000  O
  O18      1.0000 0.63500  0.82310  0.69300  Biso   1.000  O
  C64      1.0000 0.28970  0.09210  0.16230  Biso   1.000  C
  C65      1.0000 0.30230  0.21700  0.12040  Biso   1.000  C
  H82      1.0000 0.32200  0.32700  0.13400  Biso   1.000  H
  C66      1.0000 0.48340  0.21140  0.88670  Biso   1.000  C
  H83      1.0000 0.48410  0.22560  0.92190  Biso   1.000  H
  H84      1.0000 0.49430  0.09100  0.87970  Biso   1.000  H
  C67      1.0000 0.55150  0.32440  0.86580  Biso   1.000  C
  H85      1.0000 0.60530  0.28730  0.87930  Biso   1.000  H
  H86      1.0000 0.54340  0.44350  0.87530  Biso   1.000  H
  C68      1.0000 0.54920  0.31180  0.81090  Biso   1.000  C
  H87      1.0000 0.56200  0.19200  0.80200  Biso   1.000  H
  C69      1.0000 0.46360  0.35420  0.79030  Biso   1.000  C
  H88      1.0000 0.45320  0.47590  0.79550  Biso   1.000  H
  H89      1.0000 0.46130  0.33380  0.75530  Biso   1.000  H
  C70      1.0000 0.39580  0.25050  0.81270  Biso   1.000  C
  H90      1.0000 0.39960  0.13110  0.80240  Biso   1.000  H
  H91      1.0000 0.34220  0.29470  0.80100  Biso   1.000  H
  C71      1.0000 0.33840  0.29220  0.89280  Biso   1.000  C
  C72      1.0000 0.20450  0.37950  0.89930  Biso   1.000  C
  C73      1.0000 0.28460  0.31750  0.96760  Biso   1.000  C
  C74      1.0000 0.98150  0.45440  0.88350  Biso   1.000  C
  H92      1.0000 0.97460  0.33000  0.88340  Biso   1.000  H
  H93      1.0000 0.93900  0.50370  0.90300  Biso   1.000  H
  C75      1.0000 0.97060  0.52230  0.83090  Biso   1.000  C
  H94      1.0000 0.97600  0.64800  0.83200  Biso   1.000  H
  C76      1.0000 0.04230  0.44800  0.80280  Biso   1.000  C
  H95      1.0000 0.03890  0.49350  0.76970  Biso   1.000  H
  H96      1.0000 0.03630  0.32370  0.80070  Biso   1.000  H
  C77      1.0000 0.12680  0.49010  0.82640  Biso   1.000  C
  H97      1.0000 0.13650  0.61340  0.82450  Biso   1.000  H
  H98      1.0000 0.16940  0.43180  0.80890  Biso   1.000  H
  C78      1.0000 0.06680  0.49980  0.90650  Biso   1.000  C
  H99      1.0000 0.07270  0.45100  0.93920  Biso   1.000  H
  H100     1.0000 0.07190  0.62410  0.90940  Biso   1.000  H
  C79      1.0000 0.36520  0.15280  0.08540  Biso   1.000  C
  H101     1.0000 0.41910  0.14520  0.10270  Biso   1.000  H
  H102     1.0000 0.34960  0.03770  0.07450  Biso   1.000  H
  C80      1.0000 0.22070  0.24920  0.09200  Biso   1.000  C
  H103     1.0000 0.19750  0.13950  0.08100  Biso   1.000  H
  H104     1.0000 0.18220  0.30180  0.11350  Biso   1.000  H
  C81      1.0000 0.37160  0.26800  0.04160  Biso   1.000  C
  H105     1.0000 0.40840  0.21520  0.01910  Biso   1.000  H
  H106     1.0000 0.39570  0.37740  0.05210  Biso   1.000  H
  C82      1.0000 0.22940  0.36310  0.04870  Biso   1.000  C
  H107     1.0000 0.24480  0.47820  0.05980  Biso   1.000  H
  H108     1.0000 0.17630  0.37110  0.03040  Biso   1.000  H
  C83      1.0000 0.61370  0.42710  0.79070  Biso   1.000  C
  C84      1.0000 0.88850  0.47790  0.80620  Biso   1.000  C
  Ce4      1.0000 0.72396  0.62857  0.73388  Biso   1.000  Ce
  N19      1.0000 0.20820  0.36750  0.94860  Biso   1.000  N
  N20      1.0000 0.13130  0.43500  0.87770  Biso   1.000  N
  N21      1.0000 0.35010  0.28450  0.94250  Biso   1.000  N
  N22      1.0000 0.26430  0.33400  0.86950  Biso   1.000  N
  N23      1.0000 0.40250  0.25900  0.86530  Biso   1.000  N
  N24      1.0000 0.29170  0.29930  0.01640  Biso   1.000  N
  O19      1.0000 0.28290  0.15250  0.20580  Biso   1.000  O
  O20      1.0000 0.28610  0.93420  0.15520  Biso   1.000  O
  O21      1.0000 0.84820  0.59430  0.78420  Biso   1.000  O
  O22      1.0000 0.59800  0.58250  0.78060  Biso   1.000  O
  O23      1.0000 0.68770  0.37270  0.78420  Biso   1.000  O
  O24      1.0000 0.86500  0.32310  0.80700  Biso   1.000  O
