data_image0
_cell_length_a       17.564
_cell_length_b       25.629
_cell_length_c       20.8
_cell_angle_alpha    90
_cell_angle_beta     90
_cell_angle_gamma    90

_symmetry_space_group_name_H-M    "P 1"
_symmetry_int_tables_number       1

loop_
  _symmetry_equiv_pos_as_xyz
  'x, y, z'

loop_
  _atom_site_label
  _atom_site_occupancy
  _atom_site_fract_x
  _atom_site_fract_y
  _atom_site_fract_z
  _atom_site_thermal_displace_type
  _atom_site_B_iso_or_equiv
  _atom_site_type_symbol
  Co1      1.0000 0.99689  0.68198  0.56165  Biso   1.000  Co
  O1       1.0000 0.06700  0.62160  0.51710  Biso   1.000  O
  O2       1.0000 0.11980  0.68640  0.55880  Biso   1.000  O
  O3       1.0000 0.82700  0.69552  0.61470  Biso   1.000  O
  O4       1.0000 0.89500  0.65940  0.53560  Biso   1.000  O
  O5       1.0000 0.56430  0.30783  0.21720  Biso   1.000  O
  O6       1.0000 0.49550  0.35590  0.14710  Biso   1.000  O
  C1       1.0000 0.12030  0.64860  0.52680  Biso   1.000  C
  C2       1.0000 0.20080  0.62770  0.50970  Biso   1.000  C
  C3       1.0000 0.26060  0.65600  0.51390  Biso   1.000  C
  H1       1.0000 0.25480  0.68930  0.53090  Biso   1.000  H
  C4       1.0000 0.33320  0.64120  0.49520  Biso   1.000  C
  H2       1.0000 0.37400  0.66420  0.49800  Biso   1.000  H
  C5       1.0000 0.34240  0.59210  0.47270  Biso   1.000  C
  C6       1.0000 0.28240  0.55780  0.47290  Biso   1.000  C
  H3       1.0000 0.28790  0.52320  0.46030  Biso   1.000  H
  C7       1.0000 0.21110  0.57850  0.49370  Biso   1.000  C
  H4       1.0000 0.16960  0.55600  0.49590  Biso   1.000  H
  C8       1.0000 0.83130  0.66970  0.57230  Biso   1.000  C
  C9       1.0000 0.76200  0.64120  0.53690  Biso   1.000  C
  C10      1.0000 0.76420  0.61470  0.48380  Biso   1.000  C
  H5       1.0000 0.81080  0.60990  0.46330  Biso   1.000  H
  C11      1.0000 0.69750  0.59260  0.45590  Biso   1.000  C
  H6       1.0000 0.69880  0.57790  0.41500  Biso   1.000  H
  C12      1.0000 0.62970  0.59380  0.49160  Biso   1.000  C
  C13      1.0000 0.62940  0.61960  0.54910  Biso   1.000  C
  H7       1.0000 0.58430  0.62200  0.57230  Biso   1.000  H
  C14      1.0000 0.69510  0.64230  0.57370  Biso   1.000  C
  H8       1.0000 0.69470  0.65810  0.61400  Biso   1.000  H
  C15      1.0000 0.52430  0.34670  0.20300  Biso   1.000  C
  C16      1.0000 0.51550  0.38600  0.25350  Biso   1.000  C
  C17      1.0000 0.46060  0.42690  0.24530  Biso   1.000  C
  H9       1.0000 0.42860  0.42690  0.20960  Biso   1.000  H
  C18      1.0000 0.45540  0.46510  0.28890  Biso   1.000  C
  H10      1.0000 0.42010  0.49150  0.28200  Biso   1.000  H
  C19      1.0000 0.50140  0.46760  0.34600  Biso   1.000  C
  C20      1.0000 0.55670  0.42520  0.35220  Biso   1.000  C
  H11      1.0000 0.58910  0.42390  0.38750  Biso   1.000  H
  C21      1.0000 0.56050  0.38760  0.30590  Biso   1.000  C
  H12      1.0000 0.59670  0.36140  0.31080  Biso   1.000  H
  C22      1.0000 0.42090  0.57020  0.45330  Biso   1.000  C
  C23      1.0000 0.48650  0.59040  0.47960  Biso   1.000  C
  H13      1.0000 0.48250  0.61730  0.50940  Biso   1.000  H
  C24      1.0000 0.55950  0.57180  0.46320  Biso   1.000  C
  C25      1.0000 0.56300  0.53160  0.42180  Biso   1.000  C
  H14      1.0000 0.61030  0.51720  0.41260  Biso   1.000  H
  C26      1.0000 0.49640  0.50960  0.39100  Biso   1.000  C
  C27      1.0000 0.42700  0.53070  0.41170  Biso   1.000  C
  H15      1.0000 0.38240  0.51620  0.39550  Biso   1.000  H
  Co2      1.0000 0.50311  0.31802  0.06165  Biso   1.000  Co
  O7       1.0000 0.43300  0.37840  0.01710  Biso   1.000  O
  O8       1.0000 0.38020  0.31360  0.05880  Biso   1.000  O
  O9       1.0000 0.67300  0.30448  0.11470  Biso   1.000  O
  O10      1.0000 0.60500  0.34060  0.03560  Biso   1.000  O
  O11      1.0000 0.93570  0.69217  0.71720  Biso   1.000  O
  O12      1.0000 0.00450  0.64410  0.64710  Biso   1.000  O
  C28      1.0000 0.37970  0.35140  0.02680  Biso   1.000  C
  C29      1.0000 0.29920  0.37230  0.00970  Biso   1.000  C
  C30      1.0000 0.23940  0.34400  0.01390  Biso   1.000  C
  H16      1.0000 0.24520  0.31070  0.03090  Biso   1.000  H
  C31      1.0000 0.16680  0.35880  0.99520  Biso   1.000  C
  H17      1.0000 0.12600  0.33580  0.99800  Biso   1.000  H
  C32      1.0000 0.15760  0.40790  0.97270  Biso   1.000  C
  C33      1.0000 0.21760  0.44220  0.97290  Biso   1.000  C
  H18      1.0000 0.21210  0.47680  0.96030  Biso   1.000  H
  C34      1.0000 0.28890  0.42150  0.99370  Biso   1.000  C
  H19      1.0000 0.33040  0.44400  0.99590  Biso   1.000  H
  C35      1.0000 0.66870  0.33030  0.07230  Biso   1.000  C
  C36      1.0000 0.73800  0.35880  0.03690  Biso   1.000  C
  C37      1.0000 0.73580  0.38530  0.98380  Biso   1.000  C
  H20      1.0000 0.68920  0.39010  0.96330  Biso   1.000  H
  C38      1.0000 0.80250  0.40740  0.95590  Biso   1.000  C
  H21      1.0000 0.80120  0.42210  0.91500  Biso   1.000  H
  C39      1.0000 0.87030  0.40620  0.99160  Biso   1.000  C
  C40      1.0000 0.87060  0.38040  0.04910  Biso   1.000  C
  H22      1.0000 0.91570  0.37800  0.07230  Biso   1.000  H
  C41      1.0000 0.80490  0.35770  0.07370  Biso   1.000  C
  H23      1.0000 0.80530  0.34190  0.11400  Biso   1.000  H
  C42      1.0000 0.97570  0.65330  0.70300  Biso   1.000  C
  C43      1.0000 0.98450  0.61400  0.75350  Biso   1.000  C
  C44      1.0000 0.03940  0.57310  0.74530  Biso   1.000  C
  H24      1.0000 0.07140  0.57310  0.70960  Biso   1.000  H
  C45      1.0000 0.04460  0.53490  0.78890  Biso   1.000  C
  H25      1.0000 0.07990  0.50850  0.78200  Biso   1.000  H
  C46      1.0000 0.99860  0.53240  0.84600  Biso   1.000  C
  C47      1.0000 0.94330  0.57480  0.85220  Biso   1.000  C
  H26      1.0000 0.91090  0.57610  0.88750  Biso   1.000  H
  C48      1.0000 0.93950  0.61240  0.80590  Biso   1.000  C
  H27      1.0000 0.90330  0.63860  0.81080  Biso   1.000  H
  C49      1.0000 0.07910  0.42980  0.95330  Biso   1.000  C
  C50      1.0000 0.01350  0.40960  0.97960  Biso   1.000  C
  H28      1.0000 0.01750  0.38270  0.00940  Biso   1.000  H
  C51      1.0000 0.94050  0.42820  0.96320  Biso   1.000  C
  C52      1.0000 0.93700  0.46840  0.92180  Biso   1.000  C
  H29      1.0000 0.88970  0.48280  0.91260  Biso   1.000  H
  C53      1.0000 0.00360  0.49040  0.89100  Biso   1.000  C
  C54      1.0000 0.07300  0.46930  0.91170  Biso   1.000  C
  H30      1.0000 0.11760  0.48380  0.89550  Biso   1.000  H
  Co3      1.0000 0.99689  0.81802  0.56165  Biso   1.000  Co
  O13      1.0000 0.06700  0.87840  0.51710  Biso   1.000  O
  O14      1.0000 0.11980  0.81360  0.55880  Biso   1.000  O
  O15      1.0000 0.82700  0.80448  0.61470  Biso   1.000  O
  O16      1.0000 0.89500  0.84060  0.53560  Biso   1.000  O
  O17      1.0000 0.56430  0.19217  0.21720  Biso   1.000  O
  O18      1.0000 0.49550  0.14410  0.14710  Biso   1.000  O
  C55      1.0000 0.12030  0.85140  0.52680  Biso   1.000  C
  C56      1.0000 0.20080  0.87230  0.50970  Biso   1.000  C
  C57      1.0000 0.26060  0.84400  0.51390  Biso   1.000  C
  H31      1.0000 0.25480  0.81070  0.53090  Biso   1.000  H
  C58      1.0000 0.33320  0.85880  0.49520  Biso   1.000  C
  H32      1.0000 0.37400  0.83580  0.49800  Biso   1.000  H
  C59      1.0000 0.34240  0.90790  0.47270  Biso   1.000  C
  C60      1.0000 0.28240  0.94220  0.47290  Biso   1.000  C
  H33      1.0000 0.28790  0.97680  0.46030  Biso   1.000  H
  C61      1.0000 0.21110  0.92150  0.49370  Biso   1.000  C
  H34      1.0000 0.16960  0.94400  0.49590  Biso   1.000  H
  C62      1.0000 0.83130  0.83030  0.57230  Biso   1.000  C
  C63      1.0000 0.76200  0.85880  0.53690  Biso   1.000  C
  C64      1.0000 0.76420  0.88530  0.48380  Biso   1.000  C
  H35      1.0000 0.81080  0.89010  0.46330  Biso   1.000  H
  C65      1.0000 0.69750  0.90740  0.45590  Biso   1.000  C
  H36      1.0000 0.69880  0.92210  0.41500  Biso   1.000  H
  C66      1.0000 0.62970  0.90620  0.49160  Biso   1.000  C
  C67      1.0000 0.62940  0.88040  0.54910  Biso   1.000  C
  H37      1.0000 0.58430  0.87800  0.57230  Biso   1.000  H
  C68      1.0000 0.69510  0.85770  0.57370  Biso   1.000  C
  H38      1.0000 0.69470  0.84190  0.61400  Biso   1.000  H
  C69      1.0000 0.52430  0.15330  0.20300  Biso   1.000  C
  C70      1.0000 0.51550  0.11400  0.25350  Biso   1.000  C
  C71      1.0000 0.46060  0.07310  0.24530  Biso   1.000  C
  H39      1.0000 0.42860  0.07310  0.20960  Biso   1.000  H
  C72      1.0000 0.45540  0.03490  0.28890  Biso   1.000  C
  H40      1.0000 0.42010  0.00850  0.28200  Biso   1.000  H
  C73      1.0000 0.50140  0.03240  0.34600  Biso   1.000  C
  C74      1.0000 0.55670  0.07480  0.35220  Biso   1.000  C
  H41      1.0000 0.58910  0.07610  0.38750  Biso   1.000  H
  C75      1.0000 0.56050  0.11240  0.30590  Biso   1.000  C
  H42      1.0000 0.59670  0.13860  0.31080  Biso   1.000  H
  C76      1.0000 0.42090  0.92980  0.45330  Biso   1.000  C
  C77      1.0000 0.48650  0.90960  0.47960  Biso   1.000  C
  H43      1.0000 0.48250  0.88270  0.50940  Biso   1.000  H
  C78      1.0000 0.55950  0.92820  0.46320  Biso   1.000  C
  C79      1.0000 0.56300  0.96840  0.42180  Biso   1.000  C
  H44      1.0000 0.61030  0.98280  0.41260  Biso   1.000  H
  C80      1.0000 0.49640  0.99040  0.39100  Biso   1.000  C
  C81      1.0000 0.42700  0.96930  0.41170  Biso   1.000  C
  H45      1.0000 0.38240  0.98380  0.39550  Biso   1.000  H
  Co4      1.0000 0.50311  0.18198  0.06165  Biso   1.000  Co
  O19      1.0000 0.43300  0.12160  0.01710  Biso   1.000  O
  O20      1.0000 0.38020  0.18640  0.05880  Biso   1.000  O
  O21      1.0000 0.67300  0.19552  0.11470  Biso   1.000  O
  O22      1.0000 0.60500  0.15940  0.03560  Biso   1.000  O
  O23      1.0000 0.93570  0.80783  0.71720  Biso   1.000  O
  O24      1.0000 0.00450  0.85590  0.64710  Biso   1.000  O
  C82      1.0000 0.37970  0.14860  0.02680  Biso   1.000  C
  C83      1.0000 0.29920  0.12770  0.00970  Biso   1.000  C
  C84      1.0000 0.23940  0.15600  0.01390  Biso   1.000  C
  H46      1.0000 0.24520  0.18930  0.03090  Biso   1.000  H
  C85      1.0000 0.16680  0.14120  0.99520  Biso   1.000  C
  H47      1.0000 0.12600  0.16420  0.99800  Biso   1.000  H
  C86      1.0000 0.15760  0.09210  0.97270  Biso   1.000  C
  C87      1.0000 0.21760  0.05780  0.97290  Biso   1.000  C
  H48      1.0000 0.21210  0.02320  0.96030  Biso   1.000  H
  C88      1.0000 0.28890  0.07850  0.99370  Biso   1.000  C
  H49      1.0000 0.33040  0.05600  0.99590  Biso   1.000  H
  C89      1.0000 0.66870  0.16970  0.07230  Biso   1.000  C
  C90      1.0000 0.73800  0.14120  0.03690  Biso   1.000  C
  C91      1.0000 0.73580  0.11470  0.98380  Biso   1.000  C
  H50      1.0000 0.68920  0.10990  0.96330  Biso   1.000  H
  C92      1.0000 0.80250  0.09260  0.95590  Biso   1.000  C
  H51      1.0000 0.80120  0.07790  0.91500  Biso   1.000  H
  C93      1.0000 0.87030  0.09380  0.99160  Biso   1.000  C
  C94      1.0000 0.87060  0.11960  0.04910  Biso   1.000  C
  H52      1.0000 0.91570  0.12200  0.07230  Biso   1.000  H
  C95      1.0000 0.80490  0.14230  0.07370  Biso   1.000  C
  H53      1.0000 0.80530  0.15810  0.11400  Biso   1.000  H
  C96      1.0000 0.97570  0.84670  0.70300  Biso   1.000  C
  C97      1.0000 0.98450  0.88600  0.75350  Biso   1.000  C
  C98      1.0000 0.03940  0.92690  0.74530  Biso   1.000  C
  H54      1.0000 0.07140  0.92690  0.70960  Biso   1.000  H
  C99      1.0000 0.04460  0.96510  0.78890  Biso   1.000  C
  H55      1.0000 0.07990  0.99150  0.78200  Biso   1.000  H
  C100     1.0000 0.99860  0.96760  0.84600  Biso   1.000  C
  C101     1.0000 0.94330  0.92520  0.85220  Biso   1.000  C
  H56      1.0000 0.91090  0.92390  0.88750  Biso   1.000  H
  C102     1.0000 0.93950  0.88760  0.80590  Biso   1.000  C
  H57      1.0000 0.90330  0.86140  0.81080  Biso   1.000  H
  C103     1.0000 0.07910  0.07020  0.95330  Biso   1.000  C
  C104     1.0000 0.01350  0.09040  0.97960  Biso   1.000  C
  H58      1.0000 0.01750  0.11730  0.00940  Biso   1.000  H
  C105     1.0000 0.94050  0.07180  0.96320  Biso   1.000  C
  C106     1.0000 0.93700  0.03160  0.92180  Biso   1.000  C
  H59      1.0000 0.88970  0.01720  0.91260  Biso   1.000  H
  C107     1.0000 0.00360  0.00960  0.89100  Biso   1.000  C
  C108     1.0000 0.07300  0.03070  0.91170  Biso   1.000  C
  H60      1.0000 0.11760  0.01620  0.89550  Biso   1.000  H
  Co5      1.0000 0.88638  0.75000  0.66226  Biso   1.000  Co
  O25      1.0000 0.98120  0.75000  0.60110  Biso   1.000  O
  Co6      1.0000 0.61362  0.25000  0.16226  Biso   1.000  Co
  O26      1.0000 0.51880  0.25000  0.10110  Biso   1.000  O
  Co7      1.0000 0.00311  0.18198  0.43835  Biso   1.000  Co
  O27      1.0000 0.93300  0.12160  0.48290  Biso   1.000  O
  O28      1.0000 0.88020  0.18640  0.44120  Biso   1.000  O
  O29      1.0000 0.17300  0.19552  0.38530  Biso   1.000  O
  O30      1.0000 0.10500  0.15940  0.46440  Biso   1.000  O
  O31      1.0000 0.43570  0.80783  0.78280  Biso   1.000  O
  O32      1.0000 0.50450  0.85590  0.85290  Biso   1.000  O
  C109     1.0000 0.87970  0.14860  0.47320  Biso   1.000  C
  C110     1.0000 0.79920  0.12770  0.49030  Biso   1.000  C
  C111     1.0000 0.73940  0.15600  0.48610  Biso   1.000  C
  H61      1.0000 0.74520  0.18930  0.46910  Biso   1.000  H
  C112     1.0000 0.66680  0.14120  0.50480  Biso   1.000  C
  H62      1.0000 0.62600  0.16420  0.50200  Biso   1.000  H
  C113     1.0000 0.65760  0.09210  0.52730  Biso   1.000  C
  C114     1.0000 0.71760  0.05780  0.52710  Biso   1.000  C
  H63      1.0000 0.71210  0.02320  0.53970  Biso   1.000  H
  C115     1.0000 0.78890  0.07850  0.50630  Biso   1.000  C
  H64      1.0000 0.83040  0.05600  0.50410  Biso   1.000  H
  C116     1.0000 0.16870  0.16970  0.42770  Biso   1.000  C
  C117     1.0000 0.23800  0.14120  0.46310  Biso   1.000  C
  C118     1.0000 0.23580  0.11470  0.51620  Biso   1.000  C
  H65      1.0000 0.18920  0.10990  0.53670  Biso   1.000  H
  C119     1.0000 0.30250  0.09260  0.54410  Biso   1.000  C
  H66      1.0000 0.30120  0.07790  0.58500  Biso   1.000  H
  C120     1.0000 0.37030  0.09380  0.50840  Biso   1.000  C
  C121     1.0000 0.37060  0.11960  0.45090  Biso   1.000  C
  H67      1.0000 0.41570  0.12200  0.42770  Biso   1.000  H
  C122     1.0000 0.30490  0.14230  0.42630  Biso   1.000  C
  H68      1.0000 0.30530  0.15810  0.38600  Biso   1.000  H
  C123     1.0000 0.47570  0.84670  0.79700  Biso   1.000  C
  C124     1.0000 0.48450  0.88600  0.74650  Biso   1.000  C
  C125     1.0000 0.53940  0.92690  0.75470  Biso   1.000  C
  H69      1.0000 0.57140  0.92690  0.79040  Biso   1.000  H
  C126     1.0000 0.54460  0.96510  0.71110  Biso   1.000  C
  H70      1.0000 0.57990  0.99150  0.71800  Biso   1.000  H
  C127     1.0000 0.49860  0.96760  0.65400  Biso   1.000  C
  C128     1.0000 0.44330  0.92520  0.64780  Biso   1.000  C
  H71      1.0000 0.41090  0.92390  0.61250  Biso   1.000  H
  C129     1.0000 0.43950  0.88760  0.69410  Biso   1.000  C
  H72      1.0000 0.40330  0.86140  0.68920  Biso   1.000  H
  C130     1.0000 0.57910  0.07020  0.54670  Biso   1.000  C
  C131     1.0000 0.51350  0.09040  0.52040  Biso   1.000  C
  H73      1.0000 0.51750  0.11730  0.49060  Biso   1.000  H
  C132     1.0000 0.44050  0.07180  0.53680  Biso   1.000  C
  C133     1.0000 0.43700  0.03160  0.57820  Biso   1.000  C
  H74      1.0000 0.38970  0.01720  0.58740  Biso   1.000  H
  C134     1.0000 0.50360  0.00960  0.60900  Biso   1.000  C
  C135     1.0000 0.57300  0.03070  0.58830  Biso   1.000  C
  H75      1.0000 0.61760  0.01620  0.60450  Biso   1.000  H
  Co8      1.0000 0.49689  0.81802  0.93835  Biso   1.000  Co
  O33      1.0000 0.56700  0.87840  0.98290  Biso   1.000  O
  O34      1.0000 0.61980  0.81360  0.94120  Biso   1.000  O
  O35      1.0000 0.32700  0.80448  0.88530  Biso   1.000  O
  O36      1.0000 0.39500  0.84060  0.96440  Biso   1.000  O
  O37      1.0000 0.06430  0.19217  0.28280  Biso   1.000  O
  O38      1.0000 0.99550  0.14410  0.35290  Biso   1.000  O
  C136     1.0000 0.62030  0.85140  0.97320  Biso   1.000  C
  C137     1.0000 0.70080  0.87230  0.99030  Biso   1.000  C
  C138     1.0000 0.76060  0.84400  0.98610  Biso   1.000  C
  H76      1.0000 0.75480  0.81070  0.96910  Biso   1.000  H
  C139     1.0000 0.83320  0.85880  0.00480  Biso   1.000  C
  H77      1.0000 0.87400  0.83580  0.00200  Biso   1.000  H
  C140     1.0000 0.84240  0.90790  0.02730  Biso   1.000  C
  C141     1.0000 0.78240  0.94220  0.02710  Biso   1.000  C
  H78      1.0000 0.78790  0.97680  0.03970  Biso   1.000  H
  C142     1.0000 0.71110  0.92150  0.00630  Biso   1.000  C
  H79      1.0000 0.66960  0.94400  0.00410  Biso   1.000  H
  C143     1.0000 0.33130  0.83030  0.92770  Biso   1.000  C
  C144     1.0000 0.26200  0.85880  0.96310  Biso   1.000  C
  C145     1.0000 0.26420  0.88530  0.01620  Biso   1.000  C
  H80      1.0000 0.31080  0.89010  0.03670  Biso   1.000  H
  C146     1.0000 0.19750  0.90740  0.04410  Biso   1.000  C
  H81      1.0000 0.19880  0.92210  0.08500  Biso   1.000  H
  C147     1.0000 0.12970  0.90620  0.00840  Biso   1.000  C
  C148     1.0000 0.12940  0.88040  0.95090  Biso   1.000  C
  H82      1.0000 0.08430  0.87800  0.92770  Biso   1.000  H
  C149     1.0000 0.19510  0.85770  0.92630  Biso   1.000  C
  H83      1.0000 0.19470  0.84190  0.88600  Biso   1.000  H
  C150     1.0000 0.02430  0.15330  0.29700  Biso   1.000  C
  C151     1.0000 0.01550  0.11400  0.24650  Biso   1.000  C
  C152     1.0000 0.96060  0.07310  0.25470  Biso   1.000  C
  H84      1.0000 0.92860  0.07310  0.29040  Biso   1.000  H
  C153     1.0000 0.95540  0.03490  0.21110  Biso   1.000  C
  H85      1.0000 0.92010  0.00850  0.21800  Biso   1.000  H
  C154     1.0000 0.00140  0.03240  0.15400  Biso   1.000  C
  C155     1.0000 0.05670  0.07480  0.14780  Biso   1.000  C
  H86      1.0000 0.08910  0.07610  0.11250  Biso   1.000  H
  C156     1.0000 0.06050  0.11240  0.19410  Biso   1.000  C
  H87      1.0000 0.09670  0.13860  0.18920  Biso   1.000  H
  C157     1.0000 0.92090  0.92980  0.04670  Biso   1.000  C
  C158     1.0000 0.98650  0.90960  0.02040  Biso   1.000  C
  H88      1.0000 0.98250  0.88270  0.99060  Biso   1.000  H
  C159     1.0000 0.05950  0.92820  0.03680  Biso   1.000  C
  C160     1.0000 0.06300  0.96840  0.07820  Biso   1.000  C
  H89      1.0000 0.11030  0.98280  0.08740  Biso   1.000  H
  C161     1.0000 0.99640  0.99040  0.10900  Biso   1.000  C
  C162     1.0000 0.92700  0.96930  0.08830  Biso   1.000  C
  H90      1.0000 0.88240  0.98380  0.10450  Biso   1.000  H
  Co9      1.0000 0.00311  0.31802  0.43835  Biso   1.000  Co
  O39      1.0000 0.93300  0.37840  0.48290  Biso   1.000  O
  O40      1.0000 0.88020  0.31360  0.44120  Biso   1.000  O
  O41      1.0000 0.17300  0.30448  0.38530  Biso   1.000  O
  O42      1.0000 0.10500  0.34060  0.46440  Biso   1.000  O
  O43      1.0000 0.43570  0.69217  0.78280  Biso   1.000  O
  O44      1.0000 0.50450  0.64410  0.85290  Biso   1.000  O
  C163     1.0000 0.87970  0.35140  0.47320  Biso   1.000  C
  C164     1.0000 0.79920  0.37230  0.49030  Biso   1.000  C
  C165     1.0000 0.73940  0.34400  0.48610  Biso   1.000  C
  H91      1.0000 0.74520  0.31070  0.46910  Biso   1.000  H
  C166     1.0000 0.66680  0.35880  0.50480  Biso   1.000  C
  H92      1.0000 0.62600  0.33580  0.50200  Biso   1.000  H
  C167     1.0000 0.65760  0.40790  0.52730  Biso   1.000  C
  C168     1.0000 0.71760  0.44220  0.52710  Biso   1.000  C
  H93      1.0000 0.71210  0.47680  0.53970  Biso   1.000  H
  C169     1.0000 0.78890  0.42150  0.50630  Biso   1.000  C
  H94      1.0000 0.83040  0.44400  0.50410  Biso   1.000  H
  C170     1.0000 0.16870  0.33030  0.42770  Biso   1.000  C
  C171     1.0000 0.23800  0.35880  0.46310  Biso   1.000  C
  C172     1.0000 0.23580  0.38530  0.51620  Biso   1.000  C
  H95      1.0000 0.18920  0.39010  0.53670  Biso   1.000  H
  C173     1.0000 0.30250  0.40740  0.54410  Biso   1.000  C
  H96      1.0000 0.30120  0.42210  0.58500  Biso   1.000  H
  C174     1.0000 0.37030  0.40620  0.50840  Biso   1.000  C
  C175     1.0000 0.37060  0.38040  0.45090  Biso   1.000  C
  H97      1.0000 0.41570  0.37800  0.42770  Biso   1.000  H
  C176     1.0000 0.30490  0.35770  0.42630  Biso   1.000  C
  H98      1.0000 0.30530  0.34190  0.38600  Biso   1.000  H
  C177     1.0000 0.47570  0.65330  0.79700  Biso   1.000  C
  C178     1.0000 0.48450  0.61400  0.74650  Biso   1.000  C
  C179     1.0000 0.53940  0.57310  0.75470  Biso   1.000  C
  H99      1.0000 0.57140  0.57310  0.79040  Biso   1.000  H
  C180     1.0000 0.54460  0.53490  0.71110  Biso   1.000  C
  H100     1.0000 0.57990  0.50850  0.71800  Biso   1.000  H
  C181     1.0000 0.49860  0.53240  0.65400  Biso   1.000  C
  C182     1.0000 0.44330  0.57480  0.64780  Biso   1.000  C
  H101     1.0000 0.41090  0.57610  0.61250  Biso   1.000  H
  C183     1.0000 0.43950  0.61240  0.69410  Biso   1.000  C
  H102     1.0000 0.40330  0.63860  0.68920  Biso   1.000  H
  C184     1.0000 0.57910  0.42980  0.54670  Biso   1.000  C
  C185     1.0000 0.51350  0.40960  0.52040  Biso   1.000  C
  H103     1.0000 0.51750  0.38270  0.49060  Biso   1.000  H
  C186     1.0000 0.44050  0.42820  0.53680  Biso   1.000  C
  C187     1.0000 0.43700  0.46840  0.57820  Biso   1.000  C
  H104     1.0000 0.38970  0.48280  0.58740  Biso   1.000  H
  C188     1.0000 0.50360  0.49040  0.60900  Biso   1.000  C
  C189     1.0000 0.57300  0.46930  0.58830  Biso   1.000  C
  H105     1.0000 0.61760  0.48380  0.60450  Biso   1.000  H
  Co10     1.0000 0.49689  0.68198  0.93835  Biso   1.000  Co
  O45      1.0000 0.56700  0.62160  0.98290  Biso   1.000  O
  O46      1.0000 0.61980  0.68640  0.94120  Biso   1.000  O
  O47      1.0000 0.32700  0.69552  0.88530  Biso   1.000  O
  O48      1.0000 0.39500  0.65940  0.96440  Biso   1.000  O
  O49      1.0000 0.06430  0.30783  0.28280  Biso   1.000  O
  O50      1.0000 0.99550  0.35590  0.35290  Biso   1.000  O
  C190     1.0000 0.62030  0.64860  0.97320  Biso   1.000  C
  C191     1.0000 0.70080  0.62770  0.99030  Biso   1.000  C
  C192     1.0000 0.76060  0.65600  0.98610  Biso   1.000  C
  H106     1.0000 0.75480  0.68930  0.96910  Biso   1.000  H
  C193     1.0000 0.83320  0.64120  0.00480  Biso   1.000  C
  H107     1.0000 0.87400  0.66420  0.00200  Biso   1.000  H
  C194     1.0000 0.84240  0.59210  0.02730  Biso   1.000  C
  C195     1.0000 0.78240  0.55780  0.02710  Biso   1.000  C
  H108     1.0000 0.78790  0.52320  0.03970  Biso   1.000  H
  C196     1.0000 0.71110  0.57850  0.00630  Biso   1.000  C
  H109     1.0000 0.66960  0.55600  0.00410  Biso   1.000  H
  C197     1.0000 0.33130  0.66970  0.92770  Biso   1.000  C
  C198     1.0000 0.26200  0.64120  0.96310  Biso   1.000  C
  C199     1.0000 0.26420  0.61470  0.01620  Biso   1.000  C
  H110     1.0000 0.31080  0.60990  0.03670  Biso   1.000  H
  C200     1.0000 0.19750  0.59260  0.04410  Biso   1.000  C
  H111     1.0000 0.19880  0.57790  0.08500  Biso   1.000  H
  C201     1.0000 0.12970  0.59380  0.00840  Biso   1.000  C
  C202     1.0000 0.12940  0.61960  0.95090  Biso   1.000  C
  H112     1.0000 0.08430  0.62200  0.92770  Biso   1.000  H
  C203     1.0000 0.19510  0.64230  0.92630  Biso   1.000  C
  H113     1.0000 0.19470  0.65810  0.88600  Biso   1.000  H
  C204     1.0000 0.02430  0.34670  0.29700  Biso   1.000  C
  C205     1.0000 0.01550  0.38600  0.24650  Biso   1.000  C
  C206     1.0000 0.96060  0.42690  0.25470  Biso   1.000  C
  H114     1.0000 0.92860  0.42690  0.29040  Biso   1.000  H
  C207     1.0000 0.95540  0.46510  0.21110  Biso   1.000  C
  H115     1.0000 0.92010  0.49150  0.21800  Biso   1.000  H
  C208     1.0000 0.00140  0.46760  0.15400  Biso   1.000  C
  C209     1.0000 0.05670  0.42520  0.14780  Biso   1.000  C
  H116     1.0000 0.08910  0.42390  0.11250  Biso   1.000  H
  C210     1.0000 0.06050  0.38760  0.19410  Biso   1.000  C
  H117     1.0000 0.09670  0.36140  0.18920  Biso   1.000  H
  C211     1.0000 0.92090  0.57020  0.04670  Biso   1.000  C
  C212     1.0000 0.98650  0.59040  0.02040  Biso   1.000  C
  H118     1.0000 0.98250  0.61730  0.99060  Biso   1.000  H
  C213     1.0000 0.05950  0.57180  0.03680  Biso   1.000  C
  C214     1.0000 0.06300  0.53160  0.07820  Biso   1.000  C
  H119     1.0000 0.11030  0.51720  0.08740  Biso   1.000  H
  C215     1.0000 0.99640  0.50960  0.10900  Biso   1.000  C
  C216     1.0000 0.92700  0.53070  0.08830  Biso   1.000  C
  H120     1.0000 0.88240  0.51620  0.10450  Biso   1.000  H
  Co11     1.0000 0.11362  0.25000  0.33774  Biso   1.000  Co
  O51      1.0000 0.01880  0.25000  0.39890  Biso   1.000  O
  Co12     1.0000 0.38638  0.75000  0.83774  Biso   1.000  Co
  O52      1.0000 0.48120  0.75000  0.89890  Biso   1.000  O
