data_image0
_cell_length_a       14.053
_cell_length_b       14.053
_cell_length_c       29.781
_cell_angle_alpha    90
_cell_angle_beta     90
_cell_angle_gamma    90

_symmetry_space_group_name_H-M    "P 1"
_symmetry_int_tables_number       1

loop_
  _symmetry_equiv_pos_as_xyz
  'x, y, z'

loop_
  _atom_site_label
  _atom_site_occupancy
  _atom_site_fract_x
  _atom_site_fract_y
  _atom_site_fract_z
  _atom_site_thermal_displace_type
  _atom_site_B_iso_or_equiv
  _atom_site_type_symbol
  Co1      1.0000 0.42915  0.16248  0.08823  Biso   1.000  Co
  O1       1.0000 0.42350  0.30920  0.09251  Biso   1.000  O
  N1       1.0000 0.42230  0.15440  0.01789  Biso   1.000  N
  C1       1.0000 0.39980  0.14540  0.98151  Biso   1.000  C
  N2       1.0000 0.38320  0.13110  0.93912  Biso   1.000  N
  N3       1.0000 0.27890  0.14100  0.09002  Biso   1.000  N
  C2       1.0000 0.29510  0.13860  0.92520  Biso   1.000  C
  C3       1.0000 0.35870  0.36020  0.06340  Biso   1.000  C
  Co2      1.0000 0.92915  0.66248  0.58823  Biso   1.000  Co
  O2       1.0000 0.92350  0.80920  0.59251  Biso   1.000  O
  N4       1.0000 0.92230  0.65440  0.51789  Biso   1.000  N
  C4       1.0000 0.89980  0.64540  0.48151  Biso   1.000  C
  N5       1.0000 0.88320  0.63110  0.43912  Biso   1.000  N
  N6       1.0000 0.77890  0.64100  0.59002  Biso   1.000  N
  C5       1.0000 0.79510  0.63860  0.42520  Biso   1.000  C
  C6       1.0000 0.85870  0.86020  0.56340  Biso   1.000  C
  Co3      1.0000 0.07085  0.83752  0.58823  Biso   1.000  Co
  O3       1.0000 0.07650  0.69080  0.59251  Biso   1.000  O
  N7       1.0000 0.07770  0.84560  0.51789  Biso   1.000  N
  C7       1.0000 0.10020  0.85460  0.48151  Biso   1.000  C
  N8       1.0000 0.11680  0.86890  0.43912  Biso   1.000  N
  N9       1.0000 0.22110  0.85900  0.59002  Biso   1.000  N
  C8       1.0000 0.20490  0.86140  0.42520  Biso   1.000  C
  C9       1.0000 0.14130  0.63980  0.56340  Biso   1.000  C
  Co4      1.0000 0.57085  0.33752  0.08823  Biso   1.000  Co
  O4       1.0000 0.57650  0.19080  0.09251  Biso   1.000  O
  N10      1.0000 0.57770  0.34560  0.01789  Biso   1.000  N
  C10      1.0000 0.60020  0.35460  0.98151  Biso   1.000  C
  N11      1.0000 0.61680  0.36890  0.93912  Biso   1.000  N
  N12      1.0000 0.72110  0.35900  0.09002  Biso   1.000  N
  C11      1.0000 0.70490  0.36140  0.92520  Biso   1.000  C
  C12      1.0000 0.64130  0.13980  0.06340  Biso   1.000  C
  Co5      1.0000 0.07085  0.16248  0.91177  Biso   1.000  Co
  O5       1.0000 0.07650  0.30920  0.90749  Biso   1.000  O
  N13      1.0000 0.07770  0.15440  0.98211  Biso   1.000  N
  C13      1.0000 0.10020  0.14540  0.01849  Biso   1.000  C
  N14      1.0000 0.11680  0.13110  0.06088  Biso   1.000  N
  N15      1.0000 0.22110  0.14100  0.90998  Biso   1.000  N
  C14      1.0000 0.20490  0.13860  0.07480  Biso   1.000  C
  C15      1.0000 0.14130  0.36020  0.93660  Biso   1.000  C
  Co6      1.0000 0.57085  0.66248  0.41177  Biso   1.000  Co
  O6       1.0000 0.57650  0.80920  0.40749  Biso   1.000  O
  N16      1.0000 0.57770  0.65440  0.48211  Biso   1.000  N
  C16      1.0000 0.60020  0.64540  0.51849  Biso   1.000  C
  N17      1.0000 0.61680  0.63110  0.56088  Biso   1.000  N
  N18      1.0000 0.72110  0.64100  0.40998  Biso   1.000  N
  C17      1.0000 0.70490  0.63860  0.57480  Biso   1.000  C
  C18      1.0000 0.64130  0.86020  0.43660  Biso   1.000  C
  Co7      1.0000 0.42915  0.83752  0.41177  Biso   1.000  Co
  O7       1.0000 0.42350  0.69080  0.40749  Biso   1.000  O
  N19      1.0000 0.42230  0.84560  0.48211  Biso   1.000  N
  C19      1.0000 0.39980  0.85460  0.51849  Biso   1.000  C
  N20      1.0000 0.38320  0.86890  0.56088  Biso   1.000  N
  N21      1.0000 0.27890  0.85900  0.40998  Biso   1.000  N
  C20      1.0000 0.29510  0.86140  0.57480  Biso   1.000  C
  C21      1.0000 0.35870  0.63980  0.43660  Biso   1.000  C
  Co8      1.0000 0.92915  0.33752  0.91177  Biso   1.000  Co
  O8       1.0000 0.92350  0.19080  0.90749  Biso   1.000  O
  N22      1.0000 0.92230  0.34560  0.98211  Biso   1.000  N
  C22      1.0000 0.89980  0.35460  0.01849  Biso   1.000  C
  N23      1.0000 0.88320  0.36890  0.06088  Biso   1.000  N
  N24      1.0000 0.77890  0.35900  0.90998  Biso   1.000  N
  C23      1.0000 0.79510  0.36140  0.07480  Biso   1.000  C
  C24      1.0000 0.85870  0.13980  0.93660  Biso   1.000  C
  Co9      1.0000 0.91248  0.82085  0.66177  Biso   1.000  Co
  O9       1.0000 0.05920  0.82650  0.65749  Biso   1.000  O
  N25      1.0000 0.90440  0.82770  0.73211  Biso   1.000  N
  C25      1.0000 0.89540  0.85020  0.76849  Biso   1.000  C
  N26      1.0000 0.88110  0.86680  0.81088  Biso   1.000  N
  N27      1.0000 0.89100  0.97110  0.65998  Biso   1.000  N
  C26      1.0000 0.88860  0.95490  0.82480  Biso   1.000  C
  C27      1.0000 0.11020  0.89130  0.68660  Biso   1.000  C
  Co10     1.0000 0.41248  0.32085  0.16177  Biso   1.000  Co
  O10      1.0000 0.55920  0.32650  0.15749  Biso   1.000  O
  N28      1.0000 0.40440  0.32770  0.23211  Biso   1.000  N
  C28      1.0000 0.39540  0.35020  0.26849  Biso   1.000  C
  N29      1.0000 0.38110  0.36680  0.31088  Biso   1.000  N
  N30      1.0000 0.39100  0.47110  0.15998  Biso   1.000  N
  C29      1.0000 0.38860  0.45490  0.32480  Biso   1.000  C
  C30      1.0000 0.61020  0.39130  0.18660  Biso   1.000  C
  Co11     1.0000 0.58752  0.17915  0.16177  Biso   1.000  Co
  O11      1.0000 0.44080  0.17350  0.15749  Biso   1.000  O
  N31      1.0000 0.59560  0.17230  0.23211  Biso   1.000  N
  C31      1.0000 0.60460  0.14980  0.26849  Biso   1.000  C
  N32      1.0000 0.61890  0.13320  0.31088  Biso   1.000  N
  N33      1.0000 0.60900  0.02890  0.15998  Biso   1.000  N
  C32      1.0000 0.61140  0.04510  0.32480  Biso   1.000  C
  C33      1.0000 0.38980  0.10870  0.18660  Biso   1.000  C
  Co12     1.0000 0.08752  0.67915  0.66177  Biso   1.000  Co
  O12      1.0000 0.94080  0.67350  0.65749  Biso   1.000  O
  N34      1.0000 0.09560  0.67230  0.73211  Biso   1.000  N
  C34      1.0000 0.10460  0.64980  0.76849  Biso   1.000  C
  N35      1.0000 0.11890  0.63320  0.81088  Biso   1.000  N
  N36      1.0000 0.10900  0.52890  0.65998  Biso   1.000  N
  C35      1.0000 0.11140  0.54510  0.82480  Biso   1.000  C
  C36      1.0000 0.88980  0.60870  0.68660  Biso   1.000  C
  Co13     1.0000 0.58752  0.82085  0.33823  Biso   1.000  Co
  O13      1.0000 0.44080  0.82650  0.34251  Biso   1.000  O
  N37      1.0000 0.59560  0.82770  0.26789  Biso   1.000  N
  C37      1.0000 0.60460  0.85020  0.23151  Biso   1.000  C
  N38      1.0000 0.61890  0.86680  0.18912  Biso   1.000  N
  N39      1.0000 0.60900  0.97110  0.34002  Biso   1.000  N
  C38      1.0000 0.61140  0.95490  0.17520  Biso   1.000  C
  C39      1.0000 0.38980  0.89130  0.31340  Biso   1.000  C
  Co14     1.0000 0.08752  0.32085  0.83823  Biso   1.000  Co
  O14      1.0000 0.94080  0.32650  0.84251  Biso   1.000  O
  N40      1.0000 0.09560  0.32770  0.76789  Biso   1.000  N
  C40      1.0000 0.10460  0.35020  0.73151  Biso   1.000  C
  N41      1.0000 0.11890  0.36680  0.68912  Biso   1.000  N
  N42      1.0000 0.10900  0.47110  0.84002  Biso   1.000  N
  C41      1.0000 0.11140  0.45490  0.67520  Biso   1.000  C
  C42      1.0000 0.88980  0.39130  0.81340  Biso   1.000  C
  Co15     1.0000 0.91248  0.17915  0.83823  Biso   1.000  Co
  O15      1.0000 0.05920  0.17350  0.84251  Biso   1.000  O
  N43      1.0000 0.90440  0.17230  0.76789  Biso   1.000  N
  C43      1.0000 0.89540  0.14980  0.73151  Biso   1.000  C
  N44      1.0000 0.88110  0.13320  0.68912  Biso   1.000  N
  N45      1.0000 0.89100  0.02890  0.84002  Biso   1.000  N
  C44      1.0000 0.88860  0.04510  0.67520  Biso   1.000  C
  C45      1.0000 0.11020  0.10870  0.81340  Biso   1.000  C
  Co16     1.0000 0.41248  0.67915  0.33823  Biso   1.000  Co
  O16      1.0000 0.55920  0.67350  0.34251  Biso   1.000  O
  N46      1.0000 0.40440  0.67230  0.26789  Biso   1.000  N
  C46      1.0000 0.39540  0.64980  0.23151  Biso   1.000  C
  N47      1.0000 0.38110  0.63320  0.18912  Biso   1.000  N
  N48      1.0000 0.39100  0.52890  0.34002  Biso   1.000  N
  C47      1.0000 0.38860  0.54510  0.17520  Biso   1.000  C
  C48      1.0000 0.61020  0.60870  0.31340  Biso   1.000  C
  Co17     1.0000 0.08752  0.17915  0.33823  Biso   1.000  Co
  O17      1.0000 0.94080  0.17350  0.34251  Biso   1.000  O
  N49      1.0000 0.09560  0.17230  0.26789  Biso   1.000  N
  C49      1.0000 0.10460  0.14980  0.23151  Biso   1.000  C
  N50      1.0000 0.11890  0.13320  0.18912  Biso   1.000  N
  N51      1.0000 0.10900  0.02890  0.34002  Biso   1.000  N
  C50      1.0000 0.11140  0.04510  0.17520  Biso   1.000  C
  C51      1.0000 0.88980  0.10870  0.31340  Biso   1.000  C
  Co18     1.0000 0.58752  0.67915  0.83823  Biso   1.000  Co
  O18      1.0000 0.44080  0.67350  0.84251  Biso   1.000  O
  N52      1.0000 0.59560  0.67230  0.76789  Biso   1.000  N
  C52      1.0000 0.60460  0.64980  0.73151  Biso   1.000  C
  N53      1.0000 0.61890  0.63320  0.68912  Biso   1.000  N
  N54      1.0000 0.60900  0.52890  0.84002  Biso   1.000  N
  C53      1.0000 0.61140  0.54510  0.67520  Biso   1.000  C
  C54      1.0000 0.38980  0.60870  0.81340  Biso   1.000  C
  Co19     1.0000 0.41248  0.82085  0.83823  Biso   1.000  Co
  O19      1.0000 0.55920  0.82650  0.84251  Biso   1.000  O
  N55      1.0000 0.40440  0.82770  0.76789  Biso   1.000  N
  C55      1.0000 0.39540  0.85020  0.73151  Biso   1.000  C
  N56      1.0000 0.38110  0.86680  0.68912  Biso   1.000  N
  N57      1.0000 0.39100  0.97110  0.84002  Biso   1.000  N
  C56      1.0000 0.38860  0.95490  0.67520  Biso   1.000  C
  C57      1.0000 0.61020  0.89130  0.81340  Biso   1.000  C
  Co20     1.0000 0.91248  0.32085  0.33823  Biso   1.000  Co
  O20      1.0000 0.05920  0.32650  0.34251  Biso   1.000  O
  N58      1.0000 0.90440  0.32770  0.26789  Biso   1.000  N
  C58      1.0000 0.89540  0.35020  0.23151  Biso   1.000  C
  N59      1.0000 0.88110  0.36680  0.18912  Biso   1.000  N
  N60      1.0000 0.89100  0.47110  0.34002  Biso   1.000  N
  C59      1.0000 0.88860  0.45490  0.17520  Biso   1.000  C
  C60      1.0000 0.11020  0.39130  0.31340  Biso   1.000  C
  Co21     1.0000 0.41248  0.17915  0.66177  Biso   1.000  Co
  O21      1.0000 0.55920  0.17350  0.65749  Biso   1.000  O
  N61      1.0000 0.40440  0.17230  0.73211  Biso   1.000  N
  C61      1.0000 0.39540  0.14980  0.76849  Biso   1.000  C
  N62      1.0000 0.38110  0.13320  0.81088  Biso   1.000  N
  N63      1.0000 0.39100  0.02890  0.65998  Biso   1.000  N
  C62      1.0000 0.38860  0.04510  0.82480  Biso   1.000  C
  C63      1.0000 0.61020  0.10870  0.68660  Biso   1.000  C
  Co22     1.0000 0.91248  0.67915  0.16177  Biso   1.000  Co
  O22      1.0000 0.05920  0.67350  0.15749  Biso   1.000  O
  N64      1.0000 0.90440  0.67230  0.23211  Biso   1.000  N
  C64      1.0000 0.89540  0.64980  0.26849  Biso   1.000  C
  N65      1.0000 0.88110  0.63320  0.31088  Biso   1.000  N
  N66      1.0000 0.89100  0.52890  0.15998  Biso   1.000  N
  C65      1.0000 0.88860  0.54510  0.32480  Biso   1.000  C
  C66      1.0000 0.11020  0.60870  0.18660  Biso   1.000  C
  Co23     1.0000 0.08752  0.82085  0.16177  Biso   1.000  Co
  O23      1.0000 0.94080  0.82650  0.15749  Biso   1.000  O
  N67      1.0000 0.09560  0.82770  0.23211  Biso   1.000  N
  C67      1.0000 0.10460  0.85020  0.26849  Biso   1.000  C
  N68      1.0000 0.11890  0.86680  0.31088  Biso   1.000  N
  N69      1.0000 0.10900  0.97110  0.15998  Biso   1.000  N
  C68      1.0000 0.11140  0.95490  0.32480  Biso   1.000  C
  C69      1.0000 0.88980  0.89130  0.18660  Biso   1.000  C
  Co24     1.0000 0.58752  0.32085  0.66177  Biso   1.000  Co
  O24      1.0000 0.44080  0.32650  0.65749  Biso   1.000  O
  N70      1.0000 0.59560  0.32770  0.73211  Biso   1.000  N
  C70      1.0000 0.60460  0.35020  0.76849  Biso   1.000  C
  N71      1.0000 0.61890  0.36680  0.81088  Biso   1.000  N
  N72      1.0000 0.60900  0.47110  0.65998  Biso   1.000  N
  C71      1.0000 0.61140  0.45490  0.82480  Biso   1.000  C
  C72      1.0000 0.38980  0.39130  0.68660  Biso   1.000  C
  Co25     1.0000 0.57085  0.83752  0.91177  Biso   1.000  Co
  O25      1.0000 0.57650  0.69080  0.90749  Biso   1.000  O
  N73      1.0000 0.57770  0.84560  0.98211  Biso   1.000  N
  C73      1.0000 0.60020  0.85460  0.01849  Biso   1.000  C
  N74      1.0000 0.61680  0.86890  0.06088  Biso   1.000  N
  N75      1.0000 0.72110  0.85900  0.90998  Biso   1.000  N
  C74      1.0000 0.70490  0.86140  0.07480  Biso   1.000  C
  C75      1.0000 0.64130  0.63980  0.93660  Biso   1.000  C
  Co26     1.0000 0.07085  0.33752  0.41177  Biso   1.000  Co
  O26      1.0000 0.07650  0.19080  0.40749  Biso   1.000  O
  N76      1.0000 0.07770  0.34560  0.48211  Biso   1.000  N
  C76      1.0000 0.10020  0.35460  0.51849  Biso   1.000  C
  N77      1.0000 0.11680  0.36890  0.56088  Biso   1.000  N
  N78      1.0000 0.22110  0.35900  0.40998  Biso   1.000  N
  C77      1.0000 0.20490  0.36140  0.57480  Biso   1.000  C
  C78      1.0000 0.14130  0.13980  0.43660  Biso   1.000  C
  Co27     1.0000 0.92915  0.16248  0.41177  Biso   1.000  Co
  O27      1.0000 0.92350  0.30920  0.40749  Biso   1.000  O
  N79      1.0000 0.92230  0.15440  0.48211  Biso   1.000  N
  C79      1.0000 0.89980  0.14540  0.51849  Biso   1.000  C
  N80      1.0000 0.88320  0.13110  0.56088  Biso   1.000  N
  N81      1.0000 0.77890  0.14100  0.40998  Biso   1.000  N
  C80      1.0000 0.79510  0.13860  0.57480  Biso   1.000  C
  C81      1.0000 0.85870  0.36020  0.43660  Biso   1.000  C
  Co28     1.0000 0.42915  0.66248  0.91177  Biso   1.000  Co
  O28      1.0000 0.42350  0.80920  0.90749  Biso   1.000  O
  N82      1.0000 0.42230  0.65440  0.98211  Biso   1.000  N
  C82      1.0000 0.39980  0.64540  0.01849  Biso   1.000  C
  N83      1.0000 0.38320  0.63110  0.06088  Biso   1.000  N
  N84      1.0000 0.27890  0.64100  0.90998  Biso   1.000  N
  C83      1.0000 0.29510  0.63860  0.07480  Biso   1.000  C
  C84      1.0000 0.35870  0.86020  0.93660  Biso   1.000  C
  Co29     1.0000 0.92915  0.83752  0.08823  Biso   1.000  Co
  O29      1.0000 0.92350  0.69080  0.09251  Biso   1.000  O
  N85      1.0000 0.92230  0.84560  0.01789  Biso   1.000  N
  C85      1.0000 0.89980  0.85460  0.98151  Biso   1.000  C
  N86      1.0000 0.88320  0.86890  0.93912  Biso   1.000  N
  N87      1.0000 0.77890  0.85900  0.09002  Biso   1.000  N
  C86      1.0000 0.79510  0.86140  0.92520  Biso   1.000  C
  C87      1.0000 0.85870  0.63980  0.06340  Biso   1.000  C
  Co30     1.0000 0.42915  0.33752  0.58823  Biso   1.000  Co
  O30      1.0000 0.42350  0.19080  0.59251  Biso   1.000  O
  N88      1.0000 0.42230  0.34560  0.51789  Biso   1.000  N
  C88      1.0000 0.39980  0.35460  0.48151  Biso   1.000  C
  N89      1.0000 0.38320  0.36890  0.43912  Biso   1.000  N
  N90      1.0000 0.27890  0.35900  0.59002  Biso   1.000  N
  C89      1.0000 0.29510  0.36140  0.42520  Biso   1.000  C
  C90      1.0000 0.35870  0.13980  0.56340  Biso   1.000  C
  Co31     1.0000 0.57085  0.16248  0.58823  Biso   1.000  Co
  O31      1.0000 0.57650  0.30920  0.59251  Biso   1.000  O
  N91      1.0000 0.57770  0.15440  0.51789  Biso   1.000  N
  C91      1.0000 0.60020  0.14540  0.48151  Biso   1.000  C
  N92      1.0000 0.61680  0.13110  0.43912  Biso   1.000  N
  N93      1.0000 0.72110  0.14100  0.59002  Biso   1.000  N
  C92      1.0000 0.70490  0.13860  0.42520  Biso   1.000  C
  C93      1.0000 0.64130  0.36020  0.56340  Biso   1.000  C
  Co32     1.0000 0.07085  0.66248  0.08823  Biso   1.000  Co
  O32      1.0000 0.07650  0.80920  0.09251  Biso   1.000  O
  N94      1.0000 0.07770  0.65440  0.01789  Biso   1.000  N
  C94      1.0000 0.10020  0.64540  0.98151  Biso   1.000  C
  N95      1.0000 0.11680  0.63110  0.93912  Biso   1.000  N
  N96      1.0000 0.22110  0.64100  0.09002  Biso   1.000  N
  C95      1.0000 0.20490  0.63860  0.92520  Biso   1.000  C
  C96      1.0000 0.14130  0.86020  0.06340  Biso   1.000  C
