data_image0
_cell_length_a       7.051
_cell_length_b       14.5981
_cell_length_c       10.6214
_cell_angle_alpha    90
_cell_angle_beta     108.046
_cell_angle_gamma    90

_symmetry_space_group_name_H-M    "P 1"
_symmetry_int_tables_number       1

loop_
  _symmetry_equiv_pos_as_xyz
  'x, y, z'

loop_
  _atom_site_label
  _atom_site_occupancy
  _atom_site_fract_x
  _atom_site_fract_y
  _atom_site_fract_z
  _atom_site_thermal_displace_type
  _atom_site_B_iso_or_equiv
  _atom_site_type_symbol
  La1      1.0000 0.72435  0.61146  0.49874  Biso   1.000  La
  O1       1.0000 0.39420  0.55791  0.54320  Biso   1.000  O
  O2       1.0000 0.08630  0.59213  0.53600  Biso   1.000  O
  O3       1.0000 0.52090  0.72487  0.58830  Biso   1.000  O
  O4       1.0000 0.91490  0.85192  0.80480  Biso   1.000  O
  O5       1.0000 0.90690  0.71960  0.69610  Biso   1.000  O
  C1       1.0000 0.26190  0.61390  0.55060  Biso   1.000  C
  C2       1.0000 0.31630  0.71310  0.57400  Biso   1.000  C
  H1       1.0000 0.23640  0.74940  0.49990  Biso   1.000  H
  H2       1.0000 0.28910  0.73400  0.65340  Biso   1.000  H
  C3       1.0000 0.60670  0.80480  0.66130  Biso   1.000  C
  H3       1.0000 0.54380  0.81710  0.72890  Biso   1.000  H
  H4       1.0000 0.58490  0.85720  0.60250  Biso   1.000  H
  C4       1.0000 0.82650  0.78990  0.72490  Biso   1.000  C
  La2      1.0000 0.77565  0.11146  0.00126  Biso   1.000  La
  O6       1.0000 0.10580  0.05791  0.95680  Biso   1.000  O
  O7       1.0000 0.41370  0.09213  0.96400  Biso   1.000  O
  O8       1.0000 0.97910  0.22487  0.91170  Biso   1.000  O
  O9       1.0000 0.58510  0.35192  0.69520  Biso   1.000  O
  O10      1.0000 0.59310  0.21960  0.80390  Biso   1.000  O
  C5       1.0000 0.23810  0.11390  0.94940  Biso   1.000  C
  C6       1.0000 0.18370  0.21310  0.92600  Biso   1.000  C
  H5       1.0000 0.26360  0.24940  0.00010  Biso   1.000  H
  H6       1.0000 0.21090  0.23400  0.84660  Biso   1.000  H
  C7       1.0000 0.89330  0.30480  0.83870  Biso   1.000  C
  H7       1.0000 0.95620  0.31710  0.77110  Biso   1.000  H
  H8       1.0000 0.91510  0.35720  0.89750  Biso   1.000  H
  C8       1.0000 0.67350  0.28990  0.77510  Biso   1.000  C
  La3      1.0000 0.27565  0.38854  0.50126  Biso   1.000  La
  O11      1.0000 0.60580  0.44209  0.45680  Biso   1.000  O
  O12      1.0000 0.91370  0.40787  0.46400  Biso   1.000  O
  O13      1.0000 0.47910  0.27513  0.41170  Biso   1.000  O
  O14      1.0000 0.08510  0.14808  0.19520  Biso   1.000  O
  O15      1.0000 0.09310  0.28040  0.30390  Biso   1.000  O
  C9       1.0000 0.73810  0.38610  0.44940  Biso   1.000  C
  C10      1.0000 0.68370  0.28690  0.42600  Biso   1.000  C
  H9       1.0000 0.76360  0.25060  0.50010  Biso   1.000  H
  H10      1.0000 0.71090  0.26600  0.34660  Biso   1.000  H
  C11      1.0000 0.39330  0.19520  0.33870  Biso   1.000  C
  H11      1.0000 0.45620  0.18290  0.27110  Biso   1.000  H
  H12      1.0000 0.41510  0.14280  0.39750  Biso   1.000  H
  C12      1.0000 0.17350  0.21010  0.27510  Biso   1.000  C
  La4      1.0000 0.22435  0.88853  0.99874  Biso   1.000  La
  O16      1.0000 0.89420  0.94209  0.04320  Biso   1.000  O
  O17      1.0000 0.58630  0.90787  0.03600  Biso   1.000  O
  O18      1.0000 0.02090  0.77513  0.08830  Biso   1.000  O
  O19      1.0000 0.41490  0.64808  0.30480  Biso   1.000  O
  O20      1.0000 0.40690  0.78040  0.19610  Biso   1.000  O
  C13      1.0000 0.76190  0.88610  0.05060  Biso   1.000  C
  C14      1.0000 0.81630  0.78690  0.07400  Biso   1.000  C
  H13      1.0000 0.73640  0.75060  0.99990  Biso   1.000  H
  H14      1.0000 0.78910  0.76600  0.15340  Biso   1.000  H
  C15      1.0000 0.10670  0.69520  0.16130  Biso   1.000  C
  H15      1.0000 0.04380  0.68290  0.22890  Biso   1.000  H
  H16      1.0000 0.08490  0.64280  0.10250  Biso   1.000  H
  C16      1.0000 0.32650  0.71010  0.22490  Biso   1.000  C
