data_image0
_cell_length_a       15.3042
_cell_length_b       15.5719
_cell_length_c       16.3522
_cell_angle_alpha    104.723
_cell_angle_beta     105.151
_cell_angle_gamma    101.628

_symmetry_space_group_name_H-M    "P 1"
_symmetry_int_tables_number       1

loop_
  _symmetry_equiv_pos_as_xyz
  'x, y, z'

loop_
  _atom_site_label
  _atom_site_occupancy
  _atom_site_fract_x
  _atom_site_fract_y
  _atom_site_fract_z
  _atom_site_thermal_displace_type
  _atom_site_B_iso_or_equiv
  _atom_site_type_symbol
  Cd1      1.0000 0.75102  0.96630  0.53891  Biso   1.000  Cd
  Cd2      1.0000 0.57445  0.04000  0.12388  Biso   1.000  Cd
  Cd3      1.0000 0.64238  0.00264  0.33746  Biso   1.000  Cd
  O1       1.0000 0.61128  0.84680  0.49752  Biso   1.000  O
  O2       1.0000 0.59191  0.96392  0.45000  Biso   1.000  O
  O3       1.0000 0.15733  0.83111  0.22426  Biso   1.000  O
  O4       1.0000 0.25023  0.96579  0.32065  Biso   1.000  O
  O5       1.0000 0.10920  0.12175  0.09840  Biso   1.000  O
  O6       1.0000 0.16410  0.09203  0.22661  Biso   1.000  O
  O7       1.0000 0.38870  0.56600  0.43940  Biso   1.000  O
  N1       1.0000 0.29490  0.59370  0.32230  Biso   1.000  N
  H1       1.0000 0.24560  0.56670  0.27330  Biso   1.000  H
  C1       1.0000 0.45600  0.83410  0.40860  Biso   1.000  C
  C2       1.0000 0.42430  0.73970  0.39680  Biso   1.000  C
  H2       1.0000 0.46640  0.70910  0.42260  Biso   1.000  H
  C3       1.0000 0.33040  0.69100  0.34680  Biso   1.000  C
  C4       1.0000 0.26860  0.73690  0.31190  Biso   1.000  C
  H3       1.0000 0.20470  0.70350  0.27770  Biso   1.000  H
  C5       1.0000 0.29990  0.83110  0.32670  Biso   1.000  C
  C6       1.0000 0.39420  0.87990  0.37450  Biso   1.000  C
  H4       1.0000 0.41590  0.94430  0.38360  Biso   1.000  H
  C7       1.0000 0.28420  0.43610  0.31580  Biso   1.000  C
  C8       1.0000 0.28500  0.37400  0.36360  Biso   1.000  C
  H5       1.0000 0.31320  0.39660  0.42690  Biso   1.000  H
  C9       1.0000 0.24520  0.27970  0.32020  Biso   1.000  C
  H6       1.0000 0.24610  0.23800  0.35360  Biso   1.000  H
  C10      1.0000 0.20420  0.24650  0.22820  Biso   1.000  C
  C11      1.0000 0.20500  0.30740  0.17950  Biso   1.000  C
  H7       1.0000 0.17800  0.28440  0.11610  Biso   1.000  H
  C12      1.0000 0.24510  0.40150  0.22300  Biso   1.000  C
  H8       1.0000 0.24600  0.44280  0.18920  Biso   1.000  H
  C13      1.0000 0.32770  0.53740  0.36530  Biso   1.000  C
  C14      1.0000 0.55930  0.88430  0.45480  Biso   1.000  C
  C15      1.0000 0.23100  0.87840  0.28860  Biso   1.000  C
  C16      1.0000 0.15530  0.14470  0.18010  Biso   1.000  C
  O8       1.0000 0.72180  0.13220  0.18240  Biso   1.000  O
  O9       1.0000 0.72858  0.02130  0.24341  Biso   1.000  O
  O10      1.0000 0.17409  0.14170  0.44380  Biso   1.000  O
  O11      1.0000 0.07340  0.01148  0.34450  Biso   1.000  O
  O12      1.0000 0.27930  0.86323  0.56097  Biso   1.000  O
  O13      1.0000 0.17200  0.89337  0.45857  Biso   1.000  O
  O14      1.0000 0.90360  0.43170  0.31870  Biso   1.000  O
  N2       1.0000 0.02500  0.39230  0.39590  Biso   1.000  N
  H9       1.0000 0.08200  0.41550  0.43580  Biso   1.000  H
  C17      1.0000 0.86680  0.14970  0.29010  Biso   1.000  C
  C18      1.0000 0.89510  0.24630  0.31590  Biso   1.000  C
  H10      1.0000 0.85080  0.27880  0.29910  Biso   1.000  H
  C19      1.0000 0.98880  0.29430  0.36660  Biso   1.000  C
  C20      1.0000 0.05280  0.24530  0.39000  Biso   1.000  C
  H11      1.0000 0.11650  0.27810  0.42600  Biso   1.000  H
  C21      1.0000 0.02460  0.14930  0.36130  Biso   1.000  C
  C22      1.0000 0.93100  0.10110  0.31170  Biso   1.000  C
  H12      1.0000 0.91110  0.03530  0.29270  Biso   1.000  H
  C23      1.0000 0.04400  0.55350  0.40730  Biso   1.000  C
  C24      1.0000 0.99960  0.62120  0.39590  Biso   1.000  C
  H13      1.0000 0.93290  0.60400  0.36890  Biso   1.000  H
  C25      1.0000 0.05120  0.71310  0.42330  Biso   1.000  C
  H14      1.0000 0.01980  0.75810  0.41330  Biso   1.000  H
  C26      1.0000 0.14740  0.74040  0.46470  Biso   1.000  C
  C27      1.0000 0.19240  0.67390  0.47780  Biso   1.000  C
  H15      1.0000 0.25880  0.69170  0.50670  Biso   1.000  H
  C28      1.0000 0.14110  0.58140  0.44900  Biso   1.000  C
  H16      1.0000 0.17300  0.53650  0.45800  Biso   1.000  H
  C29      1.0000 0.98390  0.45440  0.37080  Biso   1.000  C
  C30      1.0000 0.76530  0.09730  0.23560  Biso   1.000  C
  C31      1.0000 0.09520  0.09750  0.38370  Biso   1.000  C
  C32      1.0000 0.20390  0.84090  0.49700  Biso   1.000  C
  O15      1.0000 0.56720  0.09698  0.27078  Biso   1.000  O
  N3       1.0000 0.54390  0.23650  0.31620  Biso   1.000  N
  C33      1.0000 0.48550  0.29530  0.34070  Biso   1.000  C
  H17      1.0000 0.42850  0.25760  0.34530  Biso   1.000  H
  H18      1.0000 0.46730  0.32440  0.29480  Biso   1.000  H
  H19      1.0000 0.52130  0.34350  0.39860  Biso   1.000  H
  C34      1.0000 0.63490  0.27960  0.30500  Biso   1.000  C
  H20      1.0000 0.66590  0.23170  0.28850  Biso   1.000  H
  H21      1.0000 0.67630  0.32710  0.36150  Biso   1.000  H
  H22      1.0000 0.62200  0.30800  0.25780  Biso   1.000  H
  C35      1.0000 0.51880  0.15010  0.29680  Biso   1.000  C
  C36      1.0000 0.42240  0.10450  0.30190  Biso   1.000  C
  H23      1.0000 0.41100  0.03710  0.28400  Biso   1.000  H
  H24      1.0000 0.37260  0.11950  0.26150  Biso   1.000  H
  H25      1.0000 0.42210  0.12770  0.36340  Biso   1.000  H
  Cd4      1.0000 0.90758  0.05157  0.79284  Biso   1.000  Cd
  O16      1.0000 0.05280  0.14890  0.84980  Biso   1.000  O
  O17      1.0000 0.06501  0.02805  0.89453  Biso   1.000  O
  O18      1.0000 0.50850  0.15460  0.10670  Biso   1.000  O
  O19      1.0000 0.40850  0.02090  0.01320  Biso   1.000  O
  O20      1.0000 0.50490  0.89637  0.10811  Biso   1.000  O
  O21      1.0000 0.52720  0.88218  0.24428  Biso   1.000  O
  O22      1.0000 0.27500  0.42350  0.92210  Biso   1.000  O
  N4       1.0000 0.35980  0.40060  0.04760  Biso   1.000  N
  H26      1.0000 0.40170  0.42860  0.10140  Biso   1.000  H
  C37      1.0000 0.20290  0.15750  0.94350  Biso   1.000  C
  C38      1.0000 0.23330  0.25340  0.96600  Biso   1.000  C
  H27      1.0000 0.19040  0.28570  0.94530  Biso   1.000  H
  C39      1.0000 0.32630  0.30240  0.01860  Biso   1.000  C
  C40      1.0000 0.38840  0.25440  0.04840  Biso   1.000  C
  H28      1.0000 0.45100  0.28740  0.08710  Biso   1.000  H
  C41      1.0000 0.35930  0.15840  0.02180  Biso   1.000  C
  C42      1.0000 0.26590  0.10930  0.97030  Biso   1.000  C
  H29      1.0000 0.24560  0.04370  0.95370  Biso   1.000  H
  C43      1.0000 0.37620  0.55680  0.04310  Biso   1.000  C
  C44      1.0000 0.38780  0.61130  0.98990  Biso   1.000  C
  H30      1.0000 0.36990  0.58310  0.92690  Biso   1.000  H
  C45      1.0000 0.42510  0.70670  0.02710  Biso   1.000  C
  H31      1.0000 0.43290  0.74350  0.98980  Biso   1.000  H
  C46      1.0000 0.45120  0.74840  0.11900  Biso   1.000  C
  C47      1.0000 0.43800  0.69400  0.17250  Biso   1.000  C
  H32      1.0000 0.45430  0.72210  0.23530  Biso   1.000  H
  C48      1.0000 0.40110  0.59890  0.13470  Biso   1.000  C
  H33      1.0000 0.39280  0.56210  0.17180  Biso   1.000  H
  C49      1.0000 0.33190  0.45470  0.99800  Biso   1.000  C
  C50      1.0000 0.10030  0.10800  0.89310  Biso   1.000  C
  C51      1.0000 0.42990  0.10850  0.04890  Biso   1.000  C
  C52      1.0000 0.49810  0.85120  0.16060  Biso   1.000  C
  Cd5      1.0000 0.24898  0.03370  0.46109  Biso   1.000  Cd
  Cd6      1.0000 0.42555  0.96000  0.87612  Biso   1.000  Cd
  Cd7      1.0000 0.35762  0.99736  0.66254  Biso   1.000  Cd
  O23      1.0000 0.38872  0.15320  0.50248  Biso   1.000  O
  O24      1.0000 0.40809  0.03608  0.55000  Biso   1.000  O
  O25      1.0000 0.84267  0.16889  0.77574  Biso   1.000  O
  O26      1.0000 0.74977  0.03421  0.67935  Biso   1.000  O
  O27      1.0000 0.89080  0.87825  0.90160  Biso   1.000  O
  O28      1.0000 0.83590  0.90797  0.77339  Biso   1.000  O
  O29      1.0000 0.61130  0.43400  0.56060  Biso   1.000  O
  N5       1.0000 0.70510  0.40630  0.67770  Biso   1.000  N
  H34      1.0000 0.75440  0.43330  0.72670  Biso   1.000  H
  C53      1.0000 0.54400  0.16590  0.59140  Biso   1.000  C
  C54      1.0000 0.57570  0.26030  0.60320  Biso   1.000  C
  H35      1.0000 0.53360  0.29090  0.57740  Biso   1.000  H
  C55      1.0000 0.66960  0.30900  0.65320  Biso   1.000  C
  C56      1.0000 0.73140  0.26310  0.68810  Biso   1.000  C
  H36      1.0000 0.79530  0.29650  0.72230  Biso   1.000  H
  C57      1.0000 0.70010  0.16890  0.67330  Biso   1.000  C
  C58      1.0000 0.60580  0.12010  0.62550  Biso   1.000  C
  H37      1.0000 0.58410  0.05570  0.61640  Biso   1.000  H
  C59      1.0000 0.71580  0.56390  0.68420  Biso   1.000  C
  C60      1.0000 0.71500  0.62600  0.63640  Biso   1.000  C
  H38      1.0000 0.68680  0.60340  0.57310  Biso   1.000  H
  C61      1.0000 0.75480  0.72030  0.67980  Biso   1.000  C
  H39      1.0000 0.75390  0.76200  0.64640  Biso   1.000  H
  C62      1.0000 0.79580  0.75350  0.77180  Biso   1.000  C
  C63      1.0000 0.79500  0.69260  0.82050  Biso   1.000  C
  H40      1.0000 0.82200  0.71560  0.88390  Biso   1.000  H
  C64      1.0000 0.75490  0.59850  0.77700  Biso   1.000  C
  H41      1.0000 0.75400  0.55720  0.81080  Biso   1.000  H
  C65      1.0000 0.67230  0.46260  0.63470  Biso   1.000  C
  C66      1.0000 0.44070  0.11570  0.54520  Biso   1.000  C
  C67      1.0000 0.76900  0.12160  0.71140  Biso   1.000  C
  C68      1.0000 0.84470  0.85530  0.81990  Biso   1.000  C
  O30      1.0000 0.27820  0.86780  0.81760  Biso   1.000  O
  O31      1.0000 0.27142  0.97870  0.75659  Biso   1.000  O
  O32      1.0000 0.82591  0.85830  0.55620  Biso   1.000  O
  O33      1.0000 0.92660  0.98852  0.65550  Biso   1.000  O
  O34      1.0000 0.72070  0.13677  0.43903  Biso   1.000  O
  O35      1.0000 0.82800  0.10663  0.54143  Biso   1.000  O
  O36      1.0000 0.09640  0.56830  0.68130  Biso   1.000  O
  N6       1.0000 0.97500  0.60770  0.60410  Biso   1.000  N
  H42      1.0000 0.91800  0.58450  0.56420  Biso   1.000  H
  C69      1.0000 0.13320  0.85030  0.70990  Biso   1.000  C
  C70      1.0000 0.10490  0.75370  0.68410  Biso   1.000  C
  H43      1.0000 0.14920  0.72120  0.70090  Biso   1.000  H
  C71      1.0000 0.01120  0.70570  0.63340  Biso   1.000  C
  C72      1.0000 0.94720  0.75470  0.61000  Biso   1.000  C
  H44      1.0000 0.88350  0.72190  0.57400  Biso   1.000  H
  C73      1.0000 0.97540  0.85070  0.63870  Biso   1.000  C
  C74      1.0000 0.06900  0.89890  0.68830  Biso   1.000  C
  H45      1.0000 0.08890  0.96470  0.70730  Biso   1.000  H
  C75      1.0000 0.95600  0.44650  0.59270  Biso   1.000  C
  C76      1.0000 0.00040  0.37880  0.60410  Biso   1.000  C
  H46      1.0000 0.06710  0.39600  0.63110  Biso   1.000  H
  C77      1.0000 0.94880  0.28690  0.57670  Biso   1.000  C
  H47      1.0000 0.98020  0.24190  0.58670  Biso   1.000  H
  C78      1.0000 0.85260  0.25960  0.53530  Biso   1.000  C
  C79      1.0000 0.80760  0.32610  0.52220  Biso   1.000  C
  H48      1.0000 0.74120  0.30830  0.49330  Biso   1.000  H
  C80      1.0000 0.85890  0.41860  0.55100  Biso   1.000  C
  H49      1.0000 0.82700  0.46350  0.54200  Biso   1.000  H
  C81      1.0000 0.01610  0.54560  0.62920  Biso   1.000  C
  C82      1.0000 0.23470  0.90270  0.76440  Biso   1.000  C
  C83      1.0000 0.90480  0.90250  0.61630  Biso   1.000  C
  C84      1.0000 0.79610  0.15910  0.50300  Biso   1.000  C
  O37      1.0000 0.43280  0.90302  0.72922  Biso   1.000  O
  N7       1.0000 0.45610  0.76350  0.68380  Biso   1.000  N
  C85      1.0000 0.51450  0.70470  0.65930  Biso   1.000  C
  H50      1.0000 0.57150  0.74240  0.65470  Biso   1.000  H
  H51      1.0000 0.53270  0.67560  0.70520  Biso   1.000  H
  H52      1.0000 0.47870  0.65650  0.60140  Biso   1.000  H
  C86      1.0000 0.36510  0.72040  0.69500  Biso   1.000  C
  H53      1.0000 0.33410  0.76830  0.71150  Biso   1.000  H
  H54      1.0000 0.32370  0.67290  0.63850  Biso   1.000  H
  H55      1.0000 0.37800  0.69200  0.74220  Biso   1.000  H
  C87      1.0000 0.48120  0.84990  0.70320  Biso   1.000  C
  C88      1.0000 0.57760  0.89550  0.69810  Biso   1.000  C
  H56      1.0000 0.58900  0.96290  0.71600  Biso   1.000  H
  H57      1.0000 0.62740  0.88050  0.73850  Biso   1.000  H
  H58      1.0000 0.57790  0.87230  0.63660  Biso   1.000  H
  Cd8      1.0000 0.09242  0.94843  0.20716  Biso   1.000  Cd
  O38      1.0000 0.94720  0.85110  0.15020  Biso   1.000  O
  O39      1.0000 0.93499  0.97195  0.10547  Biso   1.000  O
  O40      1.0000 0.49150  0.84540  0.89330  Biso   1.000  O
  O41      1.0000 0.59150  0.97910  0.98680  Biso   1.000  O
  O42      1.0000 0.49510  0.10363  0.89189  Biso   1.000  O
  O43      1.0000 0.47280  0.11782  0.75572  Biso   1.000  O
  O44      1.0000 0.72500  0.57650  0.07790  Biso   1.000  O
  N8       1.0000 0.64020  0.59940  0.95240  Biso   1.000  N
  H59      1.0000 0.59830  0.57140  0.89860  Biso   1.000  H
  C89      1.0000 0.79710  0.84250  0.05650  Biso   1.000  C
  C90      1.0000 0.76670  0.74660  0.03400  Biso   1.000  C
  H60      1.0000 0.80960  0.71430  0.05470  Biso   1.000  H
  C91      1.0000 0.67370  0.69760  0.98140  Biso   1.000  C
  C92      1.0000 0.61160  0.74560  0.95160  Biso   1.000  C
  H61      1.0000 0.54900  0.71260  0.91290  Biso   1.000  H
  C93      1.0000 0.64070  0.84160  0.97820  Biso   1.000  C
  C94      1.0000 0.73410  0.89070  0.02970  Biso   1.000  C
  H62      1.0000 0.75440  0.95630  0.04630  Biso   1.000  H
  C95      1.0000 0.62380  0.44320  0.95690  Biso   1.000  C
  C96      1.0000 0.61220  0.38870  0.01010  Biso   1.000  C
  H63      1.0000 0.63010  0.41690  0.07310  Biso   1.000  H
  C97      1.0000 0.57490  0.29330  0.97290  Biso   1.000  C
  H64      1.0000 0.56710  0.25650  0.01020  Biso   1.000  H
  C98      1.0000 0.54880  0.25160  0.88100  Biso   1.000  C
  C99      1.0000 0.56200  0.30600  0.82750  Biso   1.000  C
  H65      1.0000 0.54570  0.27790  0.76470  Biso   1.000  H
  C100     1.0000 0.59890  0.40110  0.86530  Biso   1.000  C
  H66      1.0000 0.60720  0.43790  0.82820  Biso   1.000  H
  C101     1.0000 0.66810  0.54530  0.00200  Biso   1.000  C
  C102     1.0000 0.89970  0.89200  0.10690  Biso   1.000  C
  C103     1.0000 0.57010  0.89150  0.95110  Biso   1.000  C
  C104     1.0000 0.50190  0.14880  0.83940  Biso   1.000  C
  Cd9      1.0000 0.00000  0.00000  0.00000  Biso   1.000  Cd
