data_DIMJUG_clean
_audit_creation_date              2015-10-16
_audit_creation_method            'Materials Studio'
_symmetry_space_group_name_H-M    'P1'
_symmetry_Int_Tables_number       1
_symmetry_cell_setting            triclinic
loop_
_symmetry_equiv_pos_as_xyz
  x,y,z
_cell_length_a                    9.2140
_cell_length_b                    13.0259
_cell_length_c                    18.5959
_cell_angle_alpha                 72.3464
_cell_angle_beta                  75.6560
_cell_angle_gamma                 69.2875
loop_
_atom_site_label
_atom_site_type_symbol
_atom_site_fract_x
_atom_site_fract_y
_atom_site_fract_z
_atom_site_U_iso_or_equiv
_atom_site_adp_type
_atom_site_occupancy
Tb1    Tb    0.76279   0.08921   0.99369   0.01267  Uiso   1.00
Tb2    Tb    0.23721   0.91079   0.00631   0.01267  Uiso   1.00
Tb3    Tb    0.84569   0.41079   0.50631   0.01267  Uiso   1.00
Tb4    Tb    0.15431   0.58921   0.49369   0.01267  Uiso   1.00
Zn1    Zn    0.77400   0.08895   0.33443   0.01267  Uiso   1.00
Zn2    Zn    0.22600   0.91105   0.66557   0.01267  Uiso   1.00
Zn3    Zn    0.19738   0.41105   0.16557   0.01267  Uiso   1.00
Zn4    Zn    0.80262   0.58895   0.83443   0.01267  Uiso   1.00
H1     H     0.62060   0.57780   0.69420   0.01267  Uiso   1.00
H2     H     0.64370   0.95720   0.64660   0.01267  Uiso   1.00
H3     H     0.28730   0.01360   0.44040   0.01267  Uiso   1.00
H4     H     0.11170   0.60670   0.90850   0.01267  Uiso   1.00
H5     H     0.99170   0.81950   0.86150   0.01267  Uiso   1.00
H6     H     0.00830   0.18050   0.13850   0.01267  Uiso   1.00
H7     H     0.50400   0.67380   0.64300   0.01267  Uiso   1.00
H8     H     0.17920   0.17380   0.14300   0.01267  Uiso   1.00
H9     H     0.49600   0.32620   0.35700   0.01267  Uiso   1.00
H10    H     0.25870   0.51360   0.94040   0.01267  Uiso   1.00
H11    H     0.37310   0.10670   0.40850   0.01267  Uiso   1.00
H12    H     0.32730   0.31950   0.36150   0.01267  Uiso   1.00
H13    H     0.71270   0.98640   0.55960   0.01267  Uiso   1.00
H14    H     0.26300   0.30750   0.96530   0.01267  Uiso   1.00
H15    H     0.37940   0.42220   0.30580   0.01267  Uiso   1.00
H16    H     0.74130   0.48640   0.05960   0.01267  Uiso   1.00
H17    H     0.62690   0.89330   0.59150   0.01267  Uiso   1.00
H18    H     0.73700   0.69250   0.03470   0.01267  Uiso   1.00
H19    H     0.82080   0.82620   0.85700   0.01267  Uiso   1.00
H20    H     0.88830   0.39330   0.09150   0.01267  Uiso   1.00
H21    H     0.53580   0.19250   0.53470   0.01267  Uiso   1.00
H22    H     0.67270   0.68050   0.63850   0.01267  Uiso   1.00
H23    H     0.35630   0.04280   0.35340   0.01267  Uiso   1.00
H24    H     0.89260   0.92220   0.80580   0.01267  Uiso   1.00
H25    H     0.75250   0.45720   0.14660   0.01267  Uiso   1.00
H26    H     0.10740   0.07780   0.19420   0.01267  Uiso   1.00
H27    H     0.46420   0.80750   0.46530   0.01267  Uiso   1.00
H28    H     0.24750   0.54280   0.85340   0.01267  Uiso   1.00
C1     C     0.06282   0.13966   0.58150   0.01267  Uiso   1.00
C2     C     0.89176   0.55218   0.08030   0.01267  Uiso   1.00
C3     C     0.77116   0.86098   0.42770   0.01267  Uiso   1.00
C4     C     0.08467   0.15746   0.17180   0.01267  Uiso   1.00
C5     C     0.88329   0.84492   0.02010   0.01267  Uiso   1.00
C6     C     0.58607   0.65746   0.67180   0.01267  Uiso   1.00
C7     C     0.30459   0.21982   0.54320   0.01267  Uiso   1.00
C8     C     0.24736   0.94078   0.81470   0.01267  Uiso   1.00
C9     C     0.50431   0.76828   0.83810   0.01267  Uiso   1.00
C10    C     0.75264   0.05922   0.18530   0.01267  Uiso   1.00
C11    C     0.47448   0.28004   0.26660   0.01267  Uiso   1.00
C12    C     0.05984   0.63902   0.07230   0.01267  Uiso   1.00
C13    C     0.97888   0.78004   0.76660   0.01267  Uiso   1.00
C14    C     0.94016   0.36098   0.92770   0.01267  Uiso   1.00
C15    C     0.93239   0.71982   0.04320   0.01267  Uiso   1.00
C16    C     0.44144   0.24012   0.09100   0.01267  Uiso   1.00
C17    C     0.62840   0.96450   0.59590   0.01267  Uiso   1.00
C18    C     0.88931   0.26828   0.33810   0.01267  Uiso   1.00
C19    C     0.69541   0.78018   0.45680   0.01267  Uiso   1.00
C20    C     0.41393   0.34254   0.32820   0.01267  Uiso   1.00
C21    C     0.47576   0.05218   0.58030   0.01267  Uiso   1.00
C22    C     0.02112   0.21996   0.23340   0.01267  Uiso   1.00
C23    C     0.11671   0.15508   0.97990   0.01267  Uiso   1.00
C24    C     0.37160   0.03550   0.40410   0.01267  Uiso   1.00
C25    C     0.91533   0.84254   0.82820   0.01267  Uiso   1.00
C26    C     0.38240   0.84170   0.79990   0.01267  Uiso   1.00
C27    C     0.81120   0.46450   0.09590   0.01267  Uiso   1.00
C28    C     0.18880   0.53550   0.90410   0.01267  Uiso   1.00
C29    C     0.22884   0.13902   0.57230   0.01267  Uiso   1.00
C30    C     0.99716   0.44078   0.31470   0.01267  Uiso   1.00
C31    C     0.02400   0.65830   0.70010   0.01267  Uiso   1.00
C32    C     0.25169   0.34492   0.52010   0.01267  Uiso   1.00
C33    C     0.97600   0.34170   0.29990   0.01267  Uiso   1.00
C34    C     0.22744   0.74012   0.59100   0.01267  Uiso   1.00
C35    C     0.52552   0.71996   0.73340   0.01267  Uiso   1.00
C36    C     0.74831   0.65508   0.47990   0.01267  Uiso   1.00
C37    C     0.55856   0.75988   0.90900   0.01267  Uiso   1.00
C38    C     0.93718   0.86034   0.41850   0.01267  Uiso   1.00
C39    C     0.61760   0.15830   0.20010   0.01267  Uiso   1.00
C40    C     0.11069   0.73172   0.66190   0.01267  Uiso   1.00
C41    C     0.21602   0.63966   0.08150   0.01267  Uiso   1.00
C42    C     0.06761   0.28018   0.95680   0.01267  Uiso   1.00
C43    C     0.49569   0.23172   0.16190   0.01267  Uiso   1.00
C44    C     0.52424   0.94782   0.41970   0.01267  Uiso   1.00
C45    C     0.77256   0.25988   0.40900   0.01267  Uiso   1.00
C46    C     0.78398   0.36034   0.91850   0.01267  Uiso   1.00
C47    C     0.00284   0.55922   0.68530   0.01267  Uiso   1.00
C48    C     0.10824   0.44782   0.91970   0.01267  Uiso   1.00
N1     N     0.03265   0.53494   0.09636   0.01267  Uiso   1.00
N2     N     0.94194   0.68852   0.76680   0.01267  Uiso   1.00
N3     N     0.17204   0.33742   0.95110   0.01267  Uiso   1.00
N4     N     0.53944   0.83742   0.45110   0.01267  Uiso   1.00
N5     N     0.08102   0.80859   0.70497   0.01267  Uiso   1.00
N6     N     0.96735   0.46506   0.90364   0.01267  Uiso   1.00
N7     N     0.46056   0.16258   0.54890   0.01267  Uiso   1.00
N8     N     0.40542   0.30859   0.20497   0.01267  Uiso   1.00
N9     N     0.33605   0.03494   0.59636   0.01267  Uiso   1.00
N10    N     0.59458   0.69141   0.79503   0.01267  Uiso   1.00
N11    N     0.05806   0.31148   0.23320   0.01267  Uiso   1.00
N12    N     0.39726   0.81148   0.73320   0.01267  Uiso   1.00
N13    N     0.82796   0.66258   0.04890   0.01267  Uiso   1.00
N14    N     0.66395   0.96506   0.40364   0.01267  Uiso   1.00
N15    N     0.60274   0.18852   0.26680   0.01267  Uiso   1.00
N16    N     0.91898   0.19141   0.29503   0.01267  Uiso   1.00
O1     O     0.65394   0.60265   0.48367   0.01267  Uiso   1.00
O2     O     0.01883   0.10054   0.99520   0.01267  Uiso   1.00
O3     O     0.68232   0.68102   0.92514   0.01267  Uiso   1.00
O4     O     0.88543   0.60054   0.49520   0.01267  Uiso   1.00
O5     O     0.03168   0.05151   0.62133   0.01267  Uiso   1.00
O6     O     0.34606   0.39735   0.51633   0.01267  Uiso   1.00
O7     O     0.21299   0.96587   0.87895   0.01267  Uiso   1.00
O8     O     0.16696   0.99562   0.76246   0.01267  Uiso   1.00
O9     O     0.98117   0.89946   0.00480   0.01267  Uiso   1.00
O10    O     0.92504   0.50438   0.73754   0.01267  Uiso   1.00
O11    O     0.78701   0.03413   0.12105   0.01267  Uiso   1.00
O12    O     0.83304   0.00438   0.23754   0.01267  Uiso   1.00
O13    O     0.51359   0.16741   0.05221   0.01267  Uiso   1.00
O14    O     0.74026   0.89735   0.01633   0.01267  Uiso   1.00
O15    O     0.73862   0.27509   0.95187   0.01267  Uiso   1.00
O16    O     0.29548   0.55151   0.12133   0.01267  Uiso   1.00
O17    O     0.11457   0.39946   0.50480   0.01267  Uiso   1.00
O18    O     0.31768   0.31898   0.07486   0.01267  Uiso   1.00
O19    O     0.07496   0.49562   0.26246   0.01267  Uiso   1.00
O20    O     0.26679   0.66741   0.55221   0.01267  Uiso   1.00
O21    O     0.05781   0.53413   0.62105   0.01267  Uiso   1.00
O22    O     0.96558   0.22491   0.54813   0.01267  Uiso   1.00
O23    O     0.71152   0.18102   0.42514   0.01267  Uiso   1.00
O24    O     0.03442   0.77509   0.45187   0.01267  Uiso   1.00
O25    O     0.48641   0.83259   0.94779   0.01267  Uiso   1.00
O26    O     0.96832   0.94849   0.37867   0.01267  Uiso   1.00
O27    O     0.73321   0.33259   0.44779   0.01267  Uiso   1.00
O28    O     0.26138   0.72491   0.04813   0.01267  Uiso   1.00
O29    O     0.94219   0.46587   0.37895   0.01267  Uiso   1.00
O30    O     0.25974   0.10265   0.98367   0.01267  Uiso   1.00
O31    O     0.70452   0.44849   0.87867   0.01267  Uiso   1.00
O32    O     0.28848   0.81898   0.57486   0.01267  Uiso   1.00
