data_DIMKUH_clean
_audit_creation_date              2015-10-16
_audit_creation_method            'Materials Studio'
_symmetry_space_group_name_H-M    'P1'
_symmetry_Int_Tables_number       1
_symmetry_cell_setting            triclinic
loop_
_symmetry_equiv_pos_as_xyz
  x,y,z
_cell_length_a                    9.1816
_cell_length_b                    12.9851
_cell_length_c                    18.4627
_cell_angle_alpha                 72.0644
_cell_angle_beta                  75.6022
_cell_angle_gamma                 69.2958
loop_
_atom_site_label
_atom_site_type_symbol
_atom_site_fract_x
_atom_site_fract_y
_atom_site_fract_z
_atom_site_U_iso_or_equiv
_atom_site_adp_type
_atom_site_occupancy
Dy1    Dy    0.23674   0.41071   0.50661   0.01267  Uiso   1.00
Dy2    Dy    0.76326   0.58929   0.49339   0.01267  Uiso   1.00
Dy3    Dy    0.84594   0.91071   0.00661   0.01267  Uiso   1.00
Dy4    Dy    0.15406   0.08929   0.99339   0.01267  Uiso   1.00
Zn1    Zn    0.77621   0.58862   0.83522   0.01267  Uiso   1.00
Zn2    Zn    0.20005   0.91138   0.66478   0.01267  Uiso   1.00
Zn3    Zn    0.79995   0.08862   0.33522   0.01267  Uiso   1.00
Zn4    Zn    0.22379   0.41138   0.16478   0.01267  Uiso   1.00
H1     H     0.75540   0.95440   0.65040   0.01267  Uiso   1.00
H2     H     0.24460   0.04560   0.34960   0.01267  Uiso   1.00
H3     H     0.49670   0.81890   0.86010   0.01267  Uiso   1.00
H4     H     0.71390   0.49070   0.06390   0.01267  Uiso   1.00
H5     H     0.46280   0.30580   0.96300   0.01267  Uiso   1.00
H6     H     0.39540   0.92250   0.80470   0.01267  Uiso   1.00
H7     H     0.26840   0.80580   0.46300   0.01267  Uiso   1.00
H8     H     0.63980   0.45440   0.15040   0.01267  Uiso   1.00
H9     H     0.28610   0.50930   0.93610   0.01267  Uiso   1.00
H10    H     0.67620   0.17390   0.14230   0.01267  Uiso   1.00
H11    H     0.87740   0.42250   0.30470   0.01267  Uiso   1.00
H12    H     0.63190   0.39480   0.09000   0.01267  Uiso   1.00
H13    H     0.73150   0.99070   0.56390   0.01267  Uiso   1.00
H14    H     0.00760   0.67390   0.64230   0.01267  Uiso   1.00
H15    H     0.53720   0.69420   0.03700   0.01267  Uiso   1.00
H16    H     0.11670   0.10520   0.41000   0.01267  Uiso   1.00
H17    H     0.99240   0.32610   0.35770   0.01267  Uiso   1.00
H18    H     0.12260   0.57750   0.69530   0.01267  Uiso   1.00
H19    H     0.73160   0.19420   0.53700   0.01267  Uiso   1.00
H20    H     0.88330   0.89480   0.59000   0.01267  Uiso   1.00
H21    H     0.50330   0.18110   0.13990   0.01267  Uiso   1.00
H22    H     0.82430   0.31890   0.36010   0.01267  Uiso   1.00
H23    H     0.36020   0.54560   0.84960   0.01267  Uiso   1.00
H24    H     0.26850   0.00930   0.43610   0.01267  Uiso   1.00
H25    H     0.32380   0.82610   0.85770   0.01267  Uiso   1.00
H26    H     0.36810   0.60520   0.91000   0.01267  Uiso   1.00
H27    H     0.17570   0.68110   0.63990   0.01267  Uiso   1.00
H28    H     0.60460   0.07750   0.19530   0.01267  Uiso   1.00
C1     C     0.06300   0.64010   0.07990   0.01267  Uiso   1.00
C2     C     0.62900   0.46530   0.09790   0.01267  Uiso   1.00
C3     C     0.02388   0.71974   0.73370   0.01267  Uiso   1.00
C4     C     0.10940   0.94740   0.41840   0.01267  Uiso   1.00
C5     C     0.49751   0.73268   0.66130   0.01267  Uiso   1.00
C6     C     0.41820   0.84230   0.82750   0.01267  Uiso   1.00
C7     C     0.47520   0.55260   0.08160   0.01267  Uiso   1.00
C8     C     0.37100   0.53470   0.90210   0.01267  Uiso   1.00
C9     C     0.24490   0.44080   0.31560   0.01267  Uiso   1.00
C10    C     0.77060   0.36150   0.92830   0.01267  Uiso   1.00
C11    C     0.99870   0.94080   0.81560   0.01267  Uiso   1.00
C12    C     0.44425   0.73910   0.59060   0.01267  Uiso   1.00
C13    C     0.80780   0.96530   0.59790   0.01267  Uiso   1.00
C14    C     0.55575   0.26090   0.40940   0.01267  Uiso   1.00
C15    C     0.02136   0.15758   0.20050   0.01267  Uiso   1.00
C16    C     0.50249   0.26732   0.33870   0.01267  Uiso   1.00
C17    C     0.25150   0.84560   0.01980   0.01267  Uiso   1.00
C18    C     0.97612   0.28026   0.26630   0.01267  Uiso   1.00
C19    C     0.93960   0.86150   0.42830   0.01267  Uiso   1.00
C20    C     0.30450   0.72140   0.04260   0.01267  Uiso   1.00
C21    C     0.69550   0.27860   0.95740   0.01267  Uiso   1.00
C22    C     0.10851   0.23268   0.16130   0.01267  Uiso   1.00
C23    C     0.06850   0.77860   0.45740   0.01267  Uiso   1.00
C24    C     0.11690   0.65440   0.48020   0.01267  Uiso   1.00
C25    C     0.93700   0.35990   0.92010   0.01267  Uiso   1.00
C26    C     0.37944   0.34242   0.29950   0.01267  Uiso   1.00
C27    C     0.00130   0.05920   0.18440   0.01267  Uiso   1.00
C28    C     0.97864   0.84242   0.79950   0.01267  Uiso   1.00
C29    C     0.62056   0.65758   0.70050   0.01267  Uiso   1.00
C30    C     0.89060   0.05260   0.58160   0.01267  Uiso   1.00
C31    C     0.77395   0.76090   0.90940   0.01267  Uiso   1.00
C32    C     0.58180   0.15770   0.17250   0.01267  Uiso   1.00
C33    C     0.88310   0.34560   0.51980   0.01267  Uiso   1.00
C34    C     0.74850   0.15440   0.98020   0.01267  Uiso   1.00
C35    C     0.19220   0.03470   0.40210   0.01267  Uiso   1.00
C36    C     0.93150   0.22140   0.54260   0.01267  Uiso   1.00
C37    C     0.78300   0.85990   0.42010   0.01267  Uiso   1.00
C38    C     0.75510   0.55920   0.68440   0.01267  Uiso   1.00
C39    C     0.52480   0.44740   0.91840   0.01267  Uiso   1.00
C40    C     0.52268   0.21974   0.23370   0.01267  Uiso   1.00
C41    C     0.89149   0.76732   0.83870   0.01267  Uiso   1.00
C42    C     0.91200   0.34230   0.32750   0.01267  Uiso   1.00
C43    C     0.21700   0.14010   0.57990   0.01267  Uiso   1.00
C44    C     0.22605   0.23910   0.09060   0.01267  Uiso   1.00
C45    C     0.08800   0.65770   0.67250   0.01267  Uiso   1.00
C46    C     0.22940   0.63850   0.07170   0.01267  Uiso   1.00
C47    C     0.47732   0.78026   0.76630   0.01267  Uiso   1.00
C48    C     0.06040   0.13850   0.57170   0.01267  Uiso   1.00
N1     N     0.03233   0.03534   0.59640   0.01267  Uiso   1.00
N2     N     0.93926   0.18909   0.26699   0.01267  Uiso   1.00
N3     N     0.45995   0.66350   0.05040   0.01267  Uiso   1.00
N4     N     0.60466   0.68909   0.76699   0.01267  Uiso   1.00
N5     N     0.59168   0.19074   0.29570   0.01267  Uiso   1.00
N6     N     0.40832   0.80926   0.70430   0.01267  Uiso   1.00
N7     N     0.39534   0.31091   0.23301   0.01267  Uiso   1.00
N8     N     0.96767   0.96466   0.40360   0.01267  Uiso   1.00
N9     N     0.33593   0.53534   0.09640   0.01267  Uiso   1.00
N10    N     0.06074   0.81091   0.73301   0.01267  Uiso   1.00
N11    N     0.82615   0.16350   0.55040   0.01267  Uiso   1.00
N12    N     0.17385   0.83650   0.44960   0.01267  Uiso   1.00
N13    N     0.07812   0.30926   0.20430   0.01267  Uiso   1.00
N14    N     0.92188   0.69074   0.79570   0.01267  Uiso   1.00
N15    N     0.66407   0.46466   0.90360   0.01267  Uiso   1.00
N16    N     0.54005   0.33650   0.94960   0.01267  Uiso   1.00
O1     O     0.03018   0.55224   0.12020   0.01267  Uiso   1.00
O2     O     0.26788   0.16585   0.05239   0.01267  Uiso   1.00
O3     O     0.28655   0.31934   0.07356   0.01267  Uiso   1.00
O4     O     0.74016   0.39795   0.51673   0.01267  Uiso   1.00
O5     O     0.65484   0.10205   0.98327   0.01267  Uiso   1.00
O6     O     0.26263   0.22604   0.54630   0.01267  Uiso   1.00
O7     O     0.83599   0.50357   0.73765   0.01267  Uiso   1.00
O8     O     0.96982   0.44776   0.87980   0.01267  Uiso   1.00
O9     O     0.71345   0.68066   0.92644   0.01267  Uiso   1.00
O10    O     0.21297   0.46685   0.37901   0.01267  Uiso   1.00
O11    O     0.78703   0.53315   0.62099   0.01267  Uiso   1.00
O12    O     0.51388   0.66585   0.55239   0.01267  Uiso   1.00
O13    O     0.29738   0.05224   0.62020   0.01267  Uiso   1.00
O14    O     0.88584   0.09973   0.99519   0.01267  Uiso   1.00
O15    O     0.94117   0.96685   0.87901   0.01267  Uiso   1.00
O16    O     0.03497   0.27396   0.95370   0.01267  Uiso   1.00
O17    O     0.25984   0.60205   0.48327   0.01267  Uiso   1.00
O18    O     0.32055   0.81934   0.57356   0.01267  Uiso   1.00
O19    O     0.16401   0.49643   0.26235   0.01267  Uiso   1.00
O20    O     0.73212   0.83415   0.94761   0.01267  Uiso   1.00
O21    O     0.67945   0.18066   0.42644   0.01267  Uiso   1.00
O22    O     0.34516   0.89795   0.01673   0.01267  Uiso   1.00
O23    O     0.96503   0.72604   0.04630   0.01267  Uiso   1.00
O24    O     0.07721   0.99643   0.76235   0.01267  Uiso   1.00
O25    O     0.01924   0.59973   0.49519   0.01267  Uiso   1.00
O26    O     0.73737   0.77396   0.45370   0.01267  Uiso   1.00
O27    O     0.98076   0.40027   0.50481   0.01267  Uiso   1.00
O28    O     0.05883   0.03315   0.12099   0.01267  Uiso   1.00
O29    O     0.11416   0.90027   0.00481   0.01267  Uiso   1.00
O30    O     0.48612   0.33415   0.44761   0.01267  Uiso   1.00
O31    O     0.70262   0.94776   0.37980   0.01267  Uiso   1.00
O32    O     0.92279   0.00357   0.23765   0.01267  Uiso   1.00
