data_image0
_cell_length_a       24.1908
_cell_length_b       9.1472
_cell_length_c       18.9567
_cell_angle_alpha    90
_cell_angle_beta     114.252
_cell_angle_gamma    90

_symmetry_space_group_name_H-M    "P 1"
_symmetry_int_tables_number       1

loop_
  _symmetry_equiv_pos_as_xyz
  'x, y, z'

loop_
  _atom_site_label
  _atom_site_occupancy
  _atom_site_fract_x
  _atom_site_fract_y
  _atom_site_fract_z
  _atom_site_thermal_displace_type
  _atom_site_B_iso_or_equiv
  _atom_site_type_symbol
  Eu1      1.0000 0.54162  0.30572  0.49430  Biso   1.000  Eu
  Zn1      1.0000 0.71222  0.50981  0.33624  Biso   1.000  Zn
  O1       1.0000 0.54720  0.56580  0.49616  Biso   1.000  O
  O2       1.0000 0.54097  0.80280  0.48240  Biso   1.000  O
  O3       1.0000 0.61555  0.35120  0.45790  Biso   1.000  O
  O4       1.0000 0.66468  0.36470  0.38230  Biso   1.000  O
  O5       1.0000 0.80454  0.48210  0.42683  Biso   1.000  O
  O6       1.0000 0.89239  0.37720  0.44630  Biso   1.000  O
  O7       1.0000 0.92363  0.13360  0.37880  Biso   1.000  O
  O8       1.0000 0.87961  0.04240  0.26120  Biso   1.000  O
  N1       1.0000 0.64200  0.81860  0.44850  Biso   1.000  N
  H1       1.0000 0.63270  0.90480  0.46120  Biso   1.000  H
  N2       1.0000 0.68457  0.65110  0.40440  Biso   1.000  N
  N3       1.0000 0.74324  0.33230  0.29640  Biso   1.000  N
  N4       1.0000 0.77168  0.16390  0.23310  Biso   1.000  N
  C1       1.0000 0.56600  0.68480  0.48040  Biso   1.000  C
  C2       1.0000 0.61760  0.68590  0.45630  Biso   1.000  C
  C3       1.0000 0.64510  0.58340  0.42980  Biso   1.000  C
  C4       1.0000 0.64100  0.42200  0.42250  Biso   1.000  C
  C5       1.0000 0.68240  0.79270  0.41800  Biso   1.000  C
  C6       1.0000 0.71770  0.91010  0.40110  Biso   1.000  C
  H2       1.0000 0.70060  0.92910  0.34650  Biso   1.000  H
  H3       1.0000 0.75910  0.87950  0.41760  Biso   1.000  H
  H4       1.0000 0.71610  0.99750  0.42820  Biso   1.000  H
  C7       1.0000 0.83560  0.39090  0.40880  Biso   1.000  C
  C8       1.0000 0.80340  0.30320  0.33840  Biso   1.000  C
  C9       1.0000 0.82090  0.19850  0.29950  Biso   1.000  C
  C10      1.0000 0.87830  0.12130  0.31410  Biso   1.000  C
  C11      1.0000 0.72610  0.24580  0.23410  Biso   1.000  C
  C12      1.0000 0.66360  0.24420  0.17210  Biso   1.000  C
  H5       1.0000 0.63920  0.17640  0.18560  Biso   1.000  H
  H6       1.0000 0.66490  0.21500  0.12420  Biso   1.000  H
  H7       1.0000 0.64630  0.34030  0.16660  Biso   1.000  H
  Eu2      1.0000 0.04162  0.80572  0.49430  Biso   1.000  Eu
  Zn2      1.0000 0.21222  0.00981  0.33624  Biso   1.000  Zn
  O9       1.0000 0.04720  0.06580  0.49616  Biso   1.000  O
  O10      1.0000 0.04097  0.30280  0.48240  Biso   1.000  O
  O11      1.0000 0.11555  0.85120  0.45790  Biso   1.000  O
  O12      1.0000 0.16468  0.86470  0.38230  Biso   1.000  O
  O13      1.0000 0.30454  0.98210  0.42683  Biso   1.000  O
  O14      1.0000 0.39239  0.87720  0.44630  Biso   1.000  O
  O15      1.0000 0.42363  0.63360  0.37880  Biso   1.000  O
  O16      1.0000 0.37961  0.54240  0.26120  Biso   1.000  O
  N5       1.0000 0.14200  0.31860  0.44850  Biso   1.000  N
  H8       1.0000 0.13270  0.40480  0.46120  Biso   1.000  H
  N6       1.0000 0.18457  0.15110  0.40440  Biso   1.000  N
  N7       1.0000 0.24324  0.83230  0.29640  Biso   1.000  N
  N8       1.0000 0.27168  0.66390  0.23310  Biso   1.000  N
  C13      1.0000 0.06600  0.18480  0.48040  Biso   1.000  C
  C14      1.0000 0.11760  0.18590  0.45630  Biso   1.000  C
  C15      1.0000 0.14510  0.08340  0.42980  Biso   1.000  C
  C16      1.0000 0.14100  0.92200  0.42250  Biso   1.000  C
  C17      1.0000 0.18240  0.29270  0.41800  Biso   1.000  C
  C18      1.0000 0.21770  0.41010  0.40110  Biso   1.000  C
  H9       1.0000 0.20060  0.42910  0.34650  Biso   1.000  H
  H10      1.0000 0.25910  0.37950  0.41760  Biso   1.000  H
  H11      1.0000 0.21610  0.49750  0.42820  Biso   1.000  H
  C19      1.0000 0.33560  0.89090  0.40880  Biso   1.000  C
  C20      1.0000 0.30340  0.80320  0.33840  Biso   1.000  C
  C21      1.0000 0.32090  0.69850  0.29950  Biso   1.000  C
  C22      1.0000 0.37830  0.62130  0.31410  Biso   1.000  C
  C23      1.0000 0.22610  0.74580  0.23410  Biso   1.000  C
  C24      1.0000 0.16360  0.74420  0.17210  Biso   1.000  C
  H12      1.0000 0.13920  0.67640  0.18560  Biso   1.000  H
  H13      1.0000 0.16490  0.71500  0.12420  Biso   1.000  H
  H14      1.0000 0.14630  0.84030  0.16660  Biso   1.000  H
  Eu3      1.0000 0.45838  0.30572  0.00570  Biso   1.000  Eu
  Zn3      1.0000 0.28778  0.50981  0.16376  Biso   1.000  Zn
  O17      1.0000 0.45280  0.56580  0.00384  Biso   1.000  O
  O18      1.0000 0.45903  0.80280  0.01760  Biso   1.000  O
  O19      1.0000 0.38445  0.35120  0.04210  Biso   1.000  O
  O20      1.0000 0.33532  0.36470  0.11770  Biso   1.000  O
  O21      1.0000 0.19546  0.48210  0.07317  Biso   1.000  O
  O22      1.0000 0.10761  0.37720  0.05370  Biso   1.000  O
  O23      1.0000 0.07637  0.13360  0.12120  Biso   1.000  O
  O24      1.0000 0.12039  0.04240  0.23880  Biso   1.000  O
  N9       1.0000 0.35800  0.81860  0.05150  Biso   1.000  N
  H15      1.0000 0.36730  0.90480  0.03880  Biso   1.000  H
  N10      1.0000 0.31543  0.65110  0.09560  Biso   1.000  N
  N11      1.0000 0.25676  0.33230  0.20360  Biso   1.000  N
  N12      1.0000 0.22832  0.16390  0.26690  Biso   1.000  N
  C25      1.0000 0.43400  0.68480  0.01960  Biso   1.000  C
  C26      1.0000 0.38240  0.68590  0.04370  Biso   1.000  C
  C27      1.0000 0.35490  0.58340  0.07020  Biso   1.000  C
  C28      1.0000 0.35900  0.42200  0.07750  Biso   1.000  C
  C29      1.0000 0.31760  0.79270  0.08200  Biso   1.000  C
  C30      1.0000 0.28230  0.91010  0.09890  Biso   1.000  C
  H16      1.0000 0.29940  0.92910  0.15350  Biso   1.000  H
  H17      1.0000 0.24090  0.87950  0.08240  Biso   1.000  H
  H18      1.0000 0.28390  0.99750  0.07180  Biso   1.000  H
  C31      1.0000 0.16440  0.39090  0.09120  Biso   1.000  C
  C32      1.0000 0.19660  0.30320  0.16160  Biso   1.000  C
  C33      1.0000 0.17910  0.19850  0.20050  Biso   1.000  C
  C34      1.0000 0.12170  0.12130  0.18590  Biso   1.000  C
  C35      1.0000 0.27390  0.24580  0.26590  Biso   1.000  C
  C36      1.0000 0.33640  0.24420  0.32790  Biso   1.000  C
  H19      1.0000 0.36080  0.17640  0.31440  Biso   1.000  H
  H20      1.0000 0.33510  0.21500  0.37580  Biso   1.000  H
  H21      1.0000 0.35370  0.34030  0.33340  Biso   1.000  H
  Eu4      1.0000 0.95838  0.80572  0.00570  Biso   1.000  Eu
  Zn4      1.0000 0.78778  0.00981  0.16376  Biso   1.000  Zn
  O25      1.0000 0.95280  0.06580  0.00384  Biso   1.000  O
  O26      1.0000 0.95903  0.30280  0.01760  Biso   1.000  O
  O27      1.0000 0.88445  0.85120  0.04210  Biso   1.000  O
  O28      1.0000 0.83532  0.86470  0.11770  Biso   1.000  O
  O29      1.0000 0.69546  0.98210  0.07317  Biso   1.000  O
  O30      1.0000 0.60761  0.87720  0.05370  Biso   1.000  O
  O31      1.0000 0.57637  0.63360  0.12120  Biso   1.000  O
  O32      1.0000 0.62039  0.54240  0.23880  Biso   1.000  O
  N13      1.0000 0.85800  0.31860  0.05150  Biso   1.000  N
  H22      1.0000 0.86730  0.40480  0.03880  Biso   1.000  H
  N14      1.0000 0.81543  0.15110  0.09560  Biso   1.000  N
  N15      1.0000 0.75676  0.83230  0.20360  Biso   1.000  N
  N16      1.0000 0.72832  0.66390  0.26690  Biso   1.000  N
  C37      1.0000 0.93400  0.18480  0.01960  Biso   1.000  C
  C38      1.0000 0.88240  0.18590  0.04370  Biso   1.000  C
  C39      1.0000 0.85490  0.08340  0.07020  Biso   1.000  C
  C40      1.0000 0.85900  0.92200  0.07750  Biso   1.000  C
  C41      1.0000 0.81760  0.29270  0.08200  Biso   1.000  C
  C42      1.0000 0.78230  0.41010  0.09890  Biso   1.000  C
  H23      1.0000 0.79940  0.42910  0.15350  Biso   1.000  H
  H24      1.0000 0.74090  0.37950  0.08240  Biso   1.000  H
  H25      1.0000 0.78390  0.49750  0.07180  Biso   1.000  H
  C43      1.0000 0.66440  0.89090  0.09120  Biso   1.000  C
  C44      1.0000 0.69660  0.80320  0.16160  Biso   1.000  C
  C45      1.0000 0.67910  0.69850  0.20050  Biso   1.000  C
  C46      1.0000 0.62170  0.62130  0.18590  Biso   1.000  C
  C47      1.0000 0.77390  0.74580  0.26590  Biso   1.000  C
  C48      1.0000 0.83640  0.74420  0.32790  Biso   1.000  C
  H26      1.0000 0.86080  0.67640  0.31440  Biso   1.000  H
  H27      1.0000 0.83510  0.71500  0.37580  Biso   1.000  H
  H28      1.0000 0.85370  0.84030  0.33340  Biso   1.000  H
  Eu5      1.0000 0.45838  0.69428  0.50570  Biso   1.000  Eu
  Zn5      1.0000 0.28778  0.49019  0.66376  Biso   1.000  Zn
  O33      1.0000 0.45280  0.43420  0.50384  Biso   1.000  O
  O34      1.0000 0.45903  0.19720  0.51760  Biso   1.000  O
  O35      1.0000 0.38445  0.64880  0.54210  Biso   1.000  O
  O36      1.0000 0.33532  0.63530  0.61770  Biso   1.000  O
  O37      1.0000 0.19546  0.51790  0.57317  Biso   1.000  O
  O38      1.0000 0.10761  0.62280  0.55370  Biso   1.000  O
  O39      1.0000 0.07637  0.86640  0.62120  Biso   1.000  O
  O40      1.0000 0.12039  0.95760  0.73880  Biso   1.000  O
  N17      1.0000 0.35800  0.18140  0.55150  Biso   1.000  N
  H29      1.0000 0.36730  0.09520  0.53880  Biso   1.000  H
  N18      1.0000 0.31543  0.34890  0.59560  Biso   1.000  N
  N19      1.0000 0.25676  0.66770  0.70360  Biso   1.000  N
  N20      1.0000 0.22832  0.83610  0.76690  Biso   1.000  N
  C49      1.0000 0.43400  0.31520  0.51960  Biso   1.000  C
  C50      1.0000 0.38240  0.31410  0.54370  Biso   1.000  C
  C51      1.0000 0.35490  0.41660  0.57020  Biso   1.000  C
  C52      1.0000 0.35900  0.57800  0.57750  Biso   1.000  C
  C53      1.0000 0.31760  0.20730  0.58200  Biso   1.000  C
  C54      1.0000 0.28230  0.08990  0.59890  Biso   1.000  C
  H30      1.0000 0.29940  0.07090  0.65350  Biso   1.000  H
  H31      1.0000 0.24090  0.12050  0.58240  Biso   1.000  H
  H32      1.0000 0.28390  0.00250  0.57180  Biso   1.000  H
  C55      1.0000 0.16440  0.60910  0.59120  Biso   1.000  C
  C56      1.0000 0.19660  0.69680  0.66160  Biso   1.000  C
  C57      1.0000 0.17910  0.80150  0.70050  Biso   1.000  C
  C58      1.0000 0.12170  0.87870  0.68590  Biso   1.000  C
  C59      1.0000 0.27390  0.75420  0.76590  Biso   1.000  C
  C60      1.0000 0.33640  0.75580  0.82790  Biso   1.000  C
  H33      1.0000 0.36080  0.82360  0.81440  Biso   1.000  H
  H34      1.0000 0.33510  0.78500  0.87580  Biso   1.000  H
  H35      1.0000 0.35370  0.65970  0.83340  Biso   1.000  H
  Eu6      1.0000 0.95838  0.19428  0.50570  Biso   1.000  Eu
  Zn6      1.0000 0.78778  0.99019  0.66376  Biso   1.000  Zn
  O41      1.0000 0.95280  0.93420  0.50384  Biso   1.000  O
  O42      1.0000 0.95903  0.69720  0.51760  Biso   1.000  O
  O43      1.0000 0.88445  0.14880  0.54210  Biso   1.000  O
  O44      1.0000 0.83532  0.13530  0.61770  Biso   1.000  O
  O45      1.0000 0.69546  0.01790  0.57317  Biso   1.000  O
  O46      1.0000 0.60761  0.12280  0.55370  Biso   1.000  O
  O47      1.0000 0.57637  0.36640  0.62120  Biso   1.000  O
  O48      1.0000 0.62039  0.45760  0.73880  Biso   1.000  O
  N21      1.0000 0.85800  0.68140  0.55150  Biso   1.000  N
  H36      1.0000 0.86730  0.59520  0.53880  Biso   1.000  H
  N22      1.0000 0.81543  0.84890  0.59560  Biso   1.000  N
  N23      1.0000 0.75676  0.16770  0.70360  Biso   1.000  N
  N24      1.0000 0.72832  0.33610  0.76690  Biso   1.000  N
  C61      1.0000 0.93400  0.81520  0.51960  Biso   1.000  C
  C62      1.0000 0.88240  0.81410  0.54370  Biso   1.000  C
  C63      1.0000 0.85490  0.91660  0.57020  Biso   1.000  C
  C64      1.0000 0.85900  0.07800  0.57750  Biso   1.000  C
  C65      1.0000 0.81760  0.70730  0.58200  Biso   1.000  C
  C66      1.0000 0.78230  0.58990  0.59890  Biso   1.000  C
  H37      1.0000 0.79940  0.57090  0.65350  Biso   1.000  H
  H38      1.0000 0.74090  0.62050  0.58240  Biso   1.000  H
  H39      1.0000 0.78390  0.50250  0.57180  Biso   1.000  H
  C67      1.0000 0.66440  0.10910  0.59120  Biso   1.000  C
  C68      1.0000 0.69660  0.19680  0.66160  Biso   1.000  C
  C69      1.0000 0.67910  0.30150  0.70050  Biso   1.000  C
  C70      1.0000 0.62170  0.37870  0.68590  Biso   1.000  C
  C71      1.0000 0.77390  0.25420  0.76590  Biso   1.000  C
  C72      1.0000 0.83640  0.25580  0.82790  Biso   1.000  C
  H40      1.0000 0.86080  0.32360  0.81440  Biso   1.000  H
  H41      1.0000 0.83510  0.28500  0.87580  Biso   1.000  H
  H42      1.0000 0.85370  0.15970  0.83340  Biso   1.000  H
  Eu7      1.0000 0.54162  0.69428  0.99430  Biso   1.000  Eu
  Zn7      1.0000 0.71222  0.49019  0.83624  Biso   1.000  Zn
  O49      1.0000 0.54720  0.43420  0.99616  Biso   1.000  O
  O50      1.0000 0.54097  0.19720  0.98240  Biso   1.000  O
  O51      1.0000 0.61555  0.64880  0.95790  Biso   1.000  O
  O52      1.0000 0.66468  0.63530  0.88230  Biso   1.000  O
  O53      1.0000 0.80454  0.51790  0.92683  Biso   1.000  O
  O54      1.0000 0.89239  0.62280  0.94630  Biso   1.000  O
  O55      1.0000 0.92363  0.86640  0.87880  Biso   1.000  O
  O56      1.0000 0.87961  0.95760  0.76120  Biso   1.000  O
  N25      1.0000 0.64200  0.18140  0.94850  Biso   1.000  N
  H43      1.0000 0.63270  0.09520  0.96120  Biso   1.000  H
  N26      1.0000 0.68457  0.34890  0.90440  Biso   1.000  N
  N27      1.0000 0.74324  0.66770  0.79640  Biso   1.000  N
  N28      1.0000 0.77168  0.83610  0.73310  Biso   1.000  N
  C73      1.0000 0.56600  0.31520  0.98040  Biso   1.000  C
  C74      1.0000 0.61760  0.31410  0.95630  Biso   1.000  C
  C75      1.0000 0.64510  0.41660  0.92980  Biso   1.000  C
  C76      1.0000 0.64100  0.57800  0.92250  Biso   1.000  C
  C77      1.0000 0.68240  0.20730  0.91800  Biso   1.000  C
  C78      1.0000 0.71770  0.08990  0.90110  Biso   1.000  C
  H44      1.0000 0.70060  0.07090  0.84650  Biso   1.000  H
  H45      1.0000 0.75910  0.12050  0.91760  Biso   1.000  H
  H46      1.0000 0.71610  0.00250  0.92820  Biso   1.000  H
  C79      1.0000 0.83560  0.60910  0.90880  Biso   1.000  C
  C80      1.0000 0.80340  0.69680  0.83840  Biso   1.000  C
  C81      1.0000 0.82090  0.80150  0.79950  Biso   1.000  C
  C82      1.0000 0.87830  0.87870  0.81410  Biso   1.000  C
  C83      1.0000 0.72610  0.75420  0.73410  Biso   1.000  C
  C84      1.0000 0.66360  0.75580  0.67210  Biso   1.000  C
  H47      1.0000 0.63920  0.82360  0.68560  Biso   1.000  H
  H48      1.0000 0.66490  0.78500  0.62420  Biso   1.000  H
  H49      1.0000 0.64630  0.65970  0.66660  Biso   1.000  H
  Eu8      1.0000 0.04162  0.19428  0.99430  Biso   1.000  Eu
  Zn8      1.0000 0.21222  0.99019  0.83624  Biso   1.000  Zn
  O57      1.0000 0.04720  0.93420  0.99616  Biso   1.000  O
  O58      1.0000 0.04097  0.69720  0.98240  Biso   1.000  O
  O59      1.0000 0.11555  0.14880  0.95790  Biso   1.000  O
  O60      1.0000 0.16468  0.13530  0.88230  Biso   1.000  O
  O61      1.0000 0.30454  0.01790  0.92683  Biso   1.000  O
  O62      1.0000 0.39239  0.12280  0.94630  Biso   1.000  O
  O63      1.0000 0.42363  0.36640  0.87880  Biso   1.000  O
  O64      1.0000 0.37961  0.45760  0.76120  Biso   1.000  O
  N29      1.0000 0.14200  0.68140  0.94850  Biso   1.000  N
  H50      1.0000 0.13270  0.59520  0.96120  Biso   1.000  H
  N30      1.0000 0.18457  0.84890  0.90440  Biso   1.000  N
  N31      1.0000 0.24324  0.16770  0.79640  Biso   1.000  N
  N32      1.0000 0.27168  0.33610  0.73310  Biso   1.000  N
  C85      1.0000 0.06600  0.81520  0.98040  Biso   1.000  C
  C86      1.0000 0.11760  0.81410  0.95630  Biso   1.000  C
  C87      1.0000 0.14510  0.91660  0.92980  Biso   1.000  C
  C88      1.0000 0.14100  0.07800  0.92250  Biso   1.000  C
  C89      1.0000 0.18240  0.70730  0.91800  Biso   1.000  C
  C90      1.0000 0.21770  0.58990  0.90110  Biso   1.000  C
  H51      1.0000 0.20060  0.57090  0.84650  Biso   1.000  H
  H52      1.0000 0.25910  0.62050  0.91760  Biso   1.000  H
  H53      1.0000 0.21610  0.50250  0.92820  Biso   1.000  H
  C91      1.0000 0.33560  0.10910  0.90880  Biso   1.000  C
  C92      1.0000 0.30340  0.19680  0.83840  Biso   1.000  C
  C93      1.0000 0.32090  0.30150  0.79950  Biso   1.000  C
  C94      1.0000 0.37830  0.37870  0.81410  Biso   1.000  C
  C95      1.0000 0.22610  0.25420  0.73410  Biso   1.000  C
  C96      1.0000 0.16360  0.25580  0.67210  Biso   1.000  C
  H54      1.0000 0.13920  0.32360  0.68560  Biso   1.000  H
  H55      1.0000 0.16490  0.28500  0.62420  Biso   1.000  H
  H56      1.0000 0.14630  0.15970  0.66660  Biso   1.000  H
