data_DIMQOH_clean
_audit_creation_date              2014-07-02
_audit_creation_method            'Materials Studio'
_symmetry_space_group_name_H-M    'P1'
_symmetry_Int_Tables_number       1
_symmetry_cell_setting            triclinic
loop_
_symmetry_equiv_pos_as_xyz
  x,y,z
_cell_length_a                    10.5841
_cell_length_b                    10.5841
_cell_length_c                    12.2246
_cell_angle_alpha                 90.0000
_cell_angle_beta                  90.0000
_cell_angle_gamma                 112.8540
loop_
_atom_site_label
_atom_site_type_symbol
_atom_site_fract_x
_atom_site_fract_y
_atom_site_fract_z
_atom_site_U_iso_or_equiv
_atom_site_adp_type
_atom_site_occupancy
Mn1    Mn    0.50000   0.50000   0.00000   0.01267  Uiso   1.00
Mn2    Mn    0.00000   0.00000   0.50000   0.01267  Uiso   1.00
Ag1    Ag    0.75429   0.24571   0.75789   0.01267  Uiso   1.00
Ag2    Ag    0.74571   0.25429   0.25789   0.01267  Uiso   1.00
Ag3    Ag    0.25429   0.74571   0.74211   0.01267  Uiso   1.00
Ag4    Ag    0.24571   0.75429   0.24211   0.01267  Uiso   1.00
H1     H     0.73320   0.69920   0.84420   0.01267  Uiso   1.00
H2     H     0.91100   0.91540   0.83730   0.01267  Uiso   1.00
H3     H     0.76680   0.80080   0.34420   0.01267  Uiso   1.00
H4     H     0.58900   0.58460   0.33730   0.01267  Uiso   1.00
H5     H     0.80080   0.76680   0.65580   0.01267  Uiso   1.00
H6     H     0.58460   0.58900   0.66270   0.01267  Uiso   1.00
H7     H     0.69920   0.73320   0.15580   0.01267  Uiso   1.00
H8     H     0.91540   0.91100   0.16270   0.01267  Uiso   1.00
H9     H     0.26680   0.30080   0.15580   0.01267  Uiso   1.00
H10    H     0.08900   0.08460   0.16270   0.01267  Uiso   1.00
H11    H     0.23320   0.19920   0.65580   0.01267  Uiso   1.00
H12    H     0.41100   0.41540   0.66270   0.01267  Uiso   1.00
H13    H     0.19920   0.23320   0.34420   0.01267  Uiso   1.00
H14    H     0.41540   0.41100   0.33730   0.01267  Uiso   1.00
H15    H     0.30080   0.26680   0.84420   0.01267  Uiso   1.00
H16    H     0.08460   0.08900   0.83730   0.01267  Uiso   1.00
C1     C     0.76290   0.74870   0.91050   0.01267  Uiso   1.00
C2     C     0.87690   0.87470   0.90600   0.01267  Uiso   1.00
C3     C     0.73710   0.75130   0.41050   0.01267  Uiso   1.00
C4     C     0.62310   0.62530   0.40600   0.01267  Uiso   1.00
C5     C     0.75130   0.73710   0.58950   0.01267  Uiso   1.00
C6     C     0.62530   0.62310   0.59400   0.01267  Uiso   1.00
C7     C     0.74870   0.76290   0.08950   0.01267  Uiso   1.00
C8     C     0.87470   0.87690   0.09400   0.01267  Uiso   1.00
C9     C     0.23710   0.25130   0.08950   0.01267  Uiso   1.00
C10    C     0.12310   0.12530   0.09400   0.01267  Uiso   1.00
C11    C     0.26290   0.24870   0.58950   0.01267  Uiso   1.00
C12    C     0.37690   0.37470   0.59400   0.01267  Uiso   1.00
C13    C     0.24870   0.26290   0.41050   0.01267  Uiso   1.00
C14    C     0.37470   0.37690   0.40600   0.01267  Uiso   1.00
C15    C     0.25130   0.23710   0.91050   0.01267  Uiso   1.00
C16    C     0.12530   0.12310   0.90600   0.01267  Uiso   1.00
C17    C     0.64900   0.35100   0.83110   0.01267  Uiso   1.00
C18    C     0.85860   0.14140   0.68310   0.01267  Uiso   1.00
C19    C     0.85100   0.14900   0.33110   0.01267  Uiso   1.00
C20    C     0.64140   0.35860   0.18310   0.01267  Uiso   1.00
C21    C     0.14900   0.85100   0.66890   0.01267  Uiso   1.00
C22    C     0.35860   0.64140   0.81690   0.01267  Uiso   1.00
C23    C     0.35100   0.64900   0.16890   0.01267  Uiso   1.00
C24    C     0.14140   0.85860   0.31690   0.01267  Uiso   1.00
C25    C     0.93820   0.93820   0.00000   0.01267  Uiso   1.00
C26    C     0.56180   0.56180   0.50000   0.01267  Uiso   1.00
C27    C     0.06180   0.06180   0.00000   0.01267  Uiso   1.00
C28    C     0.43820   0.43820   0.50000   0.01267  Uiso   1.00
N1     N     0.59280   0.40720   0.87650   0.01267  Uiso   1.00
N2     N     0.91420   0.08580   0.63260   0.01267  Uiso   1.00
N3     N     0.90720   0.09280   0.37650   0.01267  Uiso   1.00
N4     N     0.58580   0.41420   0.13260   0.01267  Uiso   1.00
N5     N     0.09280   0.90720   0.62350   0.01267  Uiso   1.00
N6     N     0.41420   0.58580   0.86740   0.01267  Uiso   1.00
N7     N     0.40720   0.59280   0.12350   0.01267  Uiso   1.00
N8     N     0.08580   0.91420   0.36740   0.01267  Uiso   1.00
N9     N     0.69560   0.69560   0.00000   0.01267  Uiso   1.00
N10    N     0.80440   0.80440   0.50000   0.01267  Uiso   1.00
N11    N     0.30440   0.30440   0.00000   0.01267  Uiso   1.00
N12    N     0.19560   0.19560   0.50000   0.01267  Uiso   1.00
