data_DIPMAS_clean
_audit_creation_date              2014-07-02
_audit_creation_method            'Materials Studio'
_symmetry_space_group_name_H-M    'P1'
_symmetry_Int_Tables_number       1
_symmetry_cell_setting            triclinic
loop_
_symmetry_equiv_pos_as_xyz
  x,y,z
_cell_length_a                    11.0969
_cell_length_b                    13.4016
_cell_length_c                    15.9315
_cell_angle_alpha                 65.1275
_cell_angle_beta                  69.6185
_cell_angle_gamma                 90.0000
loop_
_atom_site_label
_atom_site_type_symbol
_atom_site_fract_x
_atom_site_fract_y
_atom_site_fract_z
_atom_site_U_iso_or_equiv
_atom_site_adp_type
_atom_site_occupancy
Ce1    Ce    0.02760   0.62740   0.44400   0.01267  Uiso   1.00
Ce2    Ce    0.47160   0.37260   0.55600   0.01267  Uiso   1.00
Ce3    Ce    0.97160   0.07140   0.55600   0.01267  Uiso   1.00
Ce4    Ce    0.52760   0.92860   0.44400   0.01267  Uiso   1.00
Ce5    Ce    0.99820   1.00000   0.00000   0.01267  Uiso   1.00
Ce6    Ce    0.49820   0.00000   0.00000   0.01267  Uiso   1.00
P1     P     0.84330   0.70580   0.17700   0.01267  Uiso   1.00
P2     P     0.38160   0.60470   0.39580   0.01267  Uiso   1.00
P3     P     0.02030   0.29420   0.82300   0.01267  Uiso   1.00
P4     P     0.77740   0.39530   0.60420   0.01267  Uiso   1.00
P5     P     0.52030   0.88280   0.82300   0.01267  Uiso   1.00
P6     P     0.27740   0.00050   0.60420   0.01267  Uiso   1.00
P7     P     0.34330   0.11720   0.17700   0.01267  Uiso   1.00
P8     P     0.88160   0.99950   0.39580   0.01267  Uiso   1.00
C1     C     0.99610   0.81880   0.21840   0.01267  Uiso   1.00
C2     C     0.85970   0.75270   0.26400   0.01267  Uiso   1.00
C3     C     0.43880   0.68970   0.44080   0.01267  Uiso   1.00
C4     C     0.54270   0.67790   0.48280   0.01267  Uiso   1.00
C5     C     0.21450   0.18120   0.78160   0.01267  Uiso   1.00
C6     C     0.12370   0.24730   0.73600   0.01267  Uiso   1.00
C7     C     0.87960   0.31030   0.55920   0.01267  Uiso   1.00
C8     C     0.02550   0.32210   0.51720   0.01267  Uiso   1.00
C9     C     0.71450   0.03720   0.78160   0.01267  Uiso   1.00
C10    C     0.62370   0.01670   0.73600   0.01267  Uiso   1.00
C11    C     0.37960   0.13050   0.55920   0.01267  Uiso   1.00
C12    C     0.52550   0.16070   0.51720   0.01267  Uiso   1.00
C13    C     0.49610   0.96280   0.21840   0.01267  Uiso   1.00
C14    C     0.35970   0.98330   0.26400   0.01267  Uiso   1.00
C15    C     0.93880   0.86950   0.44080   0.01267  Uiso   1.00
C16    C     0.04270   0.83930   0.48280   0.01267  Uiso   1.00
O1     O     0.85260   0.81000   0.08220   0.01267  Uiso   1.00
O2     O     0.06720   0.83640   0.12900   0.01267  Uiso   1.00
O3     O     0.71060   0.63020   0.22480   0.01267  Uiso   1.00
O4     O     0.95540   0.64190   0.15300   0.01267  Uiso   1.00
O5     O     0.05430   0.79530   0.27920   0.01267  Uiso   1.00
O6     O     0.84050   0.66240   0.35680   0.01267  Uiso   1.00
O7     O     0.26400   0.64700   0.36940   0.01267  Uiso   1.00
O8     O     0.33740   0.48150   0.47600   0.01267  Uiso   1.00
O9     O     0.35710   0.76540   0.45260   0.01267  Uiso   1.00
O10    O     0.58580   0.58470   0.50260   0.01267  Uiso   1.00
O11    O     0.63090   0.76180   0.44980   0.01267  Uiso   1.00
O12    O     0.49530   0.60500   0.30600   0.01267  Uiso   1.00
O13    O     0.93480   0.19000   0.91780   0.01267  Uiso   1.00
O14    O     0.19620   0.16360   0.87100   0.01267  Uiso   1.00
O15    O     0.93540   0.36980   0.77520   0.01267  Uiso   1.00
O16    O     0.10840   0.35810   0.84700   0.01267  Uiso   1.00
O17    O     0.33350   0.20470   0.72080   0.01267  Uiso   1.00
O18    O     0.19730   0.33760   0.64320   0.01267  Uiso   1.00
O19    O     0.63340   0.35300   0.63060   0.01267  Uiso   1.00
O20    O     0.81340   0.51850   0.52400   0.01267  Uiso   1.00
O21    O     0.80970   0.23460   0.54740   0.01267  Uiso   1.00
O22    O     0.08840   0.41530   0.49740   0.01267  Uiso   1.00
O23    O     0.08070   0.23820   0.55020   0.01267  Uiso   1.00
O24    O     0.80130   0.39500   0.69400   0.01267  Uiso   1.00
O25    O     0.43480   0.89220   0.91780   0.01267  Uiso   1.00
O26    O     0.69620   0.96540   0.87100   0.01267  Uiso   1.00
O27    O     0.43540   0.85500   0.77520   0.01267  Uiso   1.00
O28    O     0.60840   0.79490   0.84700   0.01267  Uiso   1.00
O29    O     0.83350   0.07450   0.72080   0.01267  Uiso   1.00
O30    O     0.69730   0.01920   0.64320   0.01267  Uiso   1.00
O31    O     0.13340   0.01640   0.63060   0.01267  Uiso   1.00
O32    O     0.31340   0.95750   0.52400   0.01267  Uiso   1.00
O33    O     0.30970   0.21800   0.54740   0.01267  Uiso   1.00
O34    O     0.58840   0.08730   0.49740   0.01267  Uiso   1.00
O35    O     0.58070   0.21160   0.55020   0.01267  Uiso   1.00
O36    O     0.30130   0.91100   0.69400   0.01267  Uiso   1.00
O37    O     0.35260   0.10780   0.08220   0.01267  Uiso   1.00
O38    O     0.56720   0.03460   0.12900   0.01267  Uiso   1.00
O39    O     0.21060   0.14500   0.22480   0.01267  Uiso   1.00
O40    O     0.45540   0.20510   0.15300   0.01267  Uiso   1.00
O41    O     0.55430   0.92550   0.27920   0.01267  Uiso   1.00
O42    O     0.34050   0.98080   0.35680   0.01267  Uiso   1.00
O43    O     0.76400   0.98360   0.36940   0.01267  Uiso   1.00
O44    O     0.83740   0.04250   0.47600   0.01267  Uiso   1.00
O45    O     0.85710   0.78200   0.45260   0.01267  Uiso   1.00
O46    O     0.08580   0.91270   0.50260   0.01267  Uiso   1.00
O47    O     0.13090   0.78840   0.44980   0.01267  Uiso   1.00
O48    O     0.99530   0.08900   0.30600   0.01267  Uiso   1.00
