data_DITJOH_clean
_audit_creation_date              2014-07-02
_audit_creation_method            'Materials Studio'
_symmetry_space_group_name_H-M    'P1'
_symmetry_Int_Tables_number       1
_symmetry_cell_setting            triclinic
loop_
_symmetry_equiv_pos_as_xyz
  x,y,z
_cell_length_a                    19.9360
_cell_length_b                    19.9360
_cell_length_c                    25.3970
_cell_angle_alpha                 66.8906
_cell_angle_beta                  66.8906
_cell_angle_gamma                 89.9999
loop_
_atom_site_label
_atom_site_type_symbol
_atom_site_fract_x
_atom_site_fract_y
_atom_site_fract_z
_atom_site_U_iso_or_equiv
_atom_site_adp_type
_atom_site_occupancy
Zr1    Zr    0.05781   0.05781   0.88438   0.01267  Uiso   1.00
Zr2    Zr    0.94219   0.94219   0.11562   0.01267  Uiso   1.00
Zr3    Zr    0.87487   0.99916   0.00000   0.01267  Uiso   1.00
Zr4    Zr    0.12513   0.00084   1.00000   0.01267  Uiso   1.00
Zr5    Zr    0.99916   0.12513   1.00000   0.01267  Uiso   1.00
Zr6    Zr    0.00084   0.87487   0.00000   0.01267  Uiso   1.00
H1     H     0.00250   0.15530   0.72600   0.01267  Uiso   1.00
H2     H     0.96930   0.19180   0.64140   0.01267  Uiso   1.00
H3     H     0.75800   0.08570   0.76340   0.01267  Uiso   1.00
H4     H     0.79120   0.04920   0.84800   0.01267  Uiso   1.00
H5     H     0.89240   0.27490   0.60060   0.01267  Uiso   1.00
H6     H     0.84690   0.32330   0.52360   0.01267  Uiso   1.00
H7     H     0.73010   0.11950   0.58700   0.01267  Uiso   1.00
H8     H     0.77560   0.07130   0.66380   0.01267  Uiso   1.00
H9     H     0.27150   0.11870   0.72600   0.01267  Uiso   1.00
H10    H     0.38930   0.16680   0.64140   0.01267  Uiso   1.00
H11    H     0.47860   0.15090   0.76340   0.01267  Uiso   1.00
H12    H     0.36080   0.10280   0.84800   0.01267  Uiso   1.00
H13    H     0.50700   0.12450   0.60060   0.01267  Uiso   1.00
H14    H     0.62950   0.15310   0.52360   0.01267  Uiso   1.00
H15    H     0.68290   0.29350   0.58700   0.01267  Uiso   1.00
H16    H     0.56060   0.26490   0.66380   0.01267  Uiso   1.00
H17    H     0.15530   0.27150   0.72600   0.01267  Uiso   1.00
H18    H     0.19180   0.38930   0.64140   0.01267  Uiso   1.00
H19    H     0.08570   0.47860   0.76340   0.01267  Uiso   1.00
H20    H     0.04920   0.36080   0.84800   0.01267  Uiso   1.00
H21    H     0.27490   0.50700   0.60060   0.01267  Uiso   1.00
H22    H     0.32330   0.62950   0.52360   0.01267  Uiso   1.00
H23    H     0.11950   0.68290   0.58700   0.01267  Uiso   1.00
H24    H     0.07130   0.56060   0.66380   0.01267  Uiso   1.00
H25    H     0.11870   0.00250   0.72600   0.01267  Uiso   1.00
H26    H     0.16680   0.96930   0.64140   0.01267  Uiso   1.00
H27    H     0.15090   0.75800   0.76340   0.01267  Uiso   1.00
H28    H     0.10280   0.79120   0.84800   0.01267  Uiso   1.00
H29    H     0.12450   0.89240   0.60060   0.01267  Uiso   1.00
H30    H     0.15310   0.84690   0.52360   0.01267  Uiso   1.00
H31    H     0.29350   0.73010   0.58700   0.01267  Uiso   1.00
H32    H     0.26490   0.77560   0.66380   0.01267  Uiso   1.00
H33    H     0.99750   0.84470   0.27400   0.01267  Uiso   1.00
H34    H     0.03070   0.80820   0.35860   0.01267  Uiso   1.00
H35    H     0.24200   0.91430   0.23660   0.01267  Uiso   1.00
H36    H     0.20880   0.95080   0.15200   0.01267  Uiso   1.00
H37    H     0.10760   0.72510   0.39940   0.01267  Uiso   1.00
H38    H     0.15310   0.67670   0.47640   0.01267  Uiso   1.00
H39    H     0.26990   0.88050   0.41300   0.01267  Uiso   1.00
H40    H     0.22440   0.92870   0.33620   0.01267  Uiso   1.00
H41    H     0.72850   0.88130   0.27400   0.01267  Uiso   1.00
H42    H     0.61070   0.83320   0.35860   0.01267  Uiso   1.00
H43    H     0.52140   0.84910   0.23660   0.01267  Uiso   1.00
H44    H     0.63920   0.89720   0.15200   0.01267  Uiso   1.00
H45    H     0.49300   0.87550   0.39940   0.01267  Uiso   1.00
H46    H     0.37050   0.84690   0.47640   0.01267  Uiso   1.00
H47    H     0.31710   0.70650   0.41300   0.01267  Uiso   1.00
H48    H     0.43940   0.73510   0.33620   0.01267  Uiso   1.00
H49    H     0.84470   0.72850   0.27400   0.01267  Uiso   1.00
H50    H     0.80820   0.61070   0.35860   0.01267  Uiso   1.00
H51    H     0.91430   0.52140   0.23660   0.01267  Uiso   1.00
H52    H     0.95080   0.63920   0.15200   0.01267  Uiso   1.00
H53    H     0.72510   0.49300   0.39940   0.01267  Uiso   1.00
H54    H     0.67670   0.37050   0.47640   0.01267  Uiso   1.00
H55    H     0.88050   0.31710   0.41300   0.01267  Uiso   1.00
H56    H     0.92870   0.43940   0.33620   0.01267  Uiso   1.00
H57    H     0.88130   0.99750   0.27400   0.01267  Uiso   1.00
H58    H     0.83320   0.03070   0.35860   0.01267  Uiso   1.00
H59    H     0.84910   0.24200   0.23660   0.01267  Uiso   1.00
H60    H     0.89720   0.20880   0.15200   0.01267  Uiso   1.00
H61    H     0.87550   0.10760   0.39940   0.01267  Uiso   1.00
H62    H     0.84690   0.15310   0.47640   0.01267  Uiso   1.00
H63    H     0.70650   0.26990   0.41300   0.01267  Uiso   1.00
H64    H     0.73510   0.22440   0.33620   0.01267  Uiso   1.00
C1     C     0.92565   0.07805   0.84550   0.01267  Uiso   1.00
C2     C     0.89991   0.09881   0.79498   0.01267  Uiso   1.00
C3     C     0.95281   0.14121   0.73358   0.01267  Uiso   1.00
C4     C     0.93316   0.16286   0.68328   0.01267  Uiso   1.00
C5     C     0.86061   0.14221   0.69438   0.01267  Uiso   1.00
C6     C     0.80772   0.09982   0.75576   0.01267  Uiso   1.00
C7     C     0.82737   0.07817   0.80606   0.01267  Uiso   1.00
C8     C     0.83831   0.16861   0.63938   0.01267  Uiso   1.00
C9     C     0.85952   0.24342   0.59776   0.01267  Uiso   1.00
C10    C     0.83244   0.27204   0.55212   0.01267  Uiso   1.00
C11    C     0.78426   0.22596   0.54808   0.01267  Uiso   1.00
C12    C     0.76306   0.15116   0.58968   0.01267  Uiso   1.00
C13    C     0.79013   0.12243   0.63534   0.01267  Uiso   1.00
C14    C     0.22885   0.07645   0.84550   0.01267  Uiso   1.00
C15    C     0.30511   0.10621   0.79498   0.01267  Uiso   1.00
C16    C     0.31361   0.12521   0.73358   0.01267  Uiso   1.00
C17    C     0.38356   0.15386   0.68328   0.01267  Uiso   1.00
C18    C     0.44501   0.16341   0.69438   0.01267  Uiso   1.00
C19    C     0.43652   0.14442   0.75576   0.01267  Uiso   1.00
C20    C     0.36657   0.11577   0.80606   0.01267  Uiso   1.00
C21    C     0.52231   0.19201   0.63938   0.01267  Uiso   1.00
C22    C     0.54272   0.15882   0.59776   0.01267  Uiso   1.00
C23    C     0.61544   0.17584   0.55212   0.01267  Uiso   1.00
C24    C     0.66766   0.22596   0.54808   0.01267  Uiso   1.00
C25    C     0.64726   0.25916   0.58968   0.01267  Uiso   1.00
C26    C     0.57453   0.24223   0.63534   0.01267  Uiso   1.00
C27    C     0.07805   0.22885   0.84550   0.01267  Uiso   1.00
C28    C     0.09881   0.30511   0.79498   0.01267  Uiso   1.00
C29    C     0.14121   0.31361   0.73358   0.01267  Uiso   1.00
C30    C     0.16286   0.38356   0.68328   0.01267  Uiso   1.00
C31    C     0.14221   0.44501   0.69438   0.01267  Uiso   1.00
C32    C     0.09982   0.43652   0.75576   0.01267  Uiso   1.00
C33    C     0.07817   0.36657   0.80606   0.01267  Uiso   1.00
C34    C     0.16861   0.52231   0.63938   0.01267  Uiso   1.00
C35    C     0.24342   0.54272   0.59776   0.01267  Uiso   1.00
C36    C     0.27204   0.61544   0.55212   0.01267  Uiso   1.00
C37    C     0.22596   0.66766   0.54808   0.01267  Uiso   1.00
C38    C     0.15116   0.64726   0.58968   0.01267  Uiso   1.00
C39    C     0.12243   0.57453   0.63534   0.01267  Uiso   1.00
C40    C     0.07645   0.92565   0.84550   0.01267  Uiso   1.00
C41    C     0.10621   0.89991   0.79498   0.01267  Uiso   1.00
C42    C     0.12521   0.95281   0.73358   0.01267  Uiso   1.00
C43    C     0.15386   0.93316   0.68328   0.01267  Uiso   1.00
C44    C     0.16341   0.86061   0.69438   0.01267  Uiso   1.00
C45    C     0.14442   0.80772   0.75576   0.01267  Uiso   1.00
C46    C     0.11577   0.82737   0.80606   0.01267  Uiso   1.00
C47    C     0.19201   0.83831   0.63938   0.01267  Uiso   1.00
C48    C     0.15882   0.85952   0.59776   0.01267  Uiso   1.00
C49    C     0.17584   0.83244   0.55212   0.01267  Uiso   1.00
C50    C     0.22596   0.78426   0.54808   0.01267  Uiso   1.00
C51    C     0.25916   0.76306   0.58968   0.01267  Uiso   1.00
C52    C     0.24223   0.79013   0.63534   0.01267  Uiso   1.00
C53    C     0.07435   0.92195   0.15450   0.01267  Uiso   1.00
C54    C     0.10009   0.90119   0.20502   0.01267  Uiso   1.00
C55    C     0.04719   0.85879   0.26642   0.01267  Uiso   1.00
C56    C     0.06684   0.83714   0.31672   0.01267  Uiso   1.00
C57    C     0.13939   0.85779   0.30562   0.01267  Uiso   1.00
C58    C     0.19228   0.90018   0.24424   0.01267  Uiso   1.00
C59    C     0.17263   0.92183   0.19394   0.01267  Uiso   1.00
C60    C     0.16169   0.83139   0.36062   0.01267  Uiso   1.00
C61    C     0.14048   0.75658   0.40224   0.01267  Uiso   1.00
C62    C     0.16756   0.72796   0.44788   0.01267  Uiso   1.00
C63    C     0.21574   0.77404   0.45192   0.01267  Uiso   1.00
C64    C     0.23694   0.84884   0.41032   0.01267  Uiso   1.00
C65    C     0.20987   0.87757   0.36466   0.01267  Uiso   1.00
C66    C     0.77115   0.92355   0.15450   0.01267  Uiso   1.00
C67    C     0.69489   0.89379   0.20502   0.01267  Uiso   1.00
C68    C     0.68639   0.87479   0.26642   0.01267  Uiso   1.00
C69    C     0.61644   0.84614   0.31672   0.01267  Uiso   1.00
C70    C     0.55499   0.83659   0.30562   0.01267  Uiso   1.00
C71    C     0.56348   0.85558   0.24424   0.01267  Uiso   1.00
C72    C     0.63343   0.88423   0.19394   0.01267  Uiso   1.00
C73    C     0.47769   0.80799   0.36062   0.01267  Uiso   1.00
C74    C     0.45728   0.84118   0.40224   0.01267  Uiso   1.00
C75    C     0.38456   0.82416   0.44788   0.01267  Uiso   1.00
C76    C     0.33234   0.77404   0.45192   0.01267  Uiso   1.00
C77    C     0.35274   0.74084   0.41032   0.01267  Uiso   1.00
C78    C     0.42547   0.75777   0.36466   0.01267  Uiso   1.00
C79    C     0.92195   0.77115   0.15450   0.01267  Uiso   1.00
C80    C     0.90119   0.69489   0.20502   0.01267  Uiso   1.00
C81    C     0.85879   0.68639   0.26642   0.01267  Uiso   1.00
C82    C     0.83714   0.61644   0.31672   0.01267  Uiso   1.00
C83    C     0.85779   0.55499   0.30562   0.01267  Uiso   1.00
C84    C     0.90018   0.56348   0.24424   0.01267  Uiso   1.00
C85    C     0.92183   0.63343   0.19394   0.01267  Uiso   1.00
C86    C     0.83139   0.47769   0.36062   0.01267  Uiso   1.00
C87    C     0.75658   0.45728   0.40224   0.01267  Uiso   1.00
C88    C     0.72796   0.38456   0.44788   0.01267  Uiso   1.00
C89    C     0.77404   0.33234   0.45192   0.01267  Uiso   1.00
C90    C     0.84884   0.35274   0.41032   0.01267  Uiso   1.00
C91    C     0.87757   0.42547   0.36466   0.01267  Uiso   1.00
C92    C     0.92355   0.07435   0.15450   0.01267  Uiso   1.00
C93    C     0.89379   0.10009   0.20502   0.01267  Uiso   1.00
C94    C     0.87479   0.04719   0.26642   0.01267  Uiso   1.00
C95    C     0.84614   0.06684   0.31672   0.01267  Uiso   1.00
C96    C     0.83659   0.13939   0.30562   0.01267  Uiso   1.00
C97    C     0.85558   0.19228   0.24424   0.01267  Uiso   1.00
C98    C     0.88423   0.17263   0.19394   0.01267  Uiso   1.00
C99    C     0.80799   0.16169   0.36062   0.01267  Uiso   1.00
C100   C     0.84118   0.14048   0.40224   0.01267  Uiso   1.00
C101   C     0.82416   0.16756   0.44788   0.01267  Uiso   1.00
C102   C     0.77404   0.21574   0.45192   0.01267  Uiso   1.00
C103   C     0.74084   0.23694   0.41032   0.01267  Uiso   1.00
C104   C     0.75777   0.20987   0.36466   0.01267  Uiso   1.00
C105   C     0.75000   0.25000   0.50000   0.01267  Uiso   1.00
C106   C     0.25000   0.75000   0.50000   0.01267  Uiso   1.00
O1     O     0.99203   0.08363   0.83114   0.01267  Uiso   1.00
O2     O     0.87172   0.04482   0.90416   0.01267  Uiso   1.00
O3     O     0.96481   0.09281   0.94338   0.01267  Uiso   1.00
O4     O     0.17683   0.08523   0.83114   0.01267  Uiso   1.00
O5     O     0.22412   0.05102   0.90416   0.01267  Uiso   1.00
O6     O     0.09181   0.96381   0.94338   0.01267  Uiso   1.00
O7     O     0.08363   0.17683   0.83114   0.01267  Uiso   1.00
O8     O     0.04482   0.22412   0.90416   0.01267  Uiso   1.00
O9     O     0.09281   0.09181   0.94338   0.01267  Uiso   1.00
O10    O     0.08523   0.99203   0.83114   0.01267  Uiso   1.00
O11    O     0.05102   0.87172   0.90416   0.01267  Uiso   1.00
O12    O     0.96381   0.96481   0.94338   0.01267  Uiso   1.00
O13    O     0.00797   0.91637   0.16886   0.01267  Uiso   1.00
O14    O     0.12828   0.95518   0.09584   0.01267  Uiso   1.00
O15    O     0.03519   0.90719   0.05662   0.01267  Uiso   1.00
O16    O     0.82317   0.91477   0.16886   0.01267  Uiso   1.00
O17    O     0.77588   0.94898   0.09584   0.01267  Uiso   1.00
O18    O     0.90819   0.03619   0.05662   0.01267  Uiso   1.00
O19    O     0.91637   0.82317   0.16886   0.01267  Uiso   1.00
O20    O     0.95518   0.77588   0.09584   0.01267  Uiso   1.00
O21    O     0.90719   0.90819   0.05662   0.01267  Uiso   1.00
O22    O     0.91477   0.00797   0.16886   0.01267  Uiso   1.00
O23    O     0.94898   0.12828   0.09584   0.01267  Uiso   1.00
O24    O     0.03619   0.03519   0.05662   0.01267  Uiso   1.00
