data_DITJIB_clean
_audit_creation_date              2014-07-02
_audit_creation_method            'Materials Studio'
_symmetry_space_group_name_H-M    'P1'
_symmetry_Int_Tables_number       1
_symmetry_cell_setting            triclinic
loop_
_symmetry_equiv_pos_as_xyz
  x,y,z
_cell_length_a                    21.0400
_cell_length_b                    21.0400
_cell_length_c                    24.9990
_cell_angle_alpha                 65.1137
_cell_angle_beta                  65.1137
_cell_angle_gamma                 89.9999
loop_
_atom_site_label
_atom_site_type_symbol
_atom_site_fract_x
_atom_site_fract_y
_atom_site_fract_z
_atom_site_U_iso_or_equiv
_atom_site_adp_type
_atom_site_occupancy
Hf1    Hf    0.56122   0.56122   0.87756   0.01267  Uiso   1.00
Hf2    Hf    0.43878   0.43878   0.12244   0.01267  Uiso   1.00
Hf3    Hf    0.61700   0.49954   0.00000   0.01267  Uiso   1.00
Hf4    Hf    0.38300   0.50046  -0.00000   0.01267  Uiso   1.00
Hf5    Hf    0.49954   0.38300   1.00000   0.01267  Uiso   1.00
Hf6    Hf    0.50046   0.61700   1.00000   0.01267  Uiso   1.00
H1     H     0.14060   0.66510   0.51100   0.01267  Uiso   1.00
H2     H     0.01830   0.62900   0.58660   0.01267  Uiso   1.00
H3     H     0.04970   0.73930   0.67600   0.01267  Uiso   1.00
H4     H     0.17200   0.77540   0.60040   0.01267  Uiso   1.00
H5     H     0.90420   0.68710   0.62860   0.01267  Uiso   1.00
H6     H     0.78210   0.64630   0.71020   0.01267  Uiso   1.00
H7     H     0.84450   0.57170   0.85320   0.01267  Uiso   1.00
H8     H     0.96500   0.61340   0.77000   0.01267  Uiso   1.00
H9     H     0.34840   0.82390   0.51100   0.01267  Uiso   1.00
H10    H     0.39510   0.78440   0.58660   0.01267  Uiso   1.00
H11    H     0.27430   0.58470   0.67600   0.01267  Uiso   1.00
H12    H     0.22760   0.62420   0.60040   0.01267  Uiso   1.00
H13    H     0.46720   0.68430   0.62860   0.01267  Uiso   1.00
H14    H     0.50770   0.64350   0.71020   0.01267  Uiso   1.00
H15    H     0.30230   0.57510   0.85320   0.01267  Uiso   1.00
H16    H     0.26500   0.61660   0.77000   0.01267  Uiso   1.00
H17    H     0.66510   0.34840   0.51100   0.01267  Uiso   1.00
H18    H     0.62900   0.39510   0.58660   0.01267  Uiso   1.00
H19    H     0.73930   0.27430   0.67600   0.01267  Uiso   1.00
H20    H     0.77540   0.22760   0.60040   0.01267  Uiso   1.00
H21    H     0.68710   0.46720   0.62860   0.01267  Uiso   1.00
H22    H     0.64630   0.50770   0.71020   0.01267  Uiso   1.00
H23    H     0.57170   0.30230   0.85320   0.01267  Uiso   1.00
H24    H     0.61340   0.26500   0.77000   0.01267  Uiso   1.00
H25    H     0.82390   0.14060   0.51100   0.01267  Uiso   1.00
H26    H     0.78440   0.01830   0.58660   0.01267  Uiso   1.00
H27    H     0.58470   0.04970   0.67600   0.01267  Uiso   1.00
H28    H     0.62420   0.17200   0.60040   0.01267  Uiso   1.00
H29    H     0.68430   0.90420   0.62860   0.01267  Uiso   1.00
H30    H     0.64350   0.78210   0.71020   0.01267  Uiso   1.00
H31    H     0.57510   0.84450   0.85320   0.01267  Uiso   1.00
H32    H     0.61660   0.96500   0.77000   0.01267  Uiso   1.00
H33    H     0.85940   0.33490   0.48900   0.01267  Uiso   1.00
H34    H     0.98170   0.37100   0.41340   0.01267  Uiso   1.00
H35    H     0.95030   0.26070   0.32400   0.01267  Uiso   1.00
H36    H     0.82800   0.22460   0.39960   0.01267  Uiso   1.00
H37    H     0.09580   0.31290   0.37140   0.01267  Uiso   1.00
H38    H     0.21790   0.35370   0.28980   0.01267  Uiso   1.00
H39    H     0.15550   0.42830   0.14680   0.01267  Uiso   1.00
H40    H     0.03500   0.38660   0.23000   0.01267  Uiso   1.00
H41    H     0.65160   0.17610   0.48900   0.01267  Uiso   1.00
H42    H     0.60490   0.21560   0.41340   0.01267  Uiso   1.00
H43    H     0.72570   0.41530   0.32400   0.01267  Uiso   1.00
H44    H     0.77240   0.37580   0.39960   0.01267  Uiso   1.00
H45    H     0.53280   0.31570   0.37140   0.01267  Uiso   1.00
H46    H     0.49230   0.35650   0.28980   0.01267  Uiso   1.00
H47    H     0.69770   0.42490   0.14680   0.01267  Uiso   1.00
H48    H     0.73500   0.38340   0.23000   0.01267  Uiso   1.00
H49    H     0.33490   0.65160   0.48900   0.01267  Uiso   1.00
H50    H     0.37100   0.60490   0.41340   0.01267  Uiso   1.00
H51    H     0.26070   0.72570   0.32400   0.01267  Uiso   1.00
H52    H     0.22460   0.77240   0.39960   0.01267  Uiso   1.00
H53    H     0.31290   0.53280   0.37140   0.01267  Uiso   1.00
H54    H     0.35370   0.49230   0.28980   0.01267  Uiso   1.00
H55    H     0.42830   0.69770   0.14680   0.01267  Uiso   1.00
H56    H     0.38660   0.73500   0.23000   0.01267  Uiso   1.00
H57    H     0.17610   0.85940   0.48900   0.01267  Uiso   1.00
H58    H     0.21560   0.98170   0.41340   0.01267  Uiso   1.00
H59    H     0.41530   0.95030   0.32400   0.01267  Uiso   1.00
H60    H     0.37580   0.82800   0.39960   0.01267  Uiso   1.00
H61    H     0.31570   0.09580   0.37140   0.01267  Uiso   1.00
H62    H     0.35650   0.21790   0.28980   0.01267  Uiso   1.00
H63    H     0.42490   0.15550   0.14680   0.01267  Uiso   1.00
H64    H     0.38340   0.03500   0.23000   0.01267  Uiso   1.00
C1     C     0.16788   0.72370   0.54852   0.01267  Uiso   1.00
C2     C     0.02240   0.68080   0.63840   0.01267  Uiso   1.00
C3     C     0.12218   0.68028   0.54444   0.01267  Uiso   1.00
C4     C     0.04952   0.65872   0.58936   0.01267  Uiso   1.00
C5     C     0.06815   0.72425   0.64250   0.01267  Uiso   1.00
C6     C     0.14082   0.74572   0.59756   0.01267  Uiso   1.00
C7     C     0.94400   0.65393   0.69200   0.01267  Uiso   1.00
C8     C     0.89220   0.66360   0.67440   0.01267  Uiso   1.00
C9     C     0.81900   0.63920   0.72320   0.01267  Uiso   1.00
C10    C     0.80260   0.60550   0.78860   0.01267  Uiso   1.00
C11    C     0.85590   0.59520   0.80740   0.01267  Uiso   1.00
C12    C     0.92750   0.62010   0.75780   0.01267  Uiso   1.00
C13    C     0.72460   0.57730   0.84240   0.01267  Uiso   1.00
C14    C     0.28360   0.72778   0.54852   0.01267  Uiso   1.00
C15    C     0.33920   0.68080   0.63840   0.01267  Uiso   1.00
C16    C     0.33338   0.77528   0.54444   0.01267  Uiso   1.00
C17    C     0.36112   0.75192   0.58936   0.01267  Uiso   1.00
C18    C     0.28935   0.63325   0.64250   0.01267  Uiso   1.00
C19    C     0.26162   0.65672   0.59756   0.01267  Uiso   1.00
C20    C     0.36400   0.65407   0.69200   0.01267  Uiso   1.00
C21    C     0.43340   0.66200   0.67440   0.01267  Uiso   1.00
C22    C     0.45780   0.63760   0.72320   0.01267  Uiso   1.00
C23    C     0.40880   0.60590   0.78860   0.01267  Uiso   1.00
C24    C     0.33670   0.59740   0.80740   0.01267  Uiso   1.00
C25    C     0.31470   0.62210   0.75780   0.01267  Uiso   1.00
C26    C     0.43300   0.58030   0.84240   0.01267  Uiso   1.00
C27    C     0.72370   0.28360   0.54852   0.01267  Uiso   1.00
C28    C     0.68080   0.33920   0.63840   0.01267  Uiso   1.00
C29    C     0.68028   0.33338   0.54444   0.01267  Uiso   1.00
C30    C     0.65872   0.36112   0.58936   0.01267  Uiso   1.00
C31    C     0.72425   0.28935   0.64250   0.01267  Uiso   1.00
C32    C     0.74572   0.26162   0.59756   0.01267  Uiso   1.00
C33    C     0.65393   0.36400   0.69200   0.01267  Uiso   1.00
C34    C     0.66360   0.43340   0.67440   0.01267  Uiso   1.00
C35    C     0.63920   0.45780   0.72320   0.01267  Uiso   1.00
C36    C     0.60550   0.40880   0.78860   0.01267  Uiso   1.00
C37    C     0.59520   0.33670   0.80740   0.01267  Uiso   1.00
C38    C     0.62010   0.31470   0.75780   0.01267  Uiso   1.00
C39    C     0.57730   0.43300   0.84240   0.01267  Uiso   1.00
C40    C     0.72778   0.16788   0.54852   0.01267  Uiso   1.00
C41    C     0.68080   0.02240   0.63840   0.01267  Uiso   1.00
C42    C     0.77528   0.12218   0.54444   0.01267  Uiso   1.00
C43    C     0.75192   0.04952   0.58936   0.01267  Uiso   1.00
C44    C     0.63325   0.06815   0.64250   0.01267  Uiso   1.00
C45    C     0.65672   0.14082   0.59756   0.01267  Uiso   1.00
C46    C     0.65407   0.94400   0.69200   0.01267  Uiso   1.00
C47    C     0.66200   0.89220   0.67440   0.01267  Uiso   1.00
C48    C     0.63760   0.81900   0.72320   0.01267  Uiso   1.00
C49    C     0.60590   0.80260   0.78860   0.01267  Uiso   1.00
C50    C     0.59740   0.85590   0.80740   0.01267  Uiso   1.00
C51    C     0.62210   0.92750   0.75780   0.01267  Uiso   1.00
C52    C     0.58030   0.72460   0.84240   0.01267  Uiso   1.00
C53    C     0.83212   0.27630   0.45148   0.01267  Uiso   1.00
C54    C     0.97760   0.31920   0.36160   0.01267  Uiso   1.00
C55    C     0.87782   0.31972   0.45556   0.01267  Uiso   1.00
C56    C     0.95048   0.34128   0.41064   0.01267  Uiso   1.00
C57    C     0.93185   0.27575   0.35750   0.01267  Uiso   1.00
C58    C     0.85918   0.25428   0.40244   0.01267  Uiso   1.00
C59    C     0.05600   0.34607   0.30800   0.01267  Uiso   1.00
C60    C     0.10780   0.33640   0.32560   0.01267  Uiso   1.00
C61    C     0.18100   0.36080   0.27680   0.01267  Uiso   1.00
C62    C     0.19740   0.39450   0.21140   0.01267  Uiso   1.00
C63    C     0.14410   0.40480   0.19260   0.01267  Uiso   1.00
C64    C     0.07250   0.37990   0.24220   0.01267  Uiso   1.00
C65    C     0.27540   0.42270   0.15760   0.01267  Uiso   1.00
C66    C     0.71640   0.27222   0.45148   0.01267  Uiso   1.00
C67    C     0.66080   0.31920   0.36160   0.01267  Uiso   1.00
C68    C     0.66662   0.22472   0.45556   0.01267  Uiso   1.00
C69    C     0.63888   0.24808   0.41064   0.01267  Uiso   1.00
C70    C     0.71065   0.36675   0.35750   0.01267  Uiso   1.00
C71    C     0.73838   0.34328   0.40244   0.01267  Uiso   1.00
C72    C     0.63600   0.34593   0.30800   0.01267  Uiso   1.00
C73    C     0.56660   0.33800   0.32560   0.01267  Uiso   1.00
C74    C     0.54220   0.36240   0.27680   0.01267  Uiso   1.00
C75    C     0.59120   0.39410   0.21140   0.01267  Uiso   1.00
C76    C     0.66330   0.40260   0.19260   0.01267  Uiso   1.00
C77    C     0.68530   0.37790   0.24220   0.01267  Uiso   1.00
C78    C     0.56700   0.41970   0.15760   0.01267  Uiso   1.00
C79    C     0.27630   0.71640   0.45148   0.01267  Uiso   1.00
C80    C     0.31920   0.66080   0.36160   0.01267  Uiso   1.00
C81    C     0.31972   0.66662   0.45556   0.01267  Uiso   1.00
C82    C     0.34128   0.63888   0.41064   0.01267  Uiso   1.00
C83    C     0.27575   0.71065   0.35750   0.01267  Uiso   1.00
C84    C     0.25428   0.73838   0.40244   0.01267  Uiso   1.00
C85    C     0.34607   0.63600   0.30800   0.01267  Uiso   1.00
C86    C     0.33640   0.56660   0.32560   0.01267  Uiso   1.00
C87    C     0.36080   0.54220   0.27680   0.01267  Uiso   1.00
C88    C     0.39450   0.59120   0.21140   0.01267  Uiso   1.00
C89    C     0.40480   0.66330   0.19260   0.01267  Uiso   1.00
C90    C     0.37990   0.68530   0.24220   0.01267  Uiso   1.00
C91    C     0.42270   0.56700   0.15760   0.01267  Uiso   1.00
C92    C     0.27222   0.83212   0.45148   0.01267  Uiso   1.00
C93    C     0.31920   0.97760   0.36160   0.01267  Uiso   1.00
C94    C     0.22472   0.87782   0.45556   0.01267  Uiso   1.00
C95    C     0.24808   0.95048   0.41064   0.01267  Uiso   1.00
C96    C     0.36675   0.93185   0.35750   0.01267  Uiso   1.00
C97    C     0.34328   0.85918   0.40244   0.01267  Uiso   1.00
C98    C     0.34593   0.05600   0.30800   0.01267  Uiso   1.00
C99    C     0.33800   0.10780   0.32560   0.01267  Uiso   1.00
C100   C     0.36240   0.18100   0.27680   0.01267  Uiso   1.00
C101   C     0.39410   0.19740   0.21140   0.01267  Uiso   1.00
C102   C     0.40260   0.14410   0.19260   0.01267  Uiso   1.00
C103   C     0.37790   0.07250   0.24220   0.01267  Uiso   1.00
C104   C     0.41970   0.27540   0.15760   0.01267  Uiso   1.00
C105   C     0.25000   0.75000   0.50000   0.01267  Uiso   1.00
C106   C     0.75000   0.25000   0.50000   0.01267  Uiso   1.00
O1     O     0.67727   0.58847   0.82226   0.01267  Uiso   1.00
O2     O     0.71480   0.54820   0.90140   0.01267  Uiso   1.00
O3     O     0.58869   0.47039   0.94162   0.01267  Uiso   1.00
O4     O     0.50047   0.58927   0.82226   0.01267  Uiso   1.00
O5     O     0.38380   0.55040   0.90140   0.01267  Uiso   1.00
O6     O     0.46969   0.58799   0.94162   0.01267  Uiso   1.00
O7     O     0.58847   0.50047   0.82226   0.01267  Uiso   1.00
O8     O     0.54820   0.38380   0.90140   0.01267  Uiso   1.00
O9     O     0.47039   0.46969   0.94162   0.01267  Uiso   1.00
O10    O     0.58927   0.67727   0.82226   0.01267  Uiso   1.00
O11    O     0.55040   0.71480   0.90140   0.01267  Uiso   1.00
O12    O     0.58799   0.58869   0.94162   0.01267  Uiso   1.00
O13    O     0.32273   0.41153   0.17774   0.01267  Uiso   1.00
O14    O     0.28520   0.45180   0.09860   0.01267  Uiso   1.00
O15    O     0.41131   0.52961   0.05838   0.01267  Uiso   1.00
O16    O     0.49953   0.41073   0.17774   0.01267  Uiso   1.00
O17    O     0.61620   0.44960   0.09860   0.01267  Uiso   1.00
O18    O     0.53031   0.41201   0.05838   0.01267  Uiso   1.00
O19    O     0.41153   0.49953   0.17774   0.01267  Uiso   1.00
O20    O     0.45180   0.61620   0.09860   0.01267  Uiso   1.00
O21    O     0.52961   0.53031   0.05838   0.01267  Uiso   1.00
O22    O     0.41073   0.32273   0.17774   0.01267  Uiso   1.00
O23    O     0.44960   0.28520   0.09860   0.01267  Uiso   1.00
O24    O     0.41201   0.41131   0.05838   0.01267  Uiso   1.00
