data_image0
_cell_length_a       18.478
_cell_length_b       12.181
_cell_length_c       23.055
_cell_angle_alpha    90
_cell_angle_beta     90
_cell_angle_gamma    90

_symmetry_space_group_name_H-M    "P 1"
_symmetry_int_tables_number       1

loop_
  _symmetry_equiv_pos_as_xyz
  'x, y, z'

loop_
  _atom_site_label
  _atom_site_occupancy
  _atom_site_fract_x
  _atom_site_fract_y
  _atom_site_fract_z
  _atom_site_thermal_displace_type
  _atom_site_B_iso_or_equiv
  _atom_site_type_symbol
  Zn1      1.0000 0.29917  0.23754  0.18567  Biso   1.000  Zn
  Zn2      1.0000 0.20014  0.23794  0.29952  Biso   1.000  Zn
  Zn3      1.0000 0.17020  0.06638  0.20422  Biso   1.000  Zn
  Zn4      1.0000 0.31982  0.06147  0.28798  Biso   1.000  Zn
  C1       1.0000 0.11400  0.46270  0.17500  Biso   1.000  C
  C2       1.0000 0.04610  0.48980  0.19855  Biso   1.000  C
  H1       1.0000 0.03060  0.45660  0.23270  Biso   1.000  H
  C3       1.0000 0.00230  0.56580  0.17096  Biso   1.000  C
  C4       1.0000 0.02510  0.61590  0.12020  Biso   1.000  C
  H2       1.0000 0.99550  0.66700  0.10200  Biso   1.000  H
  C5       1.0000 0.09210  0.59010  0.09624  Biso   1.000  C
  C6       1.0000 0.13480  0.51260  0.12340  Biso   1.000  C
  H3       1.0000 0.17880  0.49310  0.10660  Biso   1.000  H
  C7       1.0000 0.16110  0.38050  0.20324  Biso   1.000  C
  C8       1.0000 0.93100  0.59480  0.19860  Biso   1.000  C
  C9       1.0000 0.11710  0.64850  0.04146  Biso   1.000  C
  C10      1.0000 0.06880  0.69230  0.00290  Biso   1.000  C
  H4       1.0000 0.01950  0.68330  0.00950  Biso   1.000  H
  C11      1.0000 0.09130  0.74970  0.95420  Biso   1.000  C
  H5       1.0000 0.05740  0.78130  0.92950  Biso   1.000  H
  C12      1.0000 0.16440  0.75980  0.94257  Biso   1.000  C
  C13      1.0000 0.21340  0.71010  0.98030  Biso   1.000  C
  H6       1.0000 0.26270  0.71450  0.97260  Biso   1.000  H
  C14      1.0000 0.19000  0.65470  0.02880  Biso   1.000  C
  H7       1.0000 0.22350  0.62130  0.05310  Biso   1.000  H
  C15      1.0000 0.19060  0.81810  0.88895  Biso   1.000  C
  C16      1.0000 0.49700  0.03600  0.17268  Biso   1.000  C
  C17      1.0000 0.54270  0.96480  0.20083  Biso   1.000  C
  H8       1.0000 0.52770  0.92990  0.23460  Biso   1.000  H
  C18      1.0000 0.61230  0.94480  0.17860  Biso   1.000  C
  C19      1.0000 0.63380  0.99820  0.12730  Biso   1.000  C
  H9       1.0000 0.67990  0.98580  0.11240  Biso   1.000  H
  C20      1.0000 0.58710  0.06920  0.09870  Biso   1.000  C
  C21      1.0000 0.51900  0.08990  0.12240  Biso   1.000  C
  H10      1.0000 0.48810  0.13990  0.10460  Biso   1.000  H
  C22      1.0000 0.42330  0.06500  0.19760  Biso   1.000  C
  C23      1.0000 0.66310  0.86870  0.20925  Biso   1.000  C
  C24      1.0000 0.61040  0.12890  0.04575  Biso   1.000  C
  C25      1.0000 0.56000  0.16030  0.00250  Biso   1.000  C
  H11      1.0000 0.51160  0.14020  0.00610  Biso   1.000  H
  C26      1.0000 0.58290  0.22260  0.95360  Biso   1.000  C
  H12      1.0000 0.54930  0.24580  0.92620  Biso   1.000  H
  C27      1.0000 0.65520  0.24830  0.94690  Biso   1.000  C
  C28      1.0000 0.70310  0.20940  0.98600  Biso   1.000  C
  H13      1.0000 0.75200  0.22410  0.98040  Biso   1.000  H
  C29      1.0000 0.68290  0.14860  0.03430  Biso   1.000  C
  H14      1.0000 0.71810  0.12090  0.05900  Biso   1.000  H
  C30      1.0000 0.67900  0.31630  0.89522  Biso   1.000  C
  O1       1.0000 0.24784  0.13840  0.24341  Biso   1.000  O
  O2       1.0000 0.22282  0.36250  0.18058  Biso   1.000  O
  O3       1.0000 0.13799  0.33590  0.25027  Biso   1.000  O
  O4       1.0000 0.91518  0.54930  0.24576  Biso   1.000  O
  O5       1.0000 0.89219  0.66460  0.17144  Biso   1.000  O
  O6       1.0000 0.14176  0.86000  0.85658  Biso   1.000  O
  O7       1.0000 0.25690  0.82440  0.87931  Biso   1.000  O
  O8       1.0000 0.38427  0.12680  0.16945  Biso   1.000  O
  O9       1.0000 0.40803  0.01870  0.24540  Biso   1.000  O
  O10      1.0000 0.72610  0.86100  0.18730  Biso   1.000  O
  O11      1.0000 0.63902  0.81760  0.25237  Biso   1.000  O
  O12      1.0000 0.62874  0.34740  0.86153  Biso   1.000  O
  O13      1.0000 0.74353  0.33470  0.88764  Biso   1.000  O
  Zn5      1.0000 0.20083  0.76246  0.68567  Biso   1.000  Zn
  Zn6      1.0000 0.29986  0.76206  0.79952  Biso   1.000  Zn
  Zn7      1.0000 0.32980  0.93362  0.70422  Biso   1.000  Zn
  Zn8      1.0000 0.18018  0.93853  0.78798  Biso   1.000  Zn
  C31      1.0000 0.38600  0.53730  0.67500  Biso   1.000  C
  C32      1.0000 0.45390  0.51020  0.69855  Biso   1.000  C
  H15      1.0000 0.46940  0.54340  0.73270  Biso   1.000  H
  C33      1.0000 0.49770  0.43420  0.67096  Biso   1.000  C
  C34      1.0000 0.47490  0.38410  0.62020  Biso   1.000  C
  H16      1.0000 0.50450  0.33300  0.60200  Biso   1.000  H
  C35      1.0000 0.40790  0.40990  0.59624  Biso   1.000  C
  C36      1.0000 0.36520  0.48740  0.62340  Biso   1.000  C
  H17      1.0000 0.32120  0.50690  0.60660  Biso   1.000  H
  C37      1.0000 0.33890  0.61950  0.70324  Biso   1.000  C
  C38      1.0000 0.56900  0.40520  0.69860  Biso   1.000  C
  C39      1.0000 0.38290  0.35150  0.54146  Biso   1.000  C
  C40      1.0000 0.43120  0.30770  0.50290  Biso   1.000  C
  H18      1.0000 0.48050  0.31670  0.50950  Biso   1.000  H
  C41      1.0000 0.40870  0.25030  0.45420  Biso   1.000  C
  H19      1.0000 0.44260  0.21870  0.42950  Biso   1.000  H
  C42      1.0000 0.33560  0.24020  0.44257  Biso   1.000  C
  C43      1.0000 0.28660  0.28990  0.48030  Biso   1.000  C
  H20      1.0000 0.23730  0.28550  0.47260  Biso   1.000  H
  C44      1.0000 0.31000  0.34530  0.52880  Biso   1.000  C
  H21      1.0000 0.27650  0.37870  0.55310  Biso   1.000  H
  C45      1.0000 0.30940  0.18190  0.38895  Biso   1.000  C
  C46      1.0000 0.00300  0.96400  0.67268  Biso   1.000  C
  C47      1.0000 0.95730  0.03520  0.70083  Biso   1.000  C
  H22      1.0000 0.97230  0.07010  0.73460  Biso   1.000  H
  C48      1.0000 0.88770  0.05520  0.67860  Biso   1.000  C
  C49      1.0000 0.86620  0.00180  0.62730  Biso   1.000  C
  H23      1.0000 0.82010  0.01420  0.61240  Biso   1.000  H
  C50      1.0000 0.91290  0.93080  0.59870  Biso   1.000  C
  C51      1.0000 0.98100  0.91010  0.62240  Biso   1.000  C
  H24      1.0000 0.01190  0.86010  0.60460  Biso   1.000  H
  C52      1.0000 0.07670  0.93500  0.69760  Biso   1.000  C
  C53      1.0000 0.83690  0.13130  0.70925  Biso   1.000  C
  C54      1.0000 0.88960  0.87110  0.54575  Biso   1.000  C
  C55      1.0000 0.94000  0.83970  0.50250  Biso   1.000  C
  H25      1.0000 0.98840  0.85980  0.50610  Biso   1.000  H
  C56      1.0000 0.91710  0.77740  0.45360  Biso   1.000  C
  H26      1.0000 0.95070  0.75420  0.42620  Biso   1.000  H
  C57      1.0000 0.84480  0.75170  0.44690  Biso   1.000  C
  C58      1.0000 0.79690  0.79060  0.48600  Biso   1.000  C
  H27      1.0000 0.74800  0.77590  0.48040  Biso   1.000  H
  C59      1.0000 0.81710  0.85140  0.53430  Biso   1.000  C
  H28      1.0000 0.78190  0.87910  0.55900  Biso   1.000  H
  C60      1.0000 0.82100  0.68370  0.39522  Biso   1.000  C
  O14      1.0000 0.25216  0.86160  0.74341  Biso   1.000  O
  O15      1.0000 0.27718  0.63750  0.68058  Biso   1.000  O
  O16      1.0000 0.36201  0.66410  0.75027  Biso   1.000  O
  O17      1.0000 0.58482  0.45070  0.74576  Biso   1.000  O
  O18      1.0000 0.60781  0.33540  0.67144  Biso   1.000  O
  O19      1.0000 0.35824  0.14000  0.35658  Biso   1.000  O
  O20      1.0000 0.24310  0.17560  0.37931  Biso   1.000  O
  O21      1.0000 0.11573  0.87320  0.66945  Biso   1.000  O
  O22      1.0000 0.09197  0.98130  0.74540  Biso   1.000  O
  O23      1.0000 0.77390  0.13900  0.68730  Biso   1.000  O
  O24      1.0000 0.86098  0.18240  0.75237  Biso   1.000  O
  O25      1.0000 0.87126  0.65260  0.36153  Biso   1.000  O
  O26      1.0000 0.75647  0.66530  0.38764  Biso   1.000  O
  Zn9      1.0000 0.70083  0.73754  0.31433  Biso   1.000  Zn
  Zn10     1.0000 0.79986  0.73794  0.20048  Biso   1.000  Zn
  Zn11     1.0000 0.82980  0.56638  0.29578  Biso   1.000  Zn
  Zn12     1.0000 0.68018  0.56147  0.21202  Biso   1.000  Zn
  C61      1.0000 0.88600  0.96270  0.32500  Biso   1.000  C
  C62      1.0000 0.95390  0.98980  0.30145  Biso   1.000  C
  H29      1.0000 0.96940  0.95660  0.26730  Biso   1.000  H
  C63      1.0000 0.99770  0.06580  0.32904  Biso   1.000  C
  C64      1.0000 0.97490  0.11590  0.37980  Biso   1.000  C
  H30      1.0000 0.00450  0.16700  0.39800  Biso   1.000  H
  C65      1.0000 0.90790  0.09010  0.40376  Biso   1.000  C
  C66      1.0000 0.86520  0.01260  0.37660  Biso   1.000  C
  H31      1.0000 0.82120  0.99310  0.39340  Biso   1.000  H
  C67      1.0000 0.83890  0.88050  0.29676  Biso   1.000  C
  C68      1.0000 0.06900  0.09480  0.30140  Biso   1.000  C
  C69      1.0000 0.88290  0.14850  0.45854  Biso   1.000  C
  C70      1.0000 0.93120  0.19230  0.49710  Biso   1.000  C
  H32      1.0000 0.98050  0.18330  0.49050  Biso   1.000  H
  C71      1.0000 0.90870  0.24970  0.54580  Biso   1.000  C
  H33      1.0000 0.94260  0.28130  0.57050  Biso   1.000  H
  C72      1.0000 0.83560  0.25980  0.55743  Biso   1.000  C
  C73      1.0000 0.78660  0.21010  0.51970  Biso   1.000  C
  H34      1.0000 0.73730  0.21450  0.52740  Biso   1.000  H
  C74      1.0000 0.81000  0.15470  0.47120  Biso   1.000  C
  H35      1.0000 0.77650  0.12130  0.44690  Biso   1.000  H
  C75      1.0000 0.80940  0.31810  0.61105  Biso   1.000  C
  C76      1.0000 0.50300  0.53600  0.32732  Biso   1.000  C
  C77      1.0000 0.45730  0.46480  0.29917  Biso   1.000  C
  H36      1.0000 0.47230  0.42990  0.26540  Biso   1.000  H
  C78      1.0000 0.38770  0.44480  0.32140  Biso   1.000  C
  C79      1.0000 0.36620  0.49820  0.37270  Biso   1.000  C
  H37      1.0000 0.32010  0.48580  0.38760  Biso   1.000  H
  C80      1.0000 0.41290  0.56920  0.40130  Biso   1.000  C
  C81      1.0000 0.48100  0.58990  0.37760  Biso   1.000  C
  H38      1.0000 0.51190  0.63990  0.39540  Biso   1.000  H
  C82      1.0000 0.57670  0.56500  0.30240  Biso   1.000  C
  C83      1.0000 0.33690  0.36870  0.29075  Biso   1.000  C
  C84      1.0000 0.38960  0.62890  0.45425  Biso   1.000  C
  C85      1.0000 0.44000  0.66030  0.49750  Biso   1.000  C
  H39      1.0000 0.48840  0.64020  0.49390  Biso   1.000  H
  C86      1.0000 0.41710  0.72260  0.54640  Biso   1.000  C
  H40      1.0000 0.45070  0.74580  0.57380  Biso   1.000  H
  C87      1.0000 0.34480  0.74830  0.55310  Biso   1.000  C
  C88      1.0000 0.29690  0.70940  0.51400  Biso   1.000  C
  H41      1.0000 0.24800  0.72410  0.51960  Biso   1.000  H
  C89      1.0000 0.31710  0.64860  0.46570  Biso   1.000  C
  H42      1.0000 0.28190  0.62090  0.44100  Biso   1.000  H
  C90      1.0000 0.32100  0.81630  0.60478  Biso   1.000  C
  O27      1.0000 0.75216  0.63840  0.25659  Biso   1.000  O
  O28      1.0000 0.77718  0.86250  0.31942  Biso   1.000  O
  O29      1.0000 0.86201  0.83590  0.24973  Biso   1.000  O
  O30      1.0000 0.08482  0.04930  0.25424  Biso   1.000  O
  O31      1.0000 0.10781  0.16460  0.32856  Biso   1.000  O
  O32      1.0000 0.85824  0.36000  0.64342  Biso   1.000  O
  O33      1.0000 0.74310  0.32440  0.62069  Biso   1.000  O
  O34      1.0000 0.61573  0.62680  0.33055  Biso   1.000  O
  O35      1.0000 0.59197  0.51870  0.25460  Biso   1.000  O
  O36      1.0000 0.27390  0.36100  0.31270  Biso   1.000  O
  O37      1.0000 0.36098  0.31760  0.24763  Biso   1.000  O
  O38      1.0000 0.37126  0.84740  0.63847  Biso   1.000  O
  O39      1.0000 0.25647  0.83470  0.61236  Biso   1.000  O
  Zn13     1.0000 0.79917  0.26246  0.81433  Biso   1.000  Zn
  Zn14     1.0000 0.70014  0.26206  0.70048  Biso   1.000  Zn
  Zn15     1.0000 0.67020  0.43362  0.79578  Biso   1.000  Zn
  Zn16     1.0000 0.81982  0.43853  0.71202  Biso   1.000  Zn
  C91      1.0000 0.61400  0.03730  0.82500  Biso   1.000  C
  C92      1.0000 0.54610  0.01020  0.80145  Biso   1.000  C
  H43      1.0000 0.53060  0.04340  0.76730  Biso   1.000  H
  C93      1.0000 0.50230  0.93420  0.82904  Biso   1.000  C
  C94      1.0000 0.52510  0.88410  0.87980  Biso   1.000  C
  H44      1.0000 0.49550  0.83300  0.89800  Biso   1.000  H
  C95      1.0000 0.59210  0.90990  0.90376  Biso   1.000  C
  C96      1.0000 0.63480  0.98740  0.87660  Biso   1.000  C
  H45      1.0000 0.67880  0.00690  0.89340  Biso   1.000  H
  C97      1.0000 0.66110  0.11950  0.79676  Biso   1.000  C
  C98      1.0000 0.43100  0.90520  0.80140  Biso   1.000  C
  C99      1.0000 0.61710  0.85150  0.95854  Biso   1.000  C
  C100     1.0000 0.56880  0.80770  0.99710  Biso   1.000  C
  H46      1.0000 0.51950  0.81670  0.99050  Biso   1.000  H
  C101     1.0000 0.59130  0.75030  0.04580  Biso   1.000  C
  H47      1.0000 0.55740  0.71870  0.07050  Biso   1.000  H
  C102     1.0000 0.66440  0.74020  0.05743  Biso   1.000  C
  C103     1.0000 0.71340  0.78990  0.01970  Biso   1.000  C
  H48      1.0000 0.76270  0.78550  0.02740  Biso   1.000  H
  C104     1.0000 0.69000  0.84530  0.97120  Biso   1.000  C
  H49      1.0000 0.72350  0.87870  0.94690  Biso   1.000  H
  C105     1.0000 0.69060  0.68190  0.11105  Biso   1.000  C
  C106     1.0000 0.99700  0.46400  0.82732  Biso   1.000  C
  C107     1.0000 0.04270  0.53520  0.79917  Biso   1.000  C
  H50      1.0000 0.02770  0.57010  0.76540  Biso   1.000  H
  C108     1.0000 0.11230  0.55520  0.82140  Biso   1.000  C
  C109     1.0000 0.13380  0.50180  0.87270  Biso   1.000  C
  H51      1.0000 0.17990  0.51420  0.88760  Biso   1.000  H
  C110     1.0000 0.08710  0.43080  0.90130  Biso   1.000  C
  C111     1.0000 0.01900  0.41010  0.87760  Biso   1.000  C
  H52      1.0000 0.98810  0.36010  0.89540  Biso   1.000  H
  C112     1.0000 0.92330  0.43500  0.80240  Biso   1.000  C
  C113     1.0000 0.16310  0.63130  0.79075  Biso   1.000  C
  C114     1.0000 0.11040  0.37110  0.95425  Biso   1.000  C
  C115     1.0000 0.06000  0.33970  0.99750  Biso   1.000  C
  H53      1.0000 0.01160  0.35980  0.99390  Biso   1.000  H
  C116     1.0000 0.08290  0.27740  0.04640  Biso   1.000  C
  H54      1.0000 0.04930  0.25420  0.07380  Biso   1.000  H
  C117     1.0000 0.15520  0.25170  0.05310  Biso   1.000  C
  C118     1.0000 0.20310  0.29060  0.01400  Biso   1.000  C
  H55      1.0000 0.25200  0.27590  0.01960  Biso   1.000  H
  C119     1.0000 0.18290  0.35140  0.96570  Biso   1.000  C
  H56      1.0000 0.21810  0.37910  0.94100  Biso   1.000  H
  C120     1.0000 0.17900  0.18370  0.10478  Biso   1.000  C
  O40      1.0000 0.74784  0.36160  0.75659  Biso   1.000  O
  O41      1.0000 0.72282  0.13750  0.81942  Biso   1.000  O
  O42      1.0000 0.63799  0.16410  0.74973  Biso   1.000  O
  O43      1.0000 0.41518  0.95070  0.75424  Biso   1.000  O
  O44      1.0000 0.39219  0.83540  0.82856  Biso   1.000  O
  O45      1.0000 0.64176  0.64000  0.14342  Biso   1.000  O
  O46      1.0000 0.75690  0.67560  0.12069  Biso   1.000  O
  O47      1.0000 0.88427  0.37320  0.83055  Biso   1.000  O
  O48      1.0000 0.90803  0.48130  0.75460  Biso   1.000  O
  O49      1.0000 0.22610  0.63900  0.81270  Biso   1.000  O
  O50      1.0000 0.13902  0.68240  0.74763  Biso   1.000  O
  O51      1.0000 0.12874  0.15260  0.13847  Biso   1.000  O
  O52      1.0000 0.24353  0.16530  0.11236  Biso   1.000  O
