data_image0
_cell_length_a       11.5837
_cell_length_b       14.7422
_cell_length_c       11.6194
_cell_angle_alpha    90
_cell_angle_beta     102.319
_cell_angle_gamma    90

_symmetry_space_group_name_H-M    "P 1"
_symmetry_int_tables_number       1

loop_
  _symmetry_equiv_pos_as_xyz
  'x, y, z'

loop_
  _atom_site_label
  _atom_site_occupancy
  _atom_site_fract_x
  _atom_site_fract_y
  _atom_site_fract_z
  _atom_site_thermal_displace_type
  _atom_site_B_iso_or_equiv
  _atom_site_type_symbol
  Zn1      1.0000 0.99244  0.03205  0.74933  Biso   1.000  Zn
  O1       1.0000 0.77412  0.00999  0.48566  Biso   1.000  O
  O2       1.0000 0.86493  0.95349  0.66118  Biso   1.000  O
  O3       1.0000 0.82222  0.83402  0.22180  Biso   1.000  O
  O4       1.0000 0.93251  0.91245  0.36848  Biso   1.000  O
  O5       1.0000 0.58823  0.56702  0.33444  Biso   1.000  O
  O6       1.0000 0.73029  0.50644  0.47455  Biso   1.000  O
  O7       1.0000 0.57525  0.58652  0.62525  Biso   1.000  O
  O8       1.0000 0.63964  0.69345  0.75696  Biso   1.000  O
  C1       1.0000 0.77315  0.84956  0.51788  Biso   1.000  C
  C2       1.0000 0.79071  0.80944  0.41383  Biso   1.000  C
  C3       1.0000 0.75550  0.71960  0.38914  Biso   1.000  C
  H1       1.0000 0.76700  0.69340  0.31960  Biso   1.000  H
  C4       1.0000 0.70378  0.66795  0.46506  Biso   1.000  C
  C5       1.0000 0.68644  0.70812  0.56935  Biso   1.000  C
  C6       1.0000 0.72034  0.79819  0.59319  Biso   1.000  C
  H2       1.0000 0.70720  0.82490  0.66180  Biso   1.000  H
  C7       1.0000 0.80726  0.94650  0.55370  Biso   1.000  C
  C8       1.0000 0.85216  0.85535  0.32751  Biso   1.000  C
  C9       1.0000 0.67158  0.57102  0.42589  Biso   1.000  C
  C10      1.0000 0.63045  0.65974  0.65769  Biso   1.000  C
  Zn2      1.0000 0.50756  0.53205  0.75067  Biso   1.000  Zn
  O9       1.0000 0.72588  0.50999  0.01434  Biso   1.000  O
  O10      1.0000 0.63507  0.45349  0.83882  Biso   1.000  O
  O11      1.0000 0.67778  0.33402  0.27820  Biso   1.000  O
  O12      1.0000 0.56749  0.41245  0.13152  Biso   1.000  O
  O13      1.0000 0.91177  0.06702  0.16556  Biso   1.000  O
  O14      1.0000 0.76971  0.00644  0.02545  Biso   1.000  O
  O15      1.0000 0.92475  0.08652  0.87475  Biso   1.000  O
  O16      1.0000 0.86036  0.19345  0.74304  Biso   1.000  O
  C11      1.0000 0.72685  0.34956  0.98212  Biso   1.000  C
  C12      1.0000 0.70929  0.30944  0.08617  Biso   1.000  C
  C13      1.0000 0.74450  0.21960  0.11086  Biso   1.000  C
  H3       1.0000 0.73300  0.19340  0.18040  Biso   1.000  H
  C14      1.0000 0.79622  0.16795  0.03494  Biso   1.000  C
  C15      1.0000 0.81356  0.20812  0.93065  Biso   1.000  C
  C16      1.0000 0.77966  0.29819  0.90681  Biso   1.000  C
  H4       1.0000 0.79280  0.32490  0.83820  Biso   1.000  H
  C17      1.0000 0.69274  0.44650  0.94630  Biso   1.000  C
  C18      1.0000 0.64784  0.35535  0.17249  Biso   1.000  C
  C19      1.0000 0.82842  0.07102  0.07411  Biso   1.000  C
  C20      1.0000 0.86955  0.15974  0.84231  Biso   1.000  C
  Zn3      1.0000 0.00756  0.96795  0.25067  Biso   1.000  Zn
  O17      1.0000 0.22588  0.99001  0.51434  Biso   1.000  O
  O18      1.0000 0.13507  0.04651  0.33882  Biso   1.000  O
  O19      1.0000 0.17778  0.16598  0.77820  Biso   1.000  O
  O20      1.0000 0.06749  0.08755  0.63152  Biso   1.000  O
  O21      1.0000 0.41177  0.43298  0.66556  Biso   1.000  O
  O22      1.0000 0.26971  0.49356  0.52545  Biso   1.000  O
  O23      1.0000 0.42475  0.41348  0.37475  Biso   1.000  O
  O24      1.0000 0.36036  0.30655  0.24304  Biso   1.000  O
  C21      1.0000 0.22685  0.15044  0.48212  Biso   1.000  C
  C22      1.0000 0.20929  0.19056  0.58617  Biso   1.000  C
  C23      1.0000 0.24450  0.28040  0.61086  Biso   1.000  C
  H5       1.0000 0.23300  0.30660  0.68040  Biso   1.000  H
  C24      1.0000 0.29622  0.33205  0.53494  Biso   1.000  C
  C25      1.0000 0.31356  0.29188  0.43065  Biso   1.000  C
  C26      1.0000 0.27966  0.20181  0.40681  Biso   1.000  C
  H6       1.0000 0.29280  0.17510  0.33820  Biso   1.000  H
  C27      1.0000 0.19274  0.05350  0.44630  Biso   1.000  C
  C28      1.0000 0.14784  0.14465  0.67249  Biso   1.000  C
  C29      1.0000 0.32842  0.42898  0.57411  Biso   1.000  C
  C30      1.0000 0.36955  0.34026  0.34231  Biso   1.000  C
  Zn4      1.0000 0.49244  0.46795  0.24933  Biso   1.000  Zn
  O25      1.0000 0.27412  0.49001  0.98566  Biso   1.000  O
  O26      1.0000 0.36493  0.54651  0.16118  Biso   1.000  O
  O27      1.0000 0.32222  0.66598  0.72180  Biso   1.000  O
  O28      1.0000 0.43251  0.58755  0.86848  Biso   1.000  O
  O29      1.0000 0.08823  0.93298  0.83444  Biso   1.000  O
  O30      1.0000 0.23029  0.99356  0.97455  Biso   1.000  O
  O31      1.0000 0.07525  0.91348  0.12525  Biso   1.000  O
  O32      1.0000 0.13964  0.80655  0.25696  Biso   1.000  O
  C31      1.0000 0.27315  0.65044  0.01788  Biso   1.000  C
  C32      1.0000 0.29071  0.69056  0.91383  Biso   1.000  C
  C33      1.0000 0.25550  0.78040  0.88914  Biso   1.000  C
  H7       1.0000 0.26700  0.80660  0.81960  Biso   1.000  H
  C34      1.0000 0.20378  0.83205  0.96506  Biso   1.000  C
  C35      1.0000 0.18644  0.79188  0.06935  Biso   1.000  C
  C36      1.0000 0.22034  0.70181  0.09319  Biso   1.000  C
  H8       1.0000 0.20720  0.67510  0.16180  Biso   1.000  H
  C37      1.0000 0.30726  0.55350  0.05370  Biso   1.000  C
  C38      1.0000 0.35216  0.64465  0.82751  Biso   1.000  C
  C39      1.0000 0.17158  0.92898  0.92589  Biso   1.000  C
  C40      1.0000 0.13045  0.84026  0.15769  Biso   1.000  C
