data_image0
_cell_length_a       24.074
_cell_length_b       24.074
_cell_length_c       5.1021
_cell_angle_alpha    90
_cell_angle_beta     90
_cell_angle_gamma    90

_symmetry_space_group_name_H-M    "P 1"
_symmetry_int_tables_number       1

loop_
  _symmetry_equiv_pos_as_xyz
  'x, y, z'

loop_
  _atom_site_label
  _atom_site_occupancy
  _atom_site_fract_x
  _atom_site_fract_y
  _atom_site_fract_z
  _atom_site_thermal_displace_type
  _atom_site_B_iso_or_equiv
  _atom_site_type_symbol
  C1       1.0000 0.56737  0.91159  0.87760  Biso   1.000  C
  O1       1.0000 0.51884  0.93015  0.81870  Biso   1.000  O
  N1       1.0000 0.64082  0.83977  0.77620  Biso   1.000  N
  C2       1.0000 0.58720  0.86471  0.68940  Biso   1.000  C
  H1       1.0000 0.55910  0.83590  0.68170  Biso   1.000  H
  H2       1.0000 0.59160  0.87980  0.51440  Biso   1.000  H
  N2       1.0000 0.69011  0.85436  0.66560  Biso   1.000  N
  O2       1.0000 0.59718  0.92796  0.05710  Biso   1.000  O
  N3       1.0000 0.72908  0.82883  0.79400  Biso   1.000  N
  N4       1.0000 0.70637  0.79748  0.99350  Biso   1.000  N
  C3       1.0000 0.65123  0.80552  0.97600  Biso   1.000  C
  H3       1.0000 0.62460  0.78980  0.08540  Biso   1.000  H
  C4       1.0000 0.06737  0.41159  0.37760  Biso   1.000  C
  O3       1.0000 0.01884  0.43015  0.31870  Biso   1.000  O
  N5       1.0000 0.14082  0.33977  0.27620  Biso   1.000  N
  C5       1.0000 0.08720  0.36471  0.18940  Biso   1.000  C
  H4       1.0000 0.05910  0.33590  0.18170  Biso   1.000  H
  H5       1.0000 0.09160  0.37980  0.01440  Biso   1.000  H
  N6       1.0000 0.19011  0.35436  0.16560  Biso   1.000  N
  O4       1.0000 0.09718  0.42796  0.55710  Biso   1.000  O
  N7       1.0000 0.22908  0.32883  0.29400  Biso   1.000  N
  N8       1.0000 0.20637  0.29748  0.49350  Biso   1.000  N
  C6       1.0000 0.15123  0.30552  0.47600  Biso   1.000  C
  H6       1.0000 0.12460  0.28980  0.58540  Biso   1.000  H
  C7       1.0000 0.93263  0.08841  0.37760  Biso   1.000  C
  O5       1.0000 0.98116  0.06985  0.31870  Biso   1.000  O
  N9       1.0000 0.85918  0.16023  0.27620  Biso   1.000  N
  C8       1.0000 0.91280  0.13529  0.18940  Biso   1.000  C
  H7       1.0000 0.94090  0.16410  0.18170  Biso   1.000  H
  H8       1.0000 0.90840  0.12020  0.01440  Biso   1.000  H
  N10      1.0000 0.80989  0.14564  0.16560  Biso   1.000  N
  O6       1.0000 0.90282  0.07204  0.55710  Biso   1.000  O
  N11      1.0000 0.77092  0.17117  0.29400  Biso   1.000  N
  N12      1.0000 0.79363  0.20252  0.49350  Biso   1.000  N
  C9       1.0000 0.84877  0.19448  0.47600  Biso   1.000  C
  H9       1.0000 0.87540  0.21020  0.58540  Biso   1.000  H
  C10      1.0000 0.43263  0.58841  0.87760  Biso   1.000  C
  O7       1.0000 0.48116  0.56985  0.81870  Biso   1.000  O
  N13      1.0000 0.35918  0.66023  0.77620  Biso   1.000  N
  C11      1.0000 0.41280  0.63529  0.68940  Biso   1.000  C
  H10      1.0000 0.44090  0.66410  0.68170  Biso   1.000  H
  H11      1.0000 0.40840  0.62020  0.51440  Biso   1.000  H
  N14      1.0000 0.30989  0.64564  0.66560  Biso   1.000  N
  O8       1.0000 0.40282  0.57204  0.05710  Biso   1.000  O
  N15      1.0000 0.27092  0.67117  0.79400  Biso   1.000  N
  N16      1.0000 0.29363  0.70252  0.99350  Biso   1.000  N
  C12      1.0000 0.34877  0.69448  0.97600  Biso   1.000  C
  H12      1.0000 0.37540  0.71020  0.08540  Biso   1.000  H
  C13      1.0000 0.83841  0.81737  0.12760  Biso   1.000  C
  O9       1.0000 0.81985  0.76884  0.06870  Biso   1.000  O
  N17      1.0000 0.91023  0.89082  0.02620  Biso   1.000  N
  C14      1.0000 0.88529  0.83720  0.93940  Biso   1.000  C
  H13      1.0000 0.91410  0.80910  0.93170  Biso   1.000  H
  H14      1.0000 0.87020  0.84160  0.76440  Biso   1.000  H
  N18      1.0000 0.89564  0.94011  0.91560  Biso   1.000  N
  O10      1.0000 0.82204  0.84718  0.30710  Biso   1.000  O
  N19      1.0000 0.92117  0.97908  0.04400  Biso   1.000  N
  N20      1.0000 0.95252  0.95637  0.24350  Biso   1.000  N
  C15      1.0000 0.94448  0.90123  0.22600  Biso   1.000  C
  H15      1.0000 0.96020  0.87460  0.33540  Biso   1.000  H
  C16      1.0000 0.33841  0.31737  0.62760  Biso   1.000  C
  O11      1.0000 0.31985  0.26884  0.56870  Biso   1.000  O
  N21      1.0000 0.41023  0.39082  0.52620  Biso   1.000  N
  C17      1.0000 0.38529  0.33720  0.43940  Biso   1.000  C
  H16      1.0000 0.41410  0.30910  0.43170  Biso   1.000  H
  H17      1.0000 0.37020  0.34160  0.26440  Biso   1.000  H
  N22      1.0000 0.39564  0.44011  0.41560  Biso   1.000  N
  O12      1.0000 0.32204  0.34718  0.80710  Biso   1.000  O
  N23      1.0000 0.42117  0.47908  0.54400  Biso   1.000  N
  N24      1.0000 0.45252  0.45637  0.74350  Biso   1.000  N
  C18      1.0000 0.44448  0.40123  0.72600  Biso   1.000  C
  H18      1.0000 0.46020  0.37460  0.83540  Biso   1.000  H
  C19      1.0000 0.66159  0.18263  0.62760  Biso   1.000  C
  O13      1.0000 0.68015  0.23116  0.56870  Biso   1.000  O
  N25      1.0000 0.58977  0.10918  0.52620  Biso   1.000  N
  C20      1.0000 0.61471  0.16280  0.43940  Biso   1.000  C
  H19      1.0000 0.58590  0.19090  0.43170  Biso   1.000  H
  H20      1.0000 0.62980  0.15840  0.26440  Biso   1.000  H
  N26      1.0000 0.60436  0.05989  0.41560  Biso   1.000  N
  O14      1.0000 0.67796  0.15282  0.80710  Biso   1.000  O
  N27      1.0000 0.57883  0.02092  0.54400  Biso   1.000  N
  N28      1.0000 0.54748  0.04363  0.74350  Biso   1.000  N
  C21      1.0000 0.55552  0.09877  0.72600  Biso   1.000  C
  H21      1.0000 0.53980  0.12540  0.83540  Biso   1.000  H
  C22      1.0000 0.16159  0.68263  0.12760  Biso   1.000  C
  O15      1.0000 0.18015  0.73116  0.06870  Biso   1.000  O
  N29      1.0000 0.08977  0.60918  0.02620  Biso   1.000  N
  C23      1.0000 0.11471  0.66280  0.93940  Biso   1.000  C
  H22      1.0000 0.08590  0.69090  0.93170  Biso   1.000  H
  H23      1.0000 0.12980  0.65840  0.76440  Biso   1.000  H
  N30      1.0000 0.10436  0.55989  0.91560  Biso   1.000  N
  O16      1.0000 0.17796  0.65282  0.30710  Biso   1.000  O
  N31      1.0000 0.07883  0.52092  0.04400  Biso   1.000  N
  N32      1.0000 0.04748  0.54363  0.24350  Biso   1.000  N
  C24      1.0000 0.05552  0.59877  0.22600  Biso   1.000  C
  H24      1.0000 0.03980  0.62540  0.33540  Biso   1.000  H
  C25      1.0000 0.43263  0.08841  0.12240  Biso   1.000  C
  O17      1.0000 0.48116  0.06985  0.18130  Biso   1.000  O
  N33      1.0000 0.35918  0.16023  0.22380  Biso   1.000  N
  C26      1.0000 0.41280  0.13529  0.31060  Biso   1.000  C
  H25      1.0000 0.44090  0.16410  0.31830  Biso   1.000  H
  H26      1.0000 0.40840  0.12020  0.48560  Biso   1.000  H
  N34      1.0000 0.30989  0.14564  0.33440  Biso   1.000  N
  O18      1.0000 0.40282  0.07204  0.94290  Biso   1.000  O
  N35      1.0000 0.27092  0.17117  0.20600  Biso   1.000  N
  N36      1.0000 0.29363  0.20252  0.00650  Biso   1.000  N
  C27      1.0000 0.34877  0.19448  0.02400  Biso   1.000  C
  H27      1.0000 0.37540  0.21020  0.91460  Biso   1.000  H
  C28      1.0000 0.93263  0.58841  0.62240  Biso   1.000  C
  O19      1.0000 0.98116  0.56985  0.68130  Biso   1.000  O
  N37      1.0000 0.85918  0.66023  0.72380  Biso   1.000  N
  C29      1.0000 0.91280  0.63529  0.81060  Biso   1.000  C
  H28      1.0000 0.94090  0.66410  0.81830  Biso   1.000  H
  H29      1.0000 0.90840  0.62020  0.98560  Biso   1.000  H
  N38      1.0000 0.80989  0.64564  0.83440  Biso   1.000  N
  O20      1.0000 0.90282  0.57204  0.44290  Biso   1.000  O
  N39      1.0000 0.77092  0.67117  0.70600  Biso   1.000  N
  N40      1.0000 0.79363  0.70252  0.50650  Biso   1.000  N
  C30      1.0000 0.84877  0.69448  0.52400  Biso   1.000  C
  H30      1.0000 0.87540  0.71020  0.41460  Biso   1.000  H
  C31      1.0000 0.06737  0.91159  0.62240  Biso   1.000  C
  O21      1.0000 0.01884  0.93015  0.68130  Biso   1.000  O
  N41      1.0000 0.14082  0.83977  0.72380  Biso   1.000  N
  C32      1.0000 0.08720  0.86471  0.81060  Biso   1.000  C
  H31      1.0000 0.05910  0.83590  0.81830  Biso   1.000  H
  H32      1.0000 0.09160  0.87980  0.98560  Biso   1.000  H
  N42      1.0000 0.19011  0.85436  0.83440  Biso   1.000  N
  O22      1.0000 0.09718  0.92796  0.44290  Biso   1.000  O
  N43      1.0000 0.22908  0.82883  0.70600  Biso   1.000  N
  N44      1.0000 0.20637  0.79748  0.50650  Biso   1.000  N
  C33      1.0000 0.15123  0.80552  0.52400  Biso   1.000  C
  H33      1.0000 0.12460  0.78980  0.41460  Biso   1.000  H
  C34      1.0000 0.56737  0.41159  0.12240  Biso   1.000  C
  O23      1.0000 0.51884  0.43015  0.18130  Biso   1.000  O
  N45      1.0000 0.64082  0.33977  0.22380  Biso   1.000  N
  C35      1.0000 0.58720  0.36471  0.31060  Biso   1.000  C
  H34      1.0000 0.55910  0.33590  0.31830  Biso   1.000  H
  H35      1.0000 0.59160  0.37980  0.48560  Biso   1.000  H
  N46      1.0000 0.69011  0.35436  0.33440  Biso   1.000  N
  O24      1.0000 0.59718  0.42796  0.94290  Biso   1.000  O
  N47      1.0000 0.72908  0.32883  0.20600  Biso   1.000  N
  N48      1.0000 0.70637  0.29748  0.00650  Biso   1.000  N
  C36      1.0000 0.65123  0.30552  0.02400  Biso   1.000  C
  H36      1.0000 0.62460  0.28980  0.91460  Biso   1.000  H
  C37      1.0000 0.16159  0.18263  0.87240  Biso   1.000  C
  O25      1.0000 0.18015  0.23116  0.93130  Biso   1.000  O
  N49      1.0000 0.08977  0.10918  0.97380  Biso   1.000  N
  C38      1.0000 0.11471  0.16280  0.06060  Biso   1.000  C
  H37      1.0000 0.08590  0.19090  0.06830  Biso   1.000  H
  H38      1.0000 0.12980  0.15840  0.23560  Biso   1.000  H
  N50      1.0000 0.10436  0.05989  0.08440  Biso   1.000  N
  O26      1.0000 0.17796  0.15282  0.69290  Biso   1.000  O
  N51      1.0000 0.07883  0.02092  0.95600  Biso   1.000  N
  N52      1.0000 0.04748  0.04363  0.75650  Biso   1.000  N
  C39      1.0000 0.05552  0.09877  0.77400  Biso   1.000  C
  H39      1.0000 0.03980  0.12540  0.66460  Biso   1.000  H
  C40      1.0000 0.66159  0.68263  0.37240  Biso   1.000  C
  O27      1.0000 0.68015  0.73116  0.43130  Biso   1.000  O
  N53      1.0000 0.58977  0.60918  0.47380  Biso   1.000  N
  C41      1.0000 0.61471  0.66280  0.56060  Biso   1.000  C
  H40      1.0000 0.58590  0.69090  0.56830  Biso   1.000  H
  H41      1.0000 0.62980  0.65840  0.73560  Biso   1.000  H
  N54      1.0000 0.60436  0.55989  0.58440  Biso   1.000  N
  O28      1.0000 0.67796  0.65282  0.19290  Biso   1.000  O
  N55      1.0000 0.57883  0.52092  0.45600  Biso   1.000  N
  N56      1.0000 0.54748  0.54363  0.25650  Biso   1.000  N
  C42      1.0000 0.55552  0.59877  0.27400  Biso   1.000  C
  H42      1.0000 0.53980  0.62540  0.16460  Biso   1.000  H
  C43      1.0000 0.33841  0.81737  0.37240  Biso   1.000  C
  O29      1.0000 0.31985  0.76884  0.43130  Biso   1.000  O
  N57      1.0000 0.41023  0.89082  0.47380  Biso   1.000  N
  C44      1.0000 0.38529  0.83720  0.56060  Biso   1.000  C
  H43      1.0000 0.41410  0.80910  0.56830  Biso   1.000  H
  H44      1.0000 0.37020  0.84160  0.73560  Biso   1.000  H
  N58      1.0000 0.39564  0.94011  0.58440  Biso   1.000  N
  O30      1.0000 0.32204  0.84718  0.19290  Biso   1.000  O
  N59      1.0000 0.42117  0.97908  0.45600  Biso   1.000  N
  N60      1.0000 0.45252  0.95637  0.25650  Biso   1.000  N
  C45      1.0000 0.44448  0.90123  0.27400  Biso   1.000  C
  H45      1.0000 0.46020  0.87460  0.16460  Biso   1.000  H
  C46      1.0000 0.83841  0.31737  0.87240  Biso   1.000  C
  O31      1.0000 0.81985  0.26884  0.93130  Biso   1.000  O
  N61      1.0000 0.91023  0.39082  0.97380  Biso   1.000  N
  C47      1.0000 0.88529  0.33720  0.06060  Biso   1.000  C
  H46      1.0000 0.91410  0.30910  0.06830  Biso   1.000  H
  H47      1.0000 0.87020  0.34160  0.23560  Biso   1.000  H
  N62      1.0000 0.89564  0.44011  0.08440  Biso   1.000  N
  O32      1.0000 0.82204  0.34718  0.69290  Biso   1.000  O
  N63      1.0000 0.92117  0.47908  0.95600  Biso   1.000  N
  N64      1.0000 0.95252  0.45637  0.75650  Biso   1.000  N
  C48      1.0000 0.94448  0.40123  0.77400  Biso   1.000  C
  H48      1.0000 0.96020  0.37460  0.66460  Biso   1.000  H
  Cu1      1.0000 0.50000  0.00000  0.00000  Biso   1.000  Cu
  Cu2      1.0000 0.00000  0.50000  0.50000  Biso   1.000  Cu
  Cu3      1.0000 0.00000  0.00000  0.50000  Biso   1.000  Cu
  Cu4      1.0000 0.50000  0.50000  0.00000  Biso   1.000  Cu
  Cu5      1.0000 0.75000  0.75000  0.25000  Biso   1.000  Cu
  Cu6      1.0000 0.75000  0.25000  0.75000  Biso   1.000  Cu
  Cu7      1.0000 0.25000  0.25000  0.75000  Biso   1.000  Cu
  Cu8      1.0000 0.25000  0.75000  0.25000  Biso   1.000  Cu
