data_image0
_cell_length_a       5.2788
_cell_length_b       15.467
_cell_length_c       8.295
_cell_angle_alpha    90
_cell_angle_beta     92.552
_cell_angle_gamma    90

_symmetry_space_group_name_H-M    "P 1"
_symmetry_int_tables_number       1

loop_
  _symmetry_equiv_pos_as_xyz
  'x, y, z'

loop_
  _atom_site_label
  _atom_site_occupancy
  _atom_site_fract_x
  _atom_site_fract_y
  _atom_site_fract_z
  _atom_site_thermal_displace_type
  _atom_site_B_iso_or_equiv
  _atom_site_type_symbol
  N1       1.0000 0.90740  0.39648  0.55560  Biso   1.000  N
  N2       1.0000 0.26270  0.21607  0.86850  Biso   1.000  N
  C1       1.0000 0.85620  0.31231  0.58300  Biso   1.000  C
  C2       1.0000 0.29770  0.30112  0.84930  Biso   1.000  C
  H1       1.0000 0.18820  0.33880  0.89900  Biso   1.000  H
  C3       1.0000 0.48690  0.33609  0.76010  Biso   1.000  C
  H2       1.0000 0.50110  0.39570  0.74970  Biso   1.000  H
  C4       1.0000 0.65630  0.28187  0.68570  Biso   1.000  C
  C5       1.0000 0.62270  0.19290  0.70650  Biso   1.000  C
  H3       1.0000 0.73170  0.15380  0.66010  Biso   1.000  H
  C6       1.0000 0.42720  0.16378  0.79610  Biso   1.000  C
  H4       1.0000 0.40720  0.10440  0.80740  Biso   1.000  H
  N3       1.0000 0.09260  0.39648  0.44440  Biso   1.000  N
  N4       1.0000 0.73730  0.21607  0.13150  Biso   1.000  N
  C7       1.0000 0.14380  0.31231  0.41700  Biso   1.000  C
  C8       1.0000 0.70230  0.30112  0.15070  Biso   1.000  C
  H5       1.0000 0.81180  0.33880  0.10100  Biso   1.000  H
  C9       1.0000 0.51310  0.33609  0.23990  Biso   1.000  C
  H6       1.0000 0.49890  0.39570  0.25030  Biso   1.000  H
  C10      1.0000 0.34370  0.28187  0.31430  Biso   1.000  C
  C11      1.0000 0.37730  0.19290  0.29350  Biso   1.000  C
  H7       1.0000 0.26830  0.15380  0.33990  Biso   1.000  H
  C12      1.0000 0.57280  0.16378  0.20390  Biso   1.000  C
  H8       1.0000 0.59280  0.10440  0.19260  Biso   1.000  H
  N5       1.0000 0.09260  0.60352  0.44440  Biso   1.000  N
  N6       1.0000 0.73730  0.78393  0.13150  Biso   1.000  N
  C13      1.0000 0.14380  0.68769  0.41700  Biso   1.000  C
  C14      1.0000 0.70230  0.69888  0.15070  Biso   1.000  C
  H9       1.0000 0.81180  0.66120  0.10100  Biso   1.000  H
  C15      1.0000 0.51310  0.66391  0.23990  Biso   1.000  C
  H10      1.0000 0.49890  0.60430  0.25030  Biso   1.000  H
  C16      1.0000 0.34370  0.71813  0.31430  Biso   1.000  C
  C17      1.0000 0.37730  0.80710  0.29350  Biso   1.000  C
  H11      1.0000 0.26830  0.84620  0.33990  Biso   1.000  H
  C18      1.0000 0.57280  0.83622  0.20390  Biso   1.000  C
  H12      1.0000 0.59280  0.89560  0.19260  Biso   1.000  H
  N7       1.0000 0.90740  0.60352  0.55560  Biso   1.000  N
  N8       1.0000 0.26270  0.78393  0.86850  Biso   1.000  N
  C19      1.0000 0.85620  0.68769  0.58300  Biso   1.000  C
  C20      1.0000 0.29770  0.69888  0.84930  Biso   1.000  C
  H13      1.0000 0.18820  0.66120  0.89900  Biso   1.000  H
  C21      1.0000 0.48690  0.66391  0.76010  Biso   1.000  C
  H14      1.0000 0.50110  0.60430  0.74970  Biso   1.000  H
  C22      1.0000 0.65630  0.71813  0.68570  Biso   1.000  C
  C23      1.0000 0.62270  0.80710  0.70650  Biso   1.000  C
  H15      1.0000 0.73170  0.84620  0.66010  Biso   1.000  H
  C24      1.0000 0.42720  0.83622  0.79610  Biso   1.000  C
  H16      1.0000 0.40720  0.89560  0.80740  Biso   1.000  H
  Cu1      1.0000 0.90689  0.50000  0.70394  Biso   1.000  Cu
  N9       1.0000 0.97340  0.50000  0.93180  Biso   1.000  N
  C25      1.0000 0.02660  0.50000  0.06820  Biso   1.000  C
  Cu2      1.0000 0.09311  0.50000  0.29606  Biso   1.000  Cu
  Cu3      1.0000 0.00000  0.16160  0.00000  Biso   1.000  Cu
  N10      1.0000 0.00000  0.03760  0.00000  Biso   1.000  N
  C26      1.0000 0.00000  0.96240  0.00000  Biso   1.000  C
  Cu4      1.0000 0.00000  0.83840  0.00000  Biso   1.000  Cu
  N11      1.0000 0.00000  0.25823  0.50000  Biso   1.000  N
  N12      1.0000 0.00000  0.74177  0.50000  Biso   1.000  N
