data_image0
_cell_length_a       8.754
_cell_length_b       15.873
_cell_length_c       9.466
_cell_angle_alpha    90
_cell_angle_beta     99.887
_cell_angle_gamma    90

_symmetry_space_group_name_H-M    "P 1"
_symmetry_int_tables_number       1

loop_
  _symmetry_equiv_pos_as_xyz
  'x, y, z'

loop_
  _atom_site_label
  _atom_site_occupancy
  _atom_site_fract_x
  _atom_site_fract_y
  _atom_site_fract_z
  _atom_site_thermal_displace_type
  _atom_site_B_iso_or_equiv
  _atom_site_type_symbol
  Er1      1.0000 0.02832  0.19529  0.52451  Biso   1.000  Er
  Se1      1.0000 0.72203  0.27872  0.70871  Biso   1.000  Se
  C1       1.0000 0.76900  0.20370  0.24900  Biso   1.000  C
  C2       1.0000 0.79250  0.29600  0.29800  Biso   1.000  C
  C3       1.0000 0.06750  0.99920  0.45850  Biso   1.000  C
  O1       1.0000 0.74130  0.37796  0.67410  Biso   1.000  O
  O2       1.0000 0.88260  0.22730  0.69740  Biso   1.000  O
  O3       1.0000 0.69690  0.26620  0.87480  Biso   1.000  O
  O4       1.0000 0.57600  0.24140  0.59780  Biso   1.000  O
  O5       1.0000 0.85220  0.15003  0.32550  Biso   1.000  O
  O6       1.0000 0.66950  0.18904  0.14040  Biso   1.000  O
  O7       1.0000 0.71030  0.35013  0.22090  Biso   1.000  O
  O8       1.0000 0.88850  0.31024  0.40820  Biso   1.000  O
  O9       1.0000 0.13950  0.06748  0.45430  Biso   1.000  O
  O10      1.0000 0.09590  0.93063  0.40320  Biso   1.000  O
  Er2      1.0000 0.47168  0.69529  0.97549  Biso   1.000  Er
  Se2      1.0000 0.77797  0.77872  0.79129  Biso   1.000  Se
  C4       1.0000 0.73100  0.70370  0.25100  Biso   1.000  C
  C5       1.0000 0.70750  0.79600  0.20200  Biso   1.000  C
  C6       1.0000 0.43250  0.49920  0.04150  Biso   1.000  C
  O11      1.0000 0.75870  0.87796  0.82590  Biso   1.000  O
  O12      1.0000 0.61740  0.72730  0.80260  Biso   1.000  O
  O13      1.0000 0.80310  0.76620  0.62520  Biso   1.000  O
  O14      1.0000 0.92400  0.74140  0.90220  Biso   1.000  O
  O15      1.0000 0.64780  0.65003  0.17450  Biso   1.000  O
  O16      1.0000 0.83050  0.68904  0.35960  Biso   1.000  O
  O17      1.0000 0.78970  0.85013  0.27910  Biso   1.000  O
  O18      1.0000 0.61150  0.81024  0.09180  Biso   1.000  O
  O19      1.0000 0.36050  0.56748  0.04570  Biso   1.000  O
  O20      1.0000 0.40410  0.43063  0.09680  Biso   1.000  O
  Er3      1.0000 0.97168  0.80471  0.47549  Biso   1.000  Er
  Se3      1.0000 0.27797  0.72128  0.29129  Biso   1.000  Se
  C7       1.0000 0.23100  0.79630  0.75100  Biso   1.000  C
  C8       1.0000 0.20750  0.70400  0.70200  Biso   1.000  C
  C9       1.0000 0.93250  0.00080  0.54150  Biso   1.000  C
  O21      1.0000 0.25870  0.62204  0.32590  Biso   1.000  O
  O22      1.0000 0.11740  0.77270  0.30260  Biso   1.000  O
  O23      1.0000 0.30310  0.73380  0.12520  Biso   1.000  O
  O24      1.0000 0.42400  0.75860  0.40220  Biso   1.000  O
  O25      1.0000 0.14780  0.84997  0.67450  Biso   1.000  O
  O26      1.0000 0.33050  0.81096  0.85960  Biso   1.000  O
  O27      1.0000 0.28970  0.64987  0.77910  Biso   1.000  O
  O28      1.0000 0.11150  0.68976  0.59180  Biso   1.000  O
  O29      1.0000 0.86050  0.93252  0.54570  Biso   1.000  O
  O30      1.0000 0.90410  0.06937  0.59680  Biso   1.000  O
  Er4      1.0000 0.52832  0.30471  0.02451  Biso   1.000  Er
  Se4      1.0000 0.22203  0.22128  0.20871  Biso   1.000  Se
  C10      1.0000 0.26900  0.29630  0.74900  Biso   1.000  C
  C11      1.0000 0.29250  0.20400  0.79800  Biso   1.000  C
  C12      1.0000 0.56750  0.50080  0.95850  Biso   1.000  C
  O31      1.0000 0.24130  0.12204  0.17410  Biso   1.000  O
  O32      1.0000 0.38260  0.27270  0.19740  Biso   1.000  O
  O33      1.0000 0.19690  0.23380  0.37480  Biso   1.000  O
  O34      1.0000 0.07600  0.25860  0.09780  Biso   1.000  O
  O35      1.0000 0.35220  0.34997  0.82550  Biso   1.000  O
  O36      1.0000 0.16950  0.31096  0.64040  Biso   1.000  O
  O37      1.0000 0.21030  0.14987  0.72090  Biso   1.000  O
  O38      1.0000 0.38850  0.18976  0.90820  Biso   1.000  O
  O39      1.0000 0.63950  0.43252  0.95430  Biso   1.000  O
  O40      1.0000 0.59590  0.56937  0.90320  Biso   1.000  O
