data_image0
_cell_length_a       7.0649
_cell_length_b       11.2771
_cell_length_c       11.8318
_cell_angle_alpha    67.37
_cell_angle_beta     80.035
_cell_angle_gamma    82.821

_symmetry_space_group_name_H-M    "P 1"
_symmetry_int_tables_number       1

loop_
  _symmetry_equiv_pos_as_xyz
  'x, y, z'

loop_
  _atom_site_label
  _atom_site_occupancy
  _atom_site_fract_x
  _atom_site_fract_y
  _atom_site_fract_z
  _atom_site_thermal_displace_type
  _atom_site_B_iso_or_equiv
  _atom_site_type_symbol
  Nd1      1.0000 0.22242  0.54693  0.57401  Biso   1.000  Nd
  Nd2      1.0000 0.28686  0.01011  0.75214  Biso   1.000  Nd
  S1       1.0000 0.28932  0.32141  0.46149  Biso   1.000  S
  S2       1.0000 0.44432  0.71615  0.25258  Biso   1.000  S
  O1       1.0000 0.44090  0.39790  0.46940  Biso   1.000  O
  O2       1.0000 0.10650  0.39390  0.48960  Biso   1.000  O
  O3       1.0000 0.29900  0.19290  0.55680  Biso   1.000  O
  O4       1.0000 0.30580  0.31670  0.34040  Biso   1.000  O
  O5       1.0000 0.28600  0.65990  0.35120  Biso   1.000  O
  O6       1.0000 0.47160  0.84540  0.24490  Biso   1.000  O
  O7       1.0000 0.62260  0.63480  0.27570  Biso   1.000  O
  O8       1.0000 0.39090  0.72190  0.13600  Biso   1.000  O
  O9       1.0000 0.16980  0.77820  0.53090  Biso   1.000  O
  O10      1.0000 0.23790  0.60960  0.75050  Biso   1.000  O
  O11      1.0000 0.22860  0.93920  0.58320  Biso   1.000  O
  O12      1.0000 0.30070  0.76950  0.80420  Biso   1.000  O
  O13      1.0000 0.06490  0.88560  0.93540  Biso   1.000  O
  O14      1.0000 0.87480  0.87110  0.11160  Biso   1.000  O
  C1       1.0000 0.21320  0.82320  0.60370  Biso   1.000  C
  C2       1.0000 0.25540  0.72650  0.73180  Biso   1.000  C
  C3       1.0000 0.98040  0.93100  0.01350  Biso   1.000  C
  Nd3      1.0000 0.77758  0.45307  0.42599  Biso   1.000  Nd
  Nd4      1.0000 0.71314  0.98989  0.24786  Biso   1.000  Nd
  S3       1.0000 0.71068  0.67859  0.53851  Biso   1.000  S
  S4       1.0000 0.55568  0.28385  0.74742  Biso   1.000  S
  O15      1.0000 0.55910  0.60210  0.53060  Biso   1.000  O
  O16      1.0000 0.89350  0.60610  0.51040  Biso   1.000  O
  O17      1.0000 0.70100  0.80710  0.44320  Biso   1.000  O
  O18      1.0000 0.69420  0.68330  0.65960  Biso   1.000  O
  O19      1.0000 0.71400  0.34010  0.64880  Biso   1.000  O
  O20      1.0000 0.52840  0.15460  0.75510  Biso   1.000  O
  O21      1.0000 0.37740  0.36520  0.72430  Biso   1.000  O
  O22      1.0000 0.60910  0.27810  0.86400  Biso   1.000  O
  O23      1.0000 0.83020  0.22180  0.46910  Biso   1.000  O
  O24      1.0000 0.76210  0.39040  0.24950  Biso   1.000  O
  O25      1.0000 0.77140  0.06080  0.41680  Biso   1.000  O
  O26      1.0000 0.69930  0.23050  0.19580  Biso   1.000  O
  O27      1.0000 0.93510  0.11440  0.06460  Biso   1.000  O
  O28      1.0000 0.12520  0.12890  0.88840  Biso   1.000  O
  C4       1.0000 0.78680  0.17680  0.39630  Biso   1.000  C
  C5       1.0000 0.74460  0.27350  0.26820  Biso   1.000  C
  C6       1.0000 0.01960  0.06900  0.98650  Biso   1.000  C
