data_image0
_cell_length_a       17.236
_cell_length_b       9.1835
_cell_length_c       15.478
_cell_angle_alpha    90
_cell_angle_beta     90
_cell_angle_gamma    90

_symmetry_space_group_name_H-M    "P 1"
_symmetry_int_tables_number       1

loop_
  _symmetry_equiv_pos_as_xyz
  'x, y, z'

loop_
  _atom_site_label
  _atom_site_occupancy
  _atom_site_fract_x
  _atom_site_fract_y
  _atom_site_fract_z
  _atom_site_thermal_displace_type
  _atom_site_B_iso_or_equiv
  _atom_site_type_symbol
  N1       1.0000 0.86920  0.28370  0.81490  Biso   1.000  N
  N2       1.0000 0.97416  0.18100  0.89270  Biso   1.000  N
  C1       1.0000 0.90570  0.17320  0.85450  Biso   1.000  C
  H1       1.0000 0.88070  0.08340  0.85510  Biso   1.000  H
  C2       1.0000 0.90670  0.41060  0.81400  Biso   1.000  C
  H2       1.0000 0.88220  0.49060  0.78920  Biso   1.000  H
  C3       1.0000 0.97910  0.42890  0.84780  Biso   1.000  C
  C4       1.0000 0.01120  0.30740  0.88910  Biso   1.000  C
  H3       1.0000 0.05990  0.31550  0.91460  Biso   1.000  H
  N3       1.0000 0.86920  0.78370  0.31490  Biso   1.000  N
  N4       1.0000 0.97416  0.68100  0.39270  Biso   1.000  N
  C5       1.0000 0.90570  0.67320  0.35450  Biso   1.000  C
  H4       1.0000 0.88070  0.58340  0.35510  Biso   1.000  H
  C6       1.0000 0.90670  0.91060  0.31400  Biso   1.000  C
  H5       1.0000 0.88220  0.99060  0.28920  Biso   1.000  H
  C7       1.0000 0.97910  0.92890  0.34780  Biso   1.000  C
  C8       1.0000 0.01120  0.80740  0.38910  Biso   1.000  C
  H6       1.0000 0.05990  0.81550  0.41460  Biso   1.000  H
  N5       1.0000 0.36920  0.28370  0.31490  Biso   1.000  N
  N6       1.0000 0.47416  0.18100  0.39270  Biso   1.000  N
  C9       1.0000 0.40570  0.17320  0.35450  Biso   1.000  C
  H7       1.0000 0.38070  0.08340  0.35510  Biso   1.000  H
  C10      1.0000 0.40670  0.41060  0.31400  Biso   1.000  C
  H8       1.0000 0.38220  0.49060  0.28920  Biso   1.000  H
  C11      1.0000 0.47910  0.42890  0.34780  Biso   1.000  C
  C12      1.0000 0.51120  0.30740  0.38910  Biso   1.000  C
  H9       1.0000 0.55990  0.31550  0.41460  Biso   1.000  H
  N7       1.0000 0.36920  0.78370  0.81490  Biso   1.000  N
  N8       1.0000 0.47416  0.68100  0.89270  Biso   1.000  N
  C13      1.0000 0.40570  0.67320  0.85450  Biso   1.000  C
  H10      1.0000 0.38070  0.58340  0.85510  Biso   1.000  H
  C14      1.0000 0.40670  0.91060  0.81400  Biso   1.000  C
  H11      1.0000 0.38220  0.99060  0.78920  Biso   1.000  H
  C15      1.0000 0.47910  0.92890  0.84780  Biso   1.000  C
  C16      1.0000 0.51120  0.80740  0.88910  Biso   1.000  C
  H12      1.0000 0.55990  0.81550  0.91460  Biso   1.000  H
  N9       1.0000 0.13080  0.71630  0.81490  Biso   1.000  N
  N10      1.0000 0.02584  0.81900  0.89270  Biso   1.000  N
  C17      1.0000 0.09430  0.82680  0.85450  Biso   1.000  C
  H13      1.0000 0.11930  0.91660  0.85510  Biso   1.000  H
  C18      1.0000 0.09330  0.58940  0.81400  Biso   1.000  C
  H14      1.0000 0.11780  0.50940  0.78920  Biso   1.000  H
  C19      1.0000 0.02090  0.57110  0.84780  Biso   1.000  C
  C20      1.0000 0.98880  0.69260  0.88910  Biso   1.000  C
  H15      1.0000 0.94010  0.68450  0.91460  Biso   1.000  H
  N11      1.0000 0.13080  0.21630  0.31490  Biso   1.000  N
  N12      1.0000 0.02584  0.31900  0.39270  Biso   1.000  N
  C21      1.0000 0.09430  0.32680  0.35450  Biso   1.000  C
  H16      1.0000 0.11930  0.41660  0.35510  Biso   1.000  H
  C22      1.0000 0.09330  0.08940  0.31400  Biso   1.000  C
  H17      1.0000 0.11780  0.00940  0.28920  Biso   1.000  H
  C23      1.0000 0.02090  0.07110  0.34780  Biso   1.000  C
  C24      1.0000 0.98880  0.19260  0.38910  Biso   1.000  C
  H18      1.0000 0.94010  0.18450  0.41460  Biso   1.000  H
  N13      1.0000 0.63080  0.71630  0.31490  Biso   1.000  N
  N14      1.0000 0.52584  0.81900  0.39270  Biso   1.000  N
  C25      1.0000 0.59430  0.82680  0.35450  Biso   1.000  C
  H19      1.0000 0.61930  0.91660  0.35510  Biso   1.000  H
  C26      1.0000 0.59330  0.58940  0.31400  Biso   1.000  C
  H20      1.0000 0.61780  0.50940  0.28920  Biso   1.000  H
  C27      1.0000 0.52090  0.57110  0.34780  Biso   1.000  C
  C28      1.0000 0.48880  0.69260  0.38910  Biso   1.000  C
  H21      1.0000 0.44010  0.68450  0.41460  Biso   1.000  H
  N15      1.0000 0.63080  0.21630  0.81490  Biso   1.000  N
  N16      1.0000 0.52584  0.31900  0.89270  Biso   1.000  N
  C29      1.0000 0.59430  0.32680  0.85450  Biso   1.000  C
  H22      1.0000 0.61930  0.41660  0.85510  Biso   1.000  H
  C30      1.0000 0.59330  0.08940  0.81400  Biso   1.000  C
  H23      1.0000 0.61780  0.00940  0.78920  Biso   1.000  H
  C31      1.0000 0.52090  0.07110  0.84780  Biso   1.000  C
  C32      1.0000 0.48880  0.19260  0.88910  Biso   1.000  C
  H24      1.0000 0.44010  0.18450  0.91460  Biso   1.000  H
  N17      1.0000 0.11920  0.96630  0.06490  Biso   1.000  N
  N18      1.0000 0.22416  0.06900  0.14270  Biso   1.000  N
  C33      1.0000 0.15570  0.07680  0.10450  Biso   1.000  C
  H25      1.0000 0.13070  0.16660  0.10510  Biso   1.000  H
  C34      1.0000 0.15670  0.83940  0.06400  Biso   1.000  C
  H26      1.0000 0.13220  0.75940  0.03920  Biso   1.000  H
  C35      1.0000 0.22910  0.82110  0.09780  Biso   1.000  C
  C36      1.0000 0.26120  0.94260  0.13910  Biso   1.000  C
  H27      1.0000 0.30990  0.93450  0.16460  Biso   1.000  H
  N19      1.0000 0.11920  0.46630  0.56490  Biso   1.000  N
  N20      1.0000 0.22416  0.56900  0.64270  Biso   1.000  N
  C37      1.0000 0.15570  0.57680  0.60450  Biso   1.000  C
  H28      1.0000 0.13070  0.66660  0.60510  Biso   1.000  H
  C38      1.0000 0.15670  0.33940  0.56400  Biso   1.000  C
  H29      1.0000 0.13220  0.25940  0.53920  Biso   1.000  H
  C39      1.0000 0.22910  0.32110  0.59780  Biso   1.000  C
  C40      1.0000 0.26120  0.44260  0.63910  Biso   1.000  C
  H30      1.0000 0.30990  0.43450  0.66460  Biso   1.000  H
  N21      1.0000 0.61920  0.96630  0.56490  Biso   1.000  N
  N22      1.0000 0.72416  0.06900  0.64270  Biso   1.000  N
  C41      1.0000 0.65570  0.07680  0.60450  Biso   1.000  C
  H31      1.0000 0.63070  0.16660  0.60510  Biso   1.000  H
  C42      1.0000 0.65670  0.83940  0.56400  Biso   1.000  C
  H32      1.0000 0.63220  0.75940  0.53920  Biso   1.000  H
  C43      1.0000 0.72910  0.82110  0.59780  Biso   1.000  C
  C44      1.0000 0.76120  0.94260  0.63910  Biso   1.000  C
  H33      1.0000 0.80990  0.93450  0.66460  Biso   1.000  H
  N23      1.0000 0.61920  0.46630  0.06490  Biso   1.000  N
  N24      1.0000 0.72416  0.56900  0.14270  Biso   1.000  N
  C45      1.0000 0.65570  0.57680  0.10450  Biso   1.000  C
  H34      1.0000 0.63070  0.66660  0.10510  Biso   1.000  H
  C46      1.0000 0.65670  0.33940  0.06400  Biso   1.000  C
  H35      1.0000 0.63220  0.25940  0.03920  Biso   1.000  H
  C47      1.0000 0.72910  0.32110  0.09780  Biso   1.000  C
  C48      1.0000 0.76120  0.44260  0.13910  Biso   1.000  C
  H36      1.0000 0.80990  0.43450  0.16460  Biso   1.000  H
  N25      1.0000 0.38080  0.53370  0.06490  Biso   1.000  N
  N26      1.0000 0.27584  0.43100  0.14270  Biso   1.000  N
  C49      1.0000 0.34430  0.42320  0.10450  Biso   1.000  C
  H37      1.0000 0.36930  0.33340  0.10510  Biso   1.000  H
  C50      1.0000 0.34330  0.66060  0.06400  Biso   1.000  C
  H38      1.0000 0.36780  0.74060  0.03920  Biso   1.000  H
  C51      1.0000 0.27090  0.67890  0.09780  Biso   1.000  C
  C52      1.0000 0.23880  0.55740  0.13910  Biso   1.000  C
  H39      1.0000 0.19010  0.56550  0.16460  Biso   1.000  H
  N27      1.0000 0.38080  0.03370  0.56490  Biso   1.000  N
  N28      1.0000 0.27584  0.93100  0.64270  Biso   1.000  N
  C53      1.0000 0.34430  0.92320  0.60450  Biso   1.000  C
  H40      1.0000 0.36930  0.83340  0.60510  Biso   1.000  H
  C54      1.0000 0.34330  0.16060  0.56400  Biso   1.000  C
  H41      1.0000 0.36780  0.24060  0.53920  Biso   1.000  H
  C55      1.0000 0.27090  0.17890  0.59780  Biso   1.000  C
  C56      1.0000 0.23880  0.05740  0.63910  Biso   1.000  C
  H42      1.0000 0.19010  0.06550  0.66460  Biso   1.000  H
  N29      1.0000 0.88080  0.53370  0.56490  Biso   1.000  N
  N30      1.0000 0.77584  0.43100  0.64270  Biso   1.000  N
  C57      1.0000 0.84430  0.42320  0.60450  Biso   1.000  C
  H43      1.0000 0.86930  0.33340  0.60510  Biso   1.000  H
  C58      1.0000 0.84330  0.66060  0.56400  Biso   1.000  C
  H44      1.0000 0.86780  0.74060  0.53920  Biso   1.000  H
  C59      1.0000 0.77090  0.67890  0.59780  Biso   1.000  C
  C60      1.0000 0.73880  0.55740  0.63910  Biso   1.000  C
  H45      1.0000 0.69010  0.56550  0.66460  Biso   1.000  H
  N31      1.0000 0.88080  0.03370  0.06490  Biso   1.000  N
  N32      1.0000 0.77584  0.93100  0.14270  Biso   1.000  N
  C61      1.0000 0.84430  0.92320  0.10450  Biso   1.000  C
  H46      1.0000 0.86930  0.83340  0.10510  Biso   1.000  H
  C62      1.0000 0.84330  0.16060  0.06400  Biso   1.000  C
  H47      1.0000 0.86780  0.24060  0.03920  Biso   1.000  H
  C63      1.0000 0.77090  0.17890  0.09780  Biso   1.000  C
  C64      1.0000 0.73880  0.05740  0.13910  Biso   1.000  C
  H48      1.0000 0.69010  0.06550  0.16460  Biso   1.000  H
  Ag1      1.0000 0.75000  0.25000  0.75008  Biso   1.000  Ag
  Ag2      1.0000 0.75000  0.75000  0.25008  Biso   1.000  Ag
  Ag3      1.0000 0.25000  0.75000  0.75008  Biso   1.000  Ag
  Ag4      1.0000 0.25000  0.25000  0.25008  Biso   1.000  Ag
  Ag5      1.0000 0.00000  0.00000  0.00008  Biso   1.000  Ag
  Ag6      1.0000 0.00000  0.50000  0.50008  Biso   1.000  Ag
  Ag7      1.0000 0.50000  0.50000  0.00008  Biso   1.000  Ag
  Ag8      1.0000 0.50000  0.00000  0.50008  Biso   1.000  Ag
