data_image0
_cell_length_a       24.633
_cell_length_b       13.038
_cell_length_c       14.725
_cell_angle_alpha    90
_cell_angle_beta     96.69
_cell_angle_gamma    90

_symmetry_space_group_name_H-M    "P 1"
_symmetry_int_tables_number       1

loop_
  _symmetry_equiv_pos_as_xyz
  'x, y, z'

loop_
  _atom_site_label
  _atom_site_occupancy
  _atom_site_fract_x
  _atom_site_fract_y
  _atom_site_fract_z
  _atom_site_thermal_displace_type
  _atom_site_B_iso_or_equiv
  _atom_site_type_symbol
  Eu1      1.0000 0.32801  0.70591  0.03101  Biso   1.000  Eu
  O1       1.0000 0.22539  0.64523  0.96221  Biso   1.000  O
  O2       1.0000 0.29806  0.55320  0.94339  Biso   1.000  O
  O3       1.0000 0.27378  0.34590  0.64886  Biso   1.000  O
  O4       1.0000 0.19544  0.25700  0.62282  Biso   1.000  O
  O5       1.0000 0.91202  0.17630  0.95790  Biso   1.000  O
  O6       1.0000 0.89669  0.33630  0.99370  Biso   1.000  O
  C1       1.0000 0.21311  0.49390  0.86980  Biso   1.000  C
  C2       1.0000 0.23569  0.44310  0.80000  Biso   1.000  C
  H1       1.0000 0.27170  0.45570  0.79010  Biso   1.000  H
  C3       1.0000 0.20437  0.37360  0.74520  Biso   1.000  C
  C4       1.0000 0.15162  0.35060  0.76390  Biso   1.000  C
  H2       1.0000 0.13110  0.30250  0.72800  Biso   1.000  H
  C5       1.0000 0.12892  0.39850  0.83570  Biso   1.000  C
  C6       1.0000 0.15957  0.47340  0.88630  Biso   1.000  C
  H3       1.0000 0.14420  0.50990  0.93120  Biso   1.000  H
  C7       1.0000 0.24778  0.56860  0.92830  Biso   1.000  C
  C8       1.0000 0.22656  0.32150  0.66560  Biso   1.000  C
  C9       1.0000 0.07427  0.36710  0.85880  Biso   1.000  C
  C10      1.0000 0.03893  0.43760  0.89190  Biso   1.000  C
  H4       1.0000 0.04830  0.50670  0.89500  Biso   1.000  H
  C11      1.0000 0.98990  0.40590  0.92010  Biso   1.000  C
  H5       1.0000 0.96650  0.45420  0.94090  Biso   1.000  H
  C12      1.0000 0.97526  0.30370  0.91800  Biso   1.000  C
  C13      1.0000 0.00929  0.23300  0.88250  Biso   1.000  C
  H6       1.0000 0.99930  0.16420  0.87840  Biso   1.000  H
  C14      1.0000 0.05808  0.26460  0.85290  Biso   1.000  C
  H7       1.0000 0.08040  0.21660  0.82880  Biso   1.000  H
  C15      1.0000 0.92493  0.27050  0.95870  Biso   1.000  C
  Eu2      1.0000 0.82801  0.20591  0.03101  Biso   1.000  Eu
  O7       1.0000 0.72539  0.14523  0.96221  Biso   1.000  O
  O8       1.0000 0.79806  0.05320  0.94339  Biso   1.000  O
  O9       1.0000 0.77378  0.84590  0.64886  Biso   1.000  O
  O10      1.0000 0.69544  0.75700  0.62282  Biso   1.000  O
  O11      1.0000 0.41202  0.67630  0.95790  Biso   1.000  O
  O12      1.0000 0.39669  0.83630  0.99370  Biso   1.000  O
  C16      1.0000 0.71311  0.99390  0.86980  Biso   1.000  C
  C17      1.0000 0.73569  0.94310  0.80000  Biso   1.000  C
  H8       1.0000 0.77170  0.95570  0.79010  Biso   1.000  H
  C18      1.0000 0.70437  0.87360  0.74520  Biso   1.000  C
  C19      1.0000 0.65162  0.85060  0.76390  Biso   1.000  C
  H9       1.0000 0.63110  0.80250  0.72800  Biso   1.000  H
  C20      1.0000 0.62892  0.89850  0.83570  Biso   1.000  C
  C21      1.0000 0.65957  0.97340  0.88630  Biso   1.000  C
  H10      1.0000 0.64420  0.00990  0.93120  Biso   1.000  H
  C22      1.0000 0.74778  0.06860  0.92830  Biso   1.000  C
  C23      1.0000 0.72656  0.82150  0.66560  Biso   1.000  C
  C24      1.0000 0.57427  0.86710  0.85880  Biso   1.000  C
  C25      1.0000 0.53893  0.93760  0.89190  Biso   1.000  C
  H11      1.0000 0.54830  0.00670  0.89500  Biso   1.000  H
  C26      1.0000 0.48990  0.90590  0.92010  Biso   1.000  C
  H12      1.0000 0.46650  0.95420  0.94090  Biso   1.000  H
  C27      1.0000 0.47526  0.80370  0.91800  Biso   1.000  C
  C28      1.0000 0.50929  0.73300  0.88250  Biso   1.000  C
  H13      1.0000 0.49930  0.66420  0.87840  Biso   1.000  H
  C29      1.0000 0.55808  0.76460  0.85290  Biso   1.000  C
  H14      1.0000 0.58040  0.71660  0.82880  Biso   1.000  H
  C30      1.0000 0.42493  0.77050  0.95870  Biso   1.000  C
  Eu3      1.0000 0.67199  0.70591  0.46899  Biso   1.000  Eu
  O13      1.0000 0.77461  0.64523  0.53779  Biso   1.000  O
  O14      1.0000 0.70194  0.55320  0.55661  Biso   1.000  O
  O15      1.0000 0.72622  0.34590  0.85114  Biso   1.000  O
  O16      1.0000 0.80456  0.25700  0.87718  Biso   1.000  O
  O17      1.0000 0.08798  0.17630  0.54210  Biso   1.000  O
  O18      1.0000 0.10331  0.33630  0.50630  Biso   1.000  O
  C31      1.0000 0.78689  0.49390  0.63020  Biso   1.000  C
  C32      1.0000 0.76431  0.44310  0.70000  Biso   1.000  C
  H15      1.0000 0.72830  0.45570  0.70990  Biso   1.000  H
  C33      1.0000 0.79563  0.37360  0.75480  Biso   1.000  C
  C34      1.0000 0.84838  0.35060  0.73610  Biso   1.000  C
  H16      1.0000 0.86890  0.30250  0.77200  Biso   1.000  H
  C35      1.0000 0.87108  0.39850  0.66430  Biso   1.000  C
  C36      1.0000 0.84043  0.47340  0.61370  Biso   1.000  C
  H17      1.0000 0.85580  0.50990  0.56880  Biso   1.000  H
  C37      1.0000 0.75222  0.56860  0.57170  Biso   1.000  C
  C38      1.0000 0.77344  0.32150  0.83440  Biso   1.000  C
  C39      1.0000 0.92573  0.36710  0.64120  Biso   1.000  C
  C40      1.0000 0.96107  0.43760  0.60810  Biso   1.000  C
  H18      1.0000 0.95170  0.50670  0.60500  Biso   1.000  H
  C41      1.0000 0.01010  0.40590  0.57990  Biso   1.000  C
  H19      1.0000 0.03350  0.45420  0.55910  Biso   1.000  H
  C42      1.0000 0.02474  0.30370  0.58200  Biso   1.000  C
  C43      1.0000 0.99071  0.23300  0.61750  Biso   1.000  C
  H20      1.0000 0.00070  0.16420  0.62160  Biso   1.000  H
  C44      1.0000 0.94192  0.26460  0.64710  Biso   1.000  C
  H21      1.0000 0.91960  0.21660  0.67120  Biso   1.000  H
  C45      1.0000 0.07507  0.27050  0.54130  Biso   1.000  C
  Eu4      1.0000 0.17199  0.20591  0.46899  Biso   1.000  Eu
  O19      1.0000 0.27461  0.14523  0.53779  Biso   1.000  O
  O20      1.0000 0.20194  0.05320  0.55661  Biso   1.000  O
  O21      1.0000 0.22622  0.84590  0.85114  Biso   1.000  O
  O22      1.0000 0.30456  0.75700  0.87718  Biso   1.000  O
  O23      1.0000 0.58798  0.67630  0.54210  Biso   1.000  O
  O24      1.0000 0.60331  0.83630  0.50630  Biso   1.000  O
  C46      1.0000 0.28689  0.99390  0.63020  Biso   1.000  C
  C47      1.0000 0.26431  0.94310  0.70000  Biso   1.000  C
  H22      1.0000 0.22830  0.95570  0.70990  Biso   1.000  H
  C48      1.0000 0.29563  0.87360  0.75480  Biso   1.000  C
  C49      1.0000 0.34838  0.85060  0.73610  Biso   1.000  C
  H23      1.0000 0.36890  0.80250  0.77200  Biso   1.000  H
  C50      1.0000 0.37108  0.89850  0.66430  Biso   1.000  C
  C51      1.0000 0.34043  0.97340  0.61370  Biso   1.000  C
  H24      1.0000 0.35580  0.00990  0.56880  Biso   1.000  H
  C52      1.0000 0.25222  0.06860  0.57170  Biso   1.000  C
  C53      1.0000 0.27344  0.82150  0.83440  Biso   1.000  C
  C54      1.0000 0.42573  0.86710  0.64120  Biso   1.000  C
  C55      1.0000 0.46107  0.93760  0.60810  Biso   1.000  C
  H25      1.0000 0.45170  0.00670  0.60500  Biso   1.000  H
  C56      1.0000 0.51010  0.90590  0.57990  Biso   1.000  C
  H26      1.0000 0.53350  0.95420  0.55910  Biso   1.000  H
  C57      1.0000 0.52474  0.80370  0.58200  Biso   1.000  C
  C58      1.0000 0.49071  0.73300  0.61750  Biso   1.000  C
  H27      1.0000 0.50070  0.66420  0.62160  Biso   1.000  H
  C59      1.0000 0.44192  0.76460  0.64710  Biso   1.000  C
  H28      1.0000 0.41960  0.71660  0.67120  Biso   1.000  H
  C60      1.0000 0.57507  0.77050  0.54130  Biso   1.000  C
  Eu5      1.0000 0.67199  0.29409  0.96899  Biso   1.000  Eu
  O25      1.0000 0.77461  0.35477  0.03779  Biso   1.000  O
  O26      1.0000 0.70194  0.44680  0.05661  Biso   1.000  O
  O27      1.0000 0.72622  0.65410  0.35114  Biso   1.000  O
  O28      1.0000 0.80456  0.74300  0.37718  Biso   1.000  O
  O29      1.0000 0.08798  0.82370  0.04210  Biso   1.000  O
  O30      1.0000 0.10331  0.66370  0.00630  Biso   1.000  O
  C61      1.0000 0.78689  0.50610  0.13020  Biso   1.000  C
  C62      1.0000 0.76431  0.55690  0.20000  Biso   1.000  C
  H29      1.0000 0.72830  0.54430  0.20990  Biso   1.000  H
  C63      1.0000 0.79563  0.62640  0.25480  Biso   1.000  C
  C64      1.0000 0.84838  0.64940  0.23610  Biso   1.000  C
  H30      1.0000 0.86890  0.69750  0.27200  Biso   1.000  H
  C65      1.0000 0.87108  0.60150  0.16430  Biso   1.000  C
  C66      1.0000 0.84043  0.52660  0.11370  Biso   1.000  C
  H31      1.0000 0.85580  0.49010  0.06880  Biso   1.000  H
  C67      1.0000 0.75222  0.43140  0.07170  Biso   1.000  C
  C68      1.0000 0.77344  0.67850  0.33440  Biso   1.000  C
  C69      1.0000 0.92573  0.63290  0.14120  Biso   1.000  C
  C70      1.0000 0.96107  0.56240  0.10810  Biso   1.000  C
  H32      1.0000 0.95170  0.49330  0.10500  Biso   1.000  H
  C71      1.0000 0.01010  0.59410  0.07990  Biso   1.000  C
  H33      1.0000 0.03350  0.54580  0.05910  Biso   1.000  H
  C72      1.0000 0.02474  0.69630  0.08200  Biso   1.000  C
  C73      1.0000 0.99071  0.76700  0.11750  Biso   1.000  C
  H34      1.0000 0.00070  0.83580  0.12160  Biso   1.000  H
  C74      1.0000 0.94192  0.73540  0.14710  Biso   1.000  C
  H35      1.0000 0.91960  0.78340  0.17120  Biso   1.000  H
  C75      1.0000 0.07507  0.72950  0.04130  Biso   1.000  C
  Eu6      1.0000 0.17199  0.79409  0.96899  Biso   1.000  Eu
  O31      1.0000 0.27461  0.85477  0.03779  Biso   1.000  O
  O32      1.0000 0.20194  0.94680  0.05661  Biso   1.000  O
  O33      1.0000 0.22622  0.15410  0.35114  Biso   1.000  O
  O34      1.0000 0.30456  0.24300  0.37718  Biso   1.000  O
  O35      1.0000 0.58798  0.32370  0.04210  Biso   1.000  O
  O36      1.0000 0.60331  0.16370  0.00630  Biso   1.000  O
  C76      1.0000 0.28689  0.00610  0.13020  Biso   1.000  C
  C77      1.0000 0.26431  0.05690  0.20000  Biso   1.000  C
  H36      1.0000 0.22830  0.04430  0.20990  Biso   1.000  H
  C78      1.0000 0.29563  0.12640  0.25480  Biso   1.000  C
  C79      1.0000 0.34838  0.14940  0.23610  Biso   1.000  C
  H37      1.0000 0.36890  0.19750  0.27200  Biso   1.000  H
  C80      1.0000 0.37108  0.10150  0.16430  Biso   1.000  C
  C81      1.0000 0.34043  0.02660  0.11370  Biso   1.000  C
  H38      1.0000 0.35580  0.99010  0.06880  Biso   1.000  H
  C82      1.0000 0.25222  0.93140  0.07170  Biso   1.000  C
  C83      1.0000 0.27344  0.17850  0.33440  Biso   1.000  C
  C84      1.0000 0.42573  0.13290  0.14120  Biso   1.000  C
  C85      1.0000 0.46107  0.06240  0.10810  Biso   1.000  C
  H39      1.0000 0.45170  0.99330  0.10500  Biso   1.000  H
  C86      1.0000 0.51010  0.09410  0.07990  Biso   1.000  C
  H40      1.0000 0.53350  0.04580  0.05910  Biso   1.000  H
  C87      1.0000 0.52474  0.19630  0.08200  Biso   1.000  C
  C88      1.0000 0.49071  0.26700  0.11750  Biso   1.000  C
  H41      1.0000 0.50070  0.33580  0.12160  Biso   1.000  H
  C89      1.0000 0.44192  0.23540  0.14710  Biso   1.000  C
  H42      1.0000 0.41960  0.28340  0.17120  Biso   1.000  H
  C90      1.0000 0.57507  0.22950  0.04130  Biso   1.000  C
  Eu7      1.0000 0.32801  0.29409  0.53101  Biso   1.000  Eu
  O37      1.0000 0.22539  0.35477  0.46221  Biso   1.000  O
  O38      1.0000 0.29806  0.44680  0.44339  Biso   1.000  O
  O39      1.0000 0.27378  0.65410  0.14886  Biso   1.000  O
  O40      1.0000 0.19544  0.74300  0.12282  Biso   1.000  O
  O41      1.0000 0.91202  0.82370  0.45790  Biso   1.000  O
  O42      1.0000 0.89669  0.66370  0.49370  Biso   1.000  O
  C91      1.0000 0.21311  0.50610  0.36980  Biso   1.000  C
  C92      1.0000 0.23569  0.55690  0.30000  Biso   1.000  C
  H43      1.0000 0.27170  0.54430  0.29010  Biso   1.000  H
  C93      1.0000 0.20437  0.62640  0.24520  Biso   1.000  C
  C94      1.0000 0.15162  0.64940  0.26390  Biso   1.000  C
  H44      1.0000 0.13110  0.69750  0.22800  Biso   1.000  H
  C95      1.0000 0.12892  0.60150  0.33570  Biso   1.000  C
  C96      1.0000 0.15957  0.52660  0.38630  Biso   1.000  C
  H45      1.0000 0.14420  0.49010  0.43120  Biso   1.000  H
  C97      1.0000 0.24778  0.43140  0.42830  Biso   1.000  C
  C98      1.0000 0.22656  0.67850  0.16560  Biso   1.000  C
  C99      1.0000 0.07427  0.63290  0.35880  Biso   1.000  C
  C100     1.0000 0.03893  0.56240  0.39190  Biso   1.000  C
  H46      1.0000 0.04830  0.49330  0.39500  Biso   1.000  H
  C101     1.0000 0.98990  0.59410  0.42010  Biso   1.000  C
  H47      1.0000 0.96650  0.54580  0.44090  Biso   1.000  H
  C102     1.0000 0.97526  0.69630  0.41800  Biso   1.000  C
  C103     1.0000 0.00929  0.76700  0.38250  Biso   1.000  C
  H48      1.0000 0.99930  0.83580  0.37840  Biso   1.000  H
  C104     1.0000 0.05808  0.73540  0.35290  Biso   1.000  C
  H49      1.0000 0.08040  0.78340  0.32880  Biso   1.000  H
  C105     1.0000 0.92493  0.72950  0.45870  Biso   1.000  C
  Eu8      1.0000 0.82801  0.79409  0.53101  Biso   1.000  Eu
  O43      1.0000 0.72539  0.85477  0.46221  Biso   1.000  O
  O44      1.0000 0.79806  0.94680  0.44339  Biso   1.000  O
  O45      1.0000 0.77378  0.15410  0.14886  Biso   1.000  O
  O46      1.0000 0.69544  0.24300  0.12282  Biso   1.000  O
  O47      1.0000 0.41202  0.32370  0.45790  Biso   1.000  O
  O48      1.0000 0.39669  0.16370  0.49370  Biso   1.000  O
  C106     1.0000 0.71311  0.00610  0.36980  Biso   1.000  C
  C107     1.0000 0.73569  0.05690  0.30000  Biso   1.000  C
  H50      1.0000 0.77170  0.04430  0.29010  Biso   1.000  H
  C108     1.0000 0.70437  0.12640  0.24520  Biso   1.000  C
  C109     1.0000 0.65162  0.14940  0.26390  Biso   1.000  C
  H51      1.0000 0.63110  0.19750  0.22800  Biso   1.000  H
  C110     1.0000 0.62892  0.10150  0.33570  Biso   1.000  C
  C111     1.0000 0.65957  0.02660  0.38630  Biso   1.000  C
  H52      1.0000 0.64420  0.99010  0.43120  Biso   1.000  H
  C112     1.0000 0.74778  0.93140  0.42830  Biso   1.000  C
  C113     1.0000 0.72656  0.17850  0.16560  Biso   1.000  C
  C114     1.0000 0.57427  0.13290  0.35880  Biso   1.000  C
  C115     1.0000 0.53893  0.06240  0.39190  Biso   1.000  C
  H53      1.0000 0.54830  0.99330  0.39500  Biso   1.000  H
  C116     1.0000 0.48990  0.09410  0.42010  Biso   1.000  C
  H54      1.0000 0.46650  0.04580  0.44090  Biso   1.000  H
  C117     1.0000 0.47526  0.19630  0.41800  Biso   1.000  C
  C118     1.0000 0.50929  0.26700  0.38250  Biso   1.000  C
  H55      1.0000 0.49930  0.33580  0.37840  Biso   1.000  H
  C119     1.0000 0.55808  0.23540  0.35290  Biso   1.000  C
  H56      1.0000 0.58040  0.28340  0.32880  Biso   1.000  H
  C120     1.0000 0.42493  0.22950  0.45870  Biso   1.000  C
