data_DIXKOL_clean
_audit_creation_date              2014-07-02
_audit_creation_method            'Materials Studio'
_symmetry_space_group_name_H-M    'P1'
_symmetry_Int_Tables_number       1
_symmetry_cell_setting            triclinic
loop_
_symmetry_equiv_pos_as_xyz
  x,y,z
_cell_length_a                    11.1575
_cell_length_b                    11.2606
_cell_length_c                    11.4240
_cell_angle_alpha                 76.7620
_cell_angle_beta                  65.8140
_cell_angle_gamma                 80.6800
loop_
_atom_site_label
_atom_site_type_symbol
_atom_site_fract_x
_atom_site_fract_y
_atom_site_fract_z
_atom_site_U_iso_or_equiv
_atom_site_adp_type
_atom_site_occupancy
Co1    Co    0.89718   0.60708   0.50068   0.01267  Uiso   1.00
Co2    Co    0.97084   0.42820   0.28977   0.01267  Uiso   1.00
Co3    Co    0.00718   0.64072   0.99133   0.01267  Uiso   1.00
Co4    Co    0.10282   0.39292   0.49932   0.01267  Uiso   1.00
Co5    Co    0.02916   0.57180   0.71023   0.01267  Uiso   1.00
Co6    Co    0.99282   0.35928   0.00867   0.01267  Uiso   1.00
H1     H     0.12680   0.47610   0.07810   0.01267  Uiso   1.00
H2     H     0.14660   0.62750   0.46100   0.01267  Uiso   1.00
H3     H     0.03190   0.96440   0.13930   0.01267  Uiso   1.00
H4     H     0.86590   0.07000   0.49140   0.01267  Uiso   1.00
H5     H     0.82710   0.86650   0.58950   0.01267  Uiso   1.00
H6     H     0.45350   0.58580   0.86100   0.01267  Uiso   1.00
H7     H     0.42840   0.64420   0.50710   0.01267  Uiso   1.00
H8     H     0.65490   0.65590   0.41000   0.01267  Uiso   1.00
H9     H     0.87320   0.52390   0.92190   0.01267  Uiso   1.00
H10    H     0.85340   0.37250   0.53900   0.01267  Uiso   1.00
H11    H     0.96810   0.03560   0.86070   0.01267  Uiso   1.00
H12    H     0.13410   0.93000   0.50860   0.01267  Uiso   1.00
H13    H     0.17290   0.13350   0.41050   0.01267  Uiso   1.00
H14    H     0.54650   0.41420   0.13900   0.01267  Uiso   1.00
H15    H     0.57160   0.35580   0.49290   0.01267  Uiso   1.00
H16    H     0.34510   0.34410   0.59000   0.01267  Uiso   1.00
C1     C     0.99654   0.72116   0.22542   0.01267  Uiso   1.00
C2     C     0.96594   0.82718   0.29628   0.01267  Uiso   1.00
C3     C     0.99100   0.94619   0.23182   0.01267  Uiso   1.00
C4     C     0.95494   0.03848   0.30527   0.01267  Uiso   1.00
C5     C     0.89290   0.00831   0.43929   0.01267  Uiso   1.00
C6     C     0.87030   0.88647   0.49727   0.01267  Uiso   1.00
C7     C     0.98330   0.16916   0.24150   0.01267  Uiso   1.00
C8     C     0.71960   0.58613   0.77526   0.01267  Uiso   1.00
C9     C     0.62752   0.60394   0.70415   0.01267  Uiso   1.00
C10    C     0.49320   0.59860   0.76843   0.01267  Uiso   1.00
C11    C     0.41627   0.61231   0.69495   0.01267  Uiso   1.00
C12    C     0.47820   0.63376   0.55957   0.01267  Uiso   1.00
C13    C     0.61330   0.63973   0.50251   0.01267  Uiso   1.00
C14    C     0.26981   0.60213   0.75965   0.01267  Uiso   1.00
C15    C     0.00346   0.27884   0.77458   0.01267  Uiso   1.00
C16    C     0.03406   0.17282   0.70372   0.01267  Uiso   1.00
C17    C     0.00900   0.05381   0.76818   0.01267  Uiso   1.00
C18    C     0.04506   0.96152   0.69473   0.01267  Uiso   1.00
C19    C     0.10710   0.99169   0.56071   0.01267  Uiso   1.00
C20    C     0.12970   0.11353   0.50273   0.01267  Uiso   1.00
C21    C     0.01670   0.83084   0.75850   0.01267  Uiso   1.00
C22    C     0.28040   0.41387   0.22474   0.01267  Uiso   1.00
C23    C     0.37248   0.39606   0.29585   0.01267  Uiso   1.00
C24    C     0.50680   0.40140   0.23157   0.01267  Uiso   1.00
C25    C     0.58373   0.38769   0.30505   0.01267  Uiso   1.00
C26    C     0.52180   0.36624   0.44043   0.01267  Uiso   1.00
C27    C     0.38670   0.36027   0.49749   0.01267  Uiso   1.00
C28    C     0.73019   0.39787   0.24035   0.01267  Uiso   1.00
N1     N     0.90711   0.79705   0.42786   0.01267  Uiso   1.00
N2     N     0.68774   0.62356   0.57259   0.01267  Uiso   1.00
N3     N     0.09289   0.20295   0.57214   0.01267  Uiso   1.00
N4     N     0.31226   0.37644   0.42741   0.01267  Uiso   1.00
O1     O     0.96096   0.61957   0.29854   0.01267  Uiso   1.00
O2     O     0.04994   0.74055   0.10392   0.01267  Uiso   1.00
O3     O     0.96144   0.24233   0.31703   0.01267  Uiso   1.00
O4     O     0.02686   0.19396   0.11854   0.01267  Uiso   1.00
O5     O     0.84106   0.59338   0.69907   0.01267  Uiso   1.00
O6     O     0.67642   0.56781   0.89511   0.01267  Uiso   1.00
O7     O     0.20896   0.64128   0.86395   0.01267  Uiso   1.00
O8     O     0.22264   0.55113   0.70147   0.01267  Uiso   1.00
O9     O     0.04948   0.47010   0.09374   0.01267  Uiso   1.00
O10    O     0.08278   0.57580   0.51164   0.01267  Uiso   1.00
O11    O     0.03904   0.38043   0.70146   0.01267  Uiso   1.00
O12    O     0.95006   0.25945   0.89608   0.01267  Uiso   1.00
O13    O     0.03856   0.75767   0.68297   0.01267  Uiso   1.00
O14    O     0.97314   0.80604   0.88146   0.01267  Uiso   1.00
O15    O     0.15894   0.40662   0.30093   0.01267  Uiso   1.00
O16    O     0.32358   0.43219   0.10489   0.01267  Uiso   1.00
O17    O     0.79104   0.35872   0.13605   0.01267  Uiso   1.00
O18    O     0.77736   0.44887   0.29853   0.01267  Uiso   1.00
O19    O     0.95052   0.52990   0.90626   0.01267  Uiso   1.00
O20    O     0.91722   0.42420   0.48836   0.01267  Uiso   1.00
