data_image0
_cell_length_a       8.0203
_cell_length_b       20.455
_cell_length_c       8.612
_cell_angle_alpha    90
_cell_angle_beta     90.65
_cell_angle_gamma    90

_symmetry_space_group_name_H-M    "P 1"
_symmetry_int_tables_number       1

loop_
  _symmetry_equiv_pos_as_xyz
  'x, y, z'

loop_
  _atom_site_label
  _atom_site_occupancy
  _atom_site_fract_x
  _atom_site_fract_y
  _atom_site_fract_z
  _atom_site_thermal_displace_type
  _atom_site_B_iso_or_equiv
  _atom_site_type_symbol
  N1       1.0000 0.15420  0.50163  0.68784  Biso   1.000  N
  N2       1.0000 0.07810  0.50271  0.83190  Biso   1.000  N
  N3       1.0000 0.34730  0.50042  0.86410  Biso   1.000  N
  N4       1.0000 0.50500  0.50004  0.92780  Biso   1.000  N
  N5       1.0000 0.12560  0.57402  0.40300  Biso   1.000  N
  N6       1.0000 0.29830  0.57788  0.40170  Biso   1.000  N
  N7       1.0000 0.18940  0.66724  0.30460  Biso   1.000  N
  N8       1.0000 0.15670  0.73034  0.25110  Biso   1.000  N
  N9       1.0000 0.32500  0.92095  0.11910  Biso   1.000  N
  N10      1.0000 0.15250  0.91426  0.10040  Biso   1.000  N
  N11      1.0000 0.25690  0.82424  0.19800  Biso   1.000  N
  N12      1.0000 0.28870  0.76140  0.25020  Biso   1.000  N
  C1       1.0000 0.31550  0.50034  0.70910  Biso   1.000  C
  H1       1.0000 0.39680  0.49950  0.62970  Biso   1.000  H
  C2       1.0000 0.19680  0.50194  0.93600  Biso   1.000  C
  H2       1.0000 0.18100  0.50240  0.04510  Biso   1.000  H
  C3       1.0000 0.06220  0.62727  0.34340  Biso   1.000  C
  H3       1.0000 0.94680  0.63640  0.32970  Biso   1.000  H
  C4       1.0000 0.33410  0.63496  0.34320  Biso   1.000  C
  H4       1.0000 0.44350  0.65160  0.32950  Biso   1.000  H
  C5       1.0000 0.38370  0.86723  0.17800  Biso   1.000  C
  H5       1.0000 0.49750  0.85920  0.20310  Biso   1.000  H
  C6       1.0000 0.11480  0.85549  0.14820  Biso   1.000  C
  H6       1.0000 0.00580  0.83730  0.14850  Biso   1.000  H
  N13      1.0000 0.84580  0.49837  0.31216  Biso   1.000  N
  N14      1.0000 0.92190  0.49729  0.16810  Biso   1.000  N
  N15      1.0000 0.65270  0.49958  0.13590  Biso   1.000  N
  N16      1.0000 0.49500  0.49996  0.07220  Biso   1.000  N
  N17      1.0000 0.87440  0.42598  0.59700  Biso   1.000  N
  N18      1.0000 0.70170  0.42212  0.59830  Biso   1.000  N
  N19      1.0000 0.81060  0.33276  0.69540  Biso   1.000  N
  N20      1.0000 0.84330  0.26966  0.74890  Biso   1.000  N
  N21      1.0000 0.67500  0.07905  0.88090  Biso   1.000  N
  N22      1.0000 0.84750  0.08574  0.89960  Biso   1.000  N
  N23      1.0000 0.74310  0.17576  0.80200  Biso   1.000  N
  N24      1.0000 0.71130  0.23860  0.74980  Biso   1.000  N
  C7       1.0000 0.68450  0.49966  0.29090  Biso   1.000  C
  H7       1.0000 0.60320  0.50050  0.37030  Biso   1.000  H
  C8       1.0000 0.80320  0.49806  0.06400  Biso   1.000  C
  H8       1.0000 0.81900  0.49760  0.95490  Biso   1.000  H
  C9       1.0000 0.93780  0.37273  0.65660  Biso   1.000  C
  H9       1.0000 0.05320  0.36360  0.67030  Biso   1.000  H
  C10      1.0000 0.66590  0.36504  0.65680  Biso   1.000  C
  H10      1.0000 0.55650  0.34840  0.67050  Biso   1.000  H
  C11      1.0000 0.61630  0.13277  0.82200  Biso   1.000  C
  H11      1.0000 0.50250  0.14080  0.79690  Biso   1.000  H
  C12      1.0000 0.88520  0.14451  0.85180  Biso   1.000  C
  H12      1.0000 0.99420  0.16270  0.85150  Biso   1.000  H
  Cu1      1.0000 0.00000  0.50000  0.50000  Biso   1.000  Cu
  N25      1.0000 0.34580  0.00163  0.81216  Biso   1.000  N
  N26      1.0000 0.42190  0.00271  0.66810  Biso   1.000  N
  N27      1.0000 0.15270  0.00042  0.63590  Biso   1.000  N
  N28      1.0000 0.99500  0.00004  0.57220  Biso   1.000  N
  N29      1.0000 0.37440  0.07402  0.09700  Biso   1.000  N
  N30      1.0000 0.20170  0.07788  0.09830  Biso   1.000  N
  N31      1.0000 0.31060  0.16724  0.19540  Biso   1.000  N
  N32      1.0000 0.34330  0.23034  0.24890  Biso   1.000  N
  N33      1.0000 0.17500  0.42095  0.38090  Biso   1.000  N
  N34      1.0000 0.34750  0.41426  0.39960  Biso   1.000  N
  N35      1.0000 0.24310  0.32424  0.30200  Biso   1.000  N
  N36      1.0000 0.21130  0.26140  0.24980  Biso   1.000  N
  C13      1.0000 0.18450  0.00034  0.79090  Biso   1.000  C
  H13      1.0000 0.10320  0.99950  0.87030  Biso   1.000  H
  C14      1.0000 0.30320  0.00194  0.56400  Biso   1.000  C
  H14      1.0000 0.31900  0.00240  0.45490  Biso   1.000  H
  C15      1.0000 0.43780  0.12727  0.15660  Biso   1.000  C
  H15      1.0000 0.55320  0.13640  0.17030  Biso   1.000  H
  C16      1.0000 0.16590  0.13496  0.15680  Biso   1.000  C
  H16      1.0000 0.05650  0.15160  0.17050  Biso   1.000  H
  C17      1.0000 0.11630  0.36723  0.32200  Biso   1.000  C
  H17      1.0000 0.00250  0.35920  0.29690  Biso   1.000  H
  C18      1.0000 0.38520  0.35549  0.35180  Biso   1.000  C
  H18      1.0000 0.49420  0.33730  0.35150  Biso   1.000  H
  N37      1.0000 0.65420  0.99837  0.18784  Biso   1.000  N
  N38      1.0000 0.57810  0.99729  0.33190  Biso   1.000  N
  N39      1.0000 0.84730  0.99958  0.36410  Biso   1.000  N
  N40      1.0000 0.00500  0.99996  0.42780  Biso   1.000  N
  N41      1.0000 0.62560  0.92598  0.90300  Biso   1.000  N
  N42      1.0000 0.79830  0.92212  0.90170  Biso   1.000  N
  N43      1.0000 0.68940  0.83276  0.80460  Biso   1.000  N
  N44      1.0000 0.65670  0.76966  0.75110  Biso   1.000  N
  N45      1.0000 0.82500  0.57905  0.61910  Biso   1.000  N
  N46      1.0000 0.65250  0.58574  0.60040  Biso   1.000  N
  N47      1.0000 0.75690  0.67576  0.69800  Biso   1.000  N
  N48      1.0000 0.78870  0.73860  0.75020  Biso   1.000  N
  C19      1.0000 0.81550  0.99966  0.20910  Biso   1.000  C
  H19      1.0000 0.89680  0.00050  0.12970  Biso   1.000  H
  C20      1.0000 0.69680  0.99806  0.43600  Biso   1.000  C
  H20      1.0000 0.68100  0.99760  0.54510  Biso   1.000  H
  C21      1.0000 0.56220  0.87273  0.84340  Biso   1.000  C
  H21      1.0000 0.44680  0.86360  0.82970  Biso   1.000  H
  C22      1.0000 0.83410  0.86504  0.84320  Biso   1.000  C
  H22      1.0000 0.94350  0.84840  0.82950  Biso   1.000  H
  C23      1.0000 0.88370  0.63277  0.67800  Biso   1.000  C
  H23      1.0000 0.99750  0.64080  0.70310  Biso   1.000  H
  C24      1.0000 0.61480  0.64451  0.64820  Biso   1.000  C
  H24      1.0000 0.50580  0.66270  0.64850  Biso   1.000  H
  Cu2      1.0000 0.50000  0.00000  0.00000  Biso   1.000  Cu
