data_image0
_cell_length_a       16.3552
_cell_length_b       16.0035
_cell_length_c       12.1024
_cell_angle_alpha    90
_cell_angle_beta     111.399
_cell_angle_gamma    90

_symmetry_space_group_name_H-M    "P 1"
_symmetry_int_tables_number       1

loop_
  _symmetry_equiv_pos_as_xyz
  'x, y, z'

loop_
  _atom_site_label
  _atom_site_occupancy
  _atom_site_fract_x
  _atom_site_fract_y
  _atom_site_fract_z
  _atom_site_thermal_displace_type
  _atom_site_B_iso_or_equiv
  _atom_site_type_symbol
  Cd1      1.0000 0.48809  0.18060  0.59179  Biso   1.000  Cd
  N1       1.0000 0.42641  0.22520  0.40000  Biso   1.000  N
  N2       1.0000 0.38504  0.07038  0.56330  Biso   1.000  N
  O1       1.0000 0.42895  0.92090  0.49112  Biso   1.000  O
  O2       1.0000 0.40259  0.91175  0.30070  Biso   1.000  O
  C1       1.0000 0.38760  0.94387  0.38620  Biso   1.000  C
  O3       1.0000 0.11605  0.24859  0.35650  Biso   1.000  O
  O4       1.0000 0.07618  0.21291  0.16490  Biso   1.000  O
  C2       1.0000 0.38100  0.29630  0.36940  Biso   1.000  C
  C3       1.0000 0.42350  0.17320  0.31270  Biso   1.000  C
  H1       1.0000 0.41410  0.02140  0.57600  Biso   1.000  H
  H2       1.0000 0.36000  0.07520  0.61800  Biso   1.000  H
  C4       1.0000 0.31720  0.06820  0.44830  Biso   1.000  C
  C5       1.0000 0.31960  0.01127  0.36090  Biso   1.000  C
  C6       1.0000 0.33270  0.31640  0.25210  Biso   1.000  C
  H3       1.0000 0.38190  0.33370  0.42870  Biso   1.000  H
  C7       1.0000 0.37680  0.18950  0.19480  Biso   1.000  C
  H4       1.0000 0.45470  0.12340  0.33250  Biso   1.000  H
  C8       1.0000 0.25190  0.12920  0.42000  Biso   1.000  C
  C9       1.0000 0.25750  0.02020  0.24530  Biso   1.000  C
  H5       1.0000 0.30160  0.36640  0.23410  Biso   1.000  H
  C10      1.0000 0.33060  0.26260  0.16200  Biso   1.000  C
  H6       1.0000 0.37650  0.15090  0.13720  Biso   1.000  H
  C11      1.0000 0.19040  0.13650  0.30470  Biso   1.000  C
  H7       1.0000 0.24930  0.16550  0.47860  Biso   1.000  H
  C12      1.0000 0.19380  0.08150  0.21680  Biso   1.000  C
  H8       1.0000 0.25930  0.98380  0.18640  Biso   1.000  H
  C13      1.0000 0.28020  0.28190  0.03200  Biso   1.000  C
  C14      1.0000 0.12160  0.20490  0.27360  Biso   1.000  C
  H9       1.0000 0.15340  0.08620  0.13960  Biso   1.000  H
  H10      1.0000 0.24790  0.33350  0.02670  Biso   1.000  H
  H11      1.0000 0.32210  0.29120  0.99340  Biso   1.000  H
  Cd2      1.0000 0.98809  0.68060  0.59179  Biso   1.000  Cd
  N3       1.0000 0.92641  0.72520  0.40000  Biso   1.000  N
  N4       1.0000 0.88504  0.57038  0.56330  Biso   1.000  N
  O5       1.0000 0.92895  0.42090  0.49112  Biso   1.000  O
  O6       1.0000 0.90259  0.41175  0.30070  Biso   1.000  O
  C15      1.0000 0.88760  0.44387  0.38620  Biso   1.000  C
  O7       1.0000 0.61605  0.74859  0.35650  Biso   1.000  O
  O8       1.0000 0.57618  0.71291  0.16490  Biso   1.000  O
  C16      1.0000 0.88100  0.79630  0.36940  Biso   1.000  C
  C17      1.0000 0.92350  0.67320  0.31270  Biso   1.000  C
  H12      1.0000 0.91410  0.52140  0.57600  Biso   1.000  H
  H13      1.0000 0.86000  0.57520  0.61800  Biso   1.000  H
  C18      1.0000 0.81720  0.56820  0.44830  Biso   1.000  C
  C19      1.0000 0.81960  0.51127  0.36090  Biso   1.000  C
  C20      1.0000 0.83270  0.81640  0.25210  Biso   1.000  C
  H14      1.0000 0.88190  0.83370  0.42870  Biso   1.000  H
  C21      1.0000 0.87680  0.68950  0.19480  Biso   1.000  C
  H15      1.0000 0.95470  0.62340  0.33250  Biso   1.000  H
  C22      1.0000 0.75190  0.62920  0.42000  Biso   1.000  C
  C23      1.0000 0.75750  0.52020  0.24530  Biso   1.000  C
  H16      1.0000 0.80160  0.86640  0.23410  Biso   1.000  H
  C24      1.0000 0.83060  0.76260  0.16200  Biso   1.000  C
  H17      1.0000 0.87650  0.65090  0.13720  Biso   1.000  H
  C25      1.0000 0.69040  0.63650  0.30470  Biso   1.000  C
  H18      1.0000 0.74930  0.66550  0.47860  Biso   1.000  H
  C26      1.0000 0.69380  0.58150  0.21680  Biso   1.000  C
  H19      1.0000 0.75930  0.48380  0.18640  Biso   1.000  H
  C27      1.0000 0.78020  0.78190  0.03200  Biso   1.000  C
  C28      1.0000 0.62160  0.70490  0.27360  Biso   1.000  C
  H20      1.0000 0.65340  0.58620  0.13960  Biso   1.000  H
  H21      1.0000 0.74790  0.83350  0.02670  Biso   1.000  H
  H22      1.0000 0.82210  0.79120  0.99340  Biso   1.000  H
  Cd3      1.0000 0.51191  0.18060  0.90821  Biso   1.000  Cd
  N5       1.0000 0.57359  0.22520  0.10000  Biso   1.000  N
  N6       1.0000 0.61496  0.07038  0.93670  Biso   1.000  N
  O9       1.0000 0.57105  0.92090  0.00888  Biso   1.000  O
  O10      1.0000 0.59741  0.91175  0.19930  Biso   1.000  O
  C29      1.0000 0.61240  0.94387  0.11380  Biso   1.000  C
  O11      1.0000 0.88395  0.24859  0.14350  Biso   1.000  O
  O12      1.0000 0.92382  0.21291  0.33510  Biso   1.000  O
  C30      1.0000 0.61900  0.29630  0.13060  Biso   1.000  C
  C31      1.0000 0.57650  0.17320  0.18730  Biso   1.000  C
  H23      1.0000 0.58590  0.02140  0.92400  Biso   1.000  H
  H24      1.0000 0.64000  0.07520  0.88200  Biso   1.000  H
  C32      1.0000 0.68280  0.06820  0.05170  Biso   1.000  C
  C33      1.0000 0.68040  0.01127  0.13910  Biso   1.000  C
  C34      1.0000 0.66730  0.31640  0.24790  Biso   1.000  C
  H25      1.0000 0.61810  0.33370  0.07130  Biso   1.000  H
  C35      1.0000 0.62320  0.18950  0.30520  Biso   1.000  C
  H26      1.0000 0.54530  0.12340  0.16750  Biso   1.000  H
  C36      1.0000 0.74810  0.12920  0.08000  Biso   1.000  C
  C37      1.0000 0.74250  0.02020  0.25470  Biso   1.000  C
  H27      1.0000 0.69840  0.36640  0.26590  Biso   1.000  H
  C38      1.0000 0.66940  0.26260  0.33800  Biso   1.000  C
  H28      1.0000 0.62350  0.15090  0.36280  Biso   1.000  H
  C39      1.0000 0.80960  0.13650  0.19530  Biso   1.000  C
  H29      1.0000 0.75070  0.16550  0.02140  Biso   1.000  H
  C40      1.0000 0.80620  0.08150  0.28320  Biso   1.000  C
  H30      1.0000 0.74070  0.98380  0.31360  Biso   1.000  H
  C41      1.0000 0.71980  0.28190  0.46800  Biso   1.000  C
  C42      1.0000 0.87840  0.20490  0.22640  Biso   1.000  C
  H31      1.0000 0.84660  0.08620  0.36040  Biso   1.000  H
  H32      1.0000 0.75210  0.33350  0.47330  Biso   1.000  H
  H33      1.0000 0.67790  0.29120  0.50660  Biso   1.000  H
  Cd4      1.0000 0.01191  0.68060  0.90821  Biso   1.000  Cd
  N7       1.0000 0.07359  0.72520  0.10000  Biso   1.000  N
  N8       1.0000 0.11496  0.57038  0.93670  Biso   1.000  N
  O13      1.0000 0.07105  0.42090  0.00888  Biso   1.000  O
  O14      1.0000 0.09741  0.41175  0.19930  Biso   1.000  O
  C43      1.0000 0.11240  0.44387  0.11380  Biso   1.000  C
  O15      1.0000 0.38395  0.74859  0.14350  Biso   1.000  O
  O16      1.0000 0.42382  0.71291  0.33510  Biso   1.000  O
  C44      1.0000 0.11900  0.79630  0.13060  Biso   1.000  C
  C45      1.0000 0.07650  0.67320  0.18730  Biso   1.000  C
  H34      1.0000 0.08590  0.52140  0.92400  Biso   1.000  H
  H35      1.0000 0.14000  0.57520  0.88200  Biso   1.000  H
  C46      1.0000 0.18280  0.56820  0.05170  Biso   1.000  C
  C47      1.0000 0.18040  0.51127  0.13910  Biso   1.000  C
  C48      1.0000 0.16730  0.81640  0.24790  Biso   1.000  C
  H36      1.0000 0.11810  0.83370  0.07130  Biso   1.000  H
  C49      1.0000 0.12320  0.68950  0.30520  Biso   1.000  C
  H37      1.0000 0.04530  0.62340  0.16750  Biso   1.000  H
  C50      1.0000 0.24810  0.62920  0.08000  Biso   1.000  C
  C51      1.0000 0.24250  0.52020  0.25470  Biso   1.000  C
  H38      1.0000 0.19840  0.86640  0.26590  Biso   1.000  H
  C52      1.0000 0.16940  0.76260  0.33800  Biso   1.000  C
  H39      1.0000 0.12350  0.65090  0.36280  Biso   1.000  H
  C53      1.0000 0.30960  0.63650  0.19530  Biso   1.000  C
  H40      1.0000 0.25070  0.66550  0.02140  Biso   1.000  H
  C54      1.0000 0.30620  0.58150  0.28320  Biso   1.000  C
  H41      1.0000 0.24070  0.48380  0.31360  Biso   1.000  H
  C55      1.0000 0.21980  0.78190  0.46800  Biso   1.000  C
  C56      1.0000 0.37840  0.70490  0.22640  Biso   1.000  C
  H42      1.0000 0.34660  0.58620  0.36040  Biso   1.000  H
  H43      1.0000 0.25210  0.83350  0.47330  Biso   1.000  H
  H44      1.0000 0.17790  0.79120  0.50660  Biso   1.000  H
  Cd5      1.0000 0.51191  0.81940  0.40821  Biso   1.000  Cd
  N9       1.0000 0.57359  0.77480  0.60000  Biso   1.000  N
  N10      1.0000 0.61496  0.92962  0.43670  Biso   1.000  N
  O17      1.0000 0.57105  0.07910  0.50888  Biso   1.000  O
  O18      1.0000 0.59741  0.08825  0.69930  Biso   1.000  O
  C57      1.0000 0.61240  0.05613  0.61380  Biso   1.000  C
  O19      1.0000 0.88395  0.75141  0.64350  Biso   1.000  O
  O20      1.0000 0.92382  0.78709  0.83510  Biso   1.000  O
  C58      1.0000 0.61900  0.70370  0.63060  Biso   1.000  C
  C59      1.0000 0.57650  0.82680  0.68730  Biso   1.000  C
  H45      1.0000 0.58590  0.97860  0.42400  Biso   1.000  H
  H46      1.0000 0.64000  0.92480  0.38200  Biso   1.000  H
  C60      1.0000 0.68280  0.93180  0.55170  Biso   1.000  C
  C61      1.0000 0.68040  0.98873  0.63910  Biso   1.000  C
  C62      1.0000 0.66730  0.68360  0.74790  Biso   1.000  C
  H47      1.0000 0.61810  0.66630  0.57130  Biso   1.000  H
  C63      1.0000 0.62320  0.81050  0.80520  Biso   1.000  C
  H48      1.0000 0.54530  0.87660  0.66750  Biso   1.000  H
  C64      1.0000 0.74810  0.87080  0.58000  Biso   1.000  C
  C65      1.0000 0.74250  0.97980  0.75470  Biso   1.000  C
  H49      1.0000 0.69840  0.63360  0.76590  Biso   1.000  H
  C66      1.0000 0.66940  0.73740  0.83800  Biso   1.000  C
  H50      1.0000 0.62350  0.84910  0.86280  Biso   1.000  H
  C67      1.0000 0.80960  0.86350  0.69530  Biso   1.000  C
  H51      1.0000 0.75070  0.83450  0.52140  Biso   1.000  H
  C68      1.0000 0.80620  0.91850  0.78320  Biso   1.000  C
  H52      1.0000 0.74070  0.01620  0.81360  Biso   1.000  H
  C69      1.0000 0.71980  0.71810  0.96800  Biso   1.000  C
  C70      1.0000 0.87840  0.79510  0.72640  Biso   1.000  C
  H53      1.0000 0.84660  0.91380  0.86040  Biso   1.000  H
  H54      1.0000 0.75210  0.66650  0.97330  Biso   1.000  H
  H55      1.0000 0.67790  0.70880  0.00660  Biso   1.000  H
  Cd6      1.0000 0.01191  0.31940  0.40821  Biso   1.000  Cd
  N11      1.0000 0.07359  0.27480  0.60000  Biso   1.000  N
  N12      1.0000 0.11496  0.42962  0.43670  Biso   1.000  N
  O21      1.0000 0.07105  0.57910  0.50888  Biso   1.000  O
  O22      1.0000 0.09741  0.58825  0.69930  Biso   1.000  O
  C71      1.0000 0.11240  0.55613  0.61380  Biso   1.000  C
  O23      1.0000 0.38395  0.25141  0.64350  Biso   1.000  O
  O24      1.0000 0.42382  0.28709  0.83510  Biso   1.000  O
  C72      1.0000 0.11900  0.20370  0.63060  Biso   1.000  C
  C73      1.0000 0.07650  0.32680  0.68730  Biso   1.000  C
  H56      1.0000 0.08590  0.47860  0.42400  Biso   1.000  H
  H57      1.0000 0.14000  0.42480  0.38200  Biso   1.000  H
  C74      1.0000 0.18280  0.43180  0.55170  Biso   1.000  C
  C75      1.0000 0.18040  0.48873  0.63910  Biso   1.000  C
  C76      1.0000 0.16730  0.18360  0.74790  Biso   1.000  C
  H58      1.0000 0.11810  0.16630  0.57130  Biso   1.000  H
  C77      1.0000 0.12320  0.31050  0.80520  Biso   1.000  C
  H59      1.0000 0.04530  0.37660  0.66750  Biso   1.000  H
  C78      1.0000 0.24810  0.37080  0.58000  Biso   1.000  C
  C79      1.0000 0.24250  0.47980  0.75470  Biso   1.000  C
  H60      1.0000 0.19840  0.13360  0.76590  Biso   1.000  H
  C80      1.0000 0.16940  0.23740  0.83800  Biso   1.000  C
  H61      1.0000 0.12350  0.34910  0.86280  Biso   1.000  H
  C81      1.0000 0.30960  0.36350  0.69530  Biso   1.000  C
  H62      1.0000 0.25070  0.33450  0.52140  Biso   1.000  H
  C82      1.0000 0.30620  0.41850  0.78320  Biso   1.000  C
  H63      1.0000 0.24070  0.51620  0.81360  Biso   1.000  H
  C83      1.0000 0.21980  0.21810  0.96800  Biso   1.000  C
  C84      1.0000 0.37840  0.29510  0.72640  Biso   1.000  C
  H64      1.0000 0.34660  0.41380  0.86040  Biso   1.000  H
  H65      1.0000 0.25210  0.16650  0.97330  Biso   1.000  H
  H66      1.0000 0.17790  0.20880  0.00660  Biso   1.000  H
  Cd7      1.0000 0.48809  0.81940  0.09179  Biso   1.000  Cd
  N13      1.0000 0.42641  0.77480  0.90000  Biso   1.000  N
  N14      1.0000 0.38504  0.92962  0.06330  Biso   1.000  N
  O25      1.0000 0.42895  0.07910  0.99112  Biso   1.000  O
  O26      1.0000 0.40259  0.08825  0.80070  Biso   1.000  O
  C85      1.0000 0.38760  0.05613  0.88620  Biso   1.000  C
  O27      1.0000 0.11605  0.75141  0.85650  Biso   1.000  O
  O28      1.0000 0.07618  0.78709  0.66490  Biso   1.000  O
  C86      1.0000 0.38100  0.70370  0.86940  Biso   1.000  C
  C87      1.0000 0.42350  0.82680  0.81270  Biso   1.000  C
  H67      1.0000 0.41410  0.97860  0.07600  Biso   1.000  H
  H68      1.0000 0.36000  0.92480  0.11800  Biso   1.000  H
  C88      1.0000 0.31720  0.93180  0.94830  Biso   1.000  C
  C89      1.0000 0.31960  0.98873  0.86090  Biso   1.000  C
  C90      1.0000 0.33270  0.68360  0.75210  Biso   1.000  C
  H69      1.0000 0.38190  0.66630  0.92870  Biso   1.000  H
  C91      1.0000 0.37680  0.81050  0.69480  Biso   1.000  C
  H70      1.0000 0.45470  0.87660  0.83250  Biso   1.000  H
  C92      1.0000 0.25190  0.87080  0.92000  Biso   1.000  C
  C93      1.0000 0.25750  0.97980  0.74530  Biso   1.000  C
  H71      1.0000 0.30160  0.63360  0.73410  Biso   1.000  H
  C94      1.0000 0.33060  0.73740  0.66200  Biso   1.000  C
  H72      1.0000 0.37650  0.84910  0.63720  Biso   1.000  H
  C95      1.0000 0.19040  0.86350  0.80470  Biso   1.000  C
  H73      1.0000 0.24930  0.83450  0.97860  Biso   1.000  H
  C96      1.0000 0.19380  0.91850  0.71680  Biso   1.000  C
  H74      1.0000 0.25930  0.01620  0.68640  Biso   1.000  H
  C97      1.0000 0.28020  0.71810  0.53200  Biso   1.000  C
  C98      1.0000 0.12160  0.79510  0.77360  Biso   1.000  C
  H75      1.0000 0.15340  0.91380  0.63960  Biso   1.000  H
  H76      1.0000 0.24790  0.66650  0.52670  Biso   1.000  H
  H77      1.0000 0.32210  0.70880  0.49340  Biso   1.000  H
  Cd8      1.0000 0.98809  0.31940  0.09179  Biso   1.000  Cd
  N15      1.0000 0.92641  0.27480  0.90000  Biso   1.000  N
  N16      1.0000 0.88504  0.42962  0.06330  Biso   1.000  N
  O29      1.0000 0.92895  0.57910  0.99112  Biso   1.000  O
  O30      1.0000 0.90259  0.58825  0.80070  Biso   1.000  O
  C99      1.0000 0.88760  0.55613  0.88620  Biso   1.000  C
  O31      1.0000 0.61605  0.25141  0.85650  Biso   1.000  O
  O32      1.0000 0.57618  0.28709  0.66490  Biso   1.000  O
  C100     1.0000 0.88100  0.20370  0.86940  Biso   1.000  C
  C101     1.0000 0.92350  0.32680  0.81270  Biso   1.000  C
  H78      1.0000 0.91410  0.47860  0.07600  Biso   1.000  H
  H79      1.0000 0.86000  0.42480  0.11800  Biso   1.000  H
  C102     1.0000 0.81720  0.43180  0.94830  Biso   1.000  C
  C103     1.0000 0.81960  0.48873  0.86090  Biso   1.000  C
  C104     1.0000 0.83270  0.18360  0.75210  Biso   1.000  C
  H80      1.0000 0.88190  0.16630  0.92870  Biso   1.000  H
  C105     1.0000 0.87680  0.31050  0.69480  Biso   1.000  C
  H81      1.0000 0.95470  0.37660  0.83250  Biso   1.000  H
  C106     1.0000 0.75190  0.37080  0.92000  Biso   1.000  C
  C107     1.0000 0.75750  0.47980  0.74530  Biso   1.000  C
  H82      1.0000 0.80160  0.13360  0.73410  Biso   1.000  H
  C108     1.0000 0.83060  0.23740  0.66200  Biso   1.000  C
  H83      1.0000 0.87650  0.34910  0.63720  Biso   1.000  H
  C109     1.0000 0.69040  0.36350  0.80470  Biso   1.000  C
  H84      1.0000 0.74930  0.33450  0.97860  Biso   1.000  H
  C110     1.0000 0.69380  0.41850  0.71680  Biso   1.000  C
  H85      1.0000 0.75930  0.51620  0.68640  Biso   1.000  H
  C111     1.0000 0.78020  0.21810  0.53200  Biso   1.000  C
  C112     1.0000 0.62160  0.29510  0.77360  Biso   1.000  C
  H86      1.0000 0.65340  0.41380  0.63960  Biso   1.000  H
  H87      1.0000 0.74790  0.16650  0.52670  Biso   1.000  H
  H88      1.0000 0.82210  0.20880  0.49340  Biso   1.000  H
