data_image0
_cell_length_a       6.7119
_cell_length_b       24.876
_cell_length_c       14.0647
_cell_angle_alpha    90
_cell_angle_beta     90
_cell_angle_gamma    90

_symmetry_space_group_name_H-M    "P 1"
_symmetry_int_tables_number       1

loop_
  _symmetry_equiv_pos_as_xyz
  'x, y, z'

loop_
  _atom_site_label
  _atom_site_occupancy
  _atom_site_fract_x
  _atom_site_fract_y
  _atom_site_fract_z
  _atom_site_thermal_displace_type
  _atom_site_B_iso_or_equiv
  _atom_site_type_symbol
  O1       1.0000 0.11300  0.11600  0.63600  Biso   1.000  O
  O2       1.0000 0.61300  0.61600  0.63600  Biso   1.000  O
  O3       1.0000 0.88700  0.38400  0.63600  Biso   1.000  O
  O4       1.0000 0.38700  0.88400  0.63600  Biso   1.000  O
  O5       1.0000 0.88700  0.61600  0.36400  Biso   1.000  O
  O6       1.0000 0.38700  0.11600  0.36400  Biso   1.000  O
  O7       1.0000 0.11300  0.88400  0.36400  Biso   1.000  O
  O8       1.0000 0.61300  0.38400  0.36400  Biso   1.000  O
  O9       1.0000 0.88700  0.88400  0.36400  Biso   1.000  O
  O10      1.0000 0.38700  0.38400  0.36400  Biso   1.000  O
  O11      1.0000 0.11300  0.61600  0.36400  Biso   1.000  O
  O12      1.0000 0.61300  0.11600  0.36400  Biso   1.000  O
  O13      1.0000 0.11300  0.38400  0.63600  Biso   1.000  O
  O14      1.0000 0.61300  0.88400  0.63600  Biso   1.000  O
  O15      1.0000 0.88700  0.11600  0.63600  Biso   1.000  O
  O16      1.0000 0.38700  0.61600  0.63600  Biso   1.000  O
  C1       1.0000 0.00000  0.16460  0.01870  Biso   1.000  C
  H1       1.0000 0.00000  0.19630  0.98090  Biso   1.000  H
  C2       1.0000 0.00000  0.11590  0.97370  Biso   1.000  C
  H2       1.0000 0.00000  0.11420  0.90620  Biso   1.000  H
  C3       1.0000 0.00000  0.07030  0.02550  Biso   1.000  C
  C4       1.0000 0.00000  0.07320  0.12440  Biso   1.000  C
  H3       1.0000 0.00000  0.04160  0.16220  Biso   1.000  H
  C5       1.0000 0.00000  0.12470  0.16670  Biso   1.000  C
  H4       1.0000 0.00000  0.12770  0.23400  Biso   1.000  H
  C6       1.0000 0.00000  0.20350  0.54010  Biso   1.000  C
  H5       1.0000 0.00000  0.17040  0.50640  Biso   1.000  H
  C7       1.0000 0.00000  0.20250  0.63910  Biso   1.000  C
  N1       1.0000 0.00000  0.16980  0.11310  Biso   1.000  N
  N2       1.0000 0.00000  0.01940  0.97450  Biso   1.000  N
  N3       1.0000 0.00000  0.15110  0.67800  Biso   1.000  N
  O17      1.0000 0.00000  0.29430  0.34110  Biso   1.000  O
  O18      1.0000 0.00000  0.14490  0.76070  Biso   1.000  O
  C8       1.0000 0.50000  0.66460  0.01870  Biso   1.000  C
  H6       1.0000 0.50000  0.69630  0.98090  Biso   1.000  H
  C9       1.0000 0.50000  0.61590  0.97370  Biso   1.000  C
  H7       1.0000 0.50000  0.61420  0.90620  Biso   1.000  H
  C10      1.0000 0.50000  0.57030  0.02550  Biso   1.000  C
  C11      1.0000 0.50000  0.57320  0.12440  Biso   1.000  C
  H8       1.0000 0.50000  0.54160  0.16220  Biso   1.000  H
  C12      1.0000 0.50000  0.62470  0.16670  Biso   1.000  C
  H9       1.0000 0.50000  0.62770  0.23400  Biso   1.000  H
  C13      1.0000 0.50000  0.70350  0.54010  Biso   1.000  C
  H10      1.0000 0.50000  0.67040  0.50640  Biso   1.000  H
  C14      1.0000 0.50000  0.70250  0.63910  Biso   1.000  C
  N4       1.0000 0.50000  0.66980  0.11310  Biso   1.000  N
  N5       1.0000 0.50000  0.51940  0.97450  Biso   1.000  N
  N6       1.0000 0.50000  0.65110  0.67800  Biso   1.000  N
  O19      1.0000 0.50000  0.79430  0.34110  Biso   1.000  O
  O20      1.0000 0.50000  0.64490  0.76070  Biso   1.000  O
  C15      1.0000 0.00000  0.33540  0.01870  Biso   1.000  C
  H11      1.0000 0.00000  0.30370  0.98090  Biso   1.000  H
  C16      1.0000 0.00000  0.38410  0.97370  Biso   1.000  C
  H12      1.0000 0.00000  0.38580  0.90620  Biso   1.000  H
  C17      1.0000 0.00000  0.42970  0.02550  Biso   1.000  C
  C18      1.0000 0.00000  0.42680  0.12440  Biso   1.000  C
  H13      1.0000 0.00000  0.45840  0.16220  Biso   1.000  H
  C19      1.0000 0.00000  0.37530  0.16670  Biso   1.000  C
  H14      1.0000 0.00000  0.37230  0.23400  Biso   1.000  H
  C20      1.0000 0.00000  0.29650  0.54010  Biso   1.000  C
  H15      1.0000 0.00000  0.32960  0.50640  Biso   1.000  H
  C21      1.0000 0.00000  0.29750  0.63910  Biso   1.000  C
  N7       1.0000 0.00000  0.33020  0.11310  Biso   1.000  N
  N8       1.0000 0.00000  0.48060  0.97450  Biso   1.000  N
  N9       1.0000 0.00000  0.34890  0.67800  Biso   1.000  N
  O21      1.0000 0.00000  0.20570  0.34110  Biso   1.000  O
  O22      1.0000 0.00000  0.35510  0.76070  Biso   1.000  O
  C22      1.0000 0.50000  0.83540  0.01870  Biso   1.000  C
  H16      1.0000 0.50000  0.80370  0.98090  Biso   1.000  H
  C23      1.0000 0.50000  0.88410  0.97370  Biso   1.000  C
  H17      1.0000 0.50000  0.88580  0.90620  Biso   1.000  H
  C24      1.0000 0.50000  0.92970  0.02550  Biso   1.000  C
  C25      1.0000 0.50000  0.92680  0.12440  Biso   1.000  C
  H18      1.0000 0.50000  0.95840  0.16220  Biso   1.000  H
  C26      1.0000 0.50000  0.87530  0.16670  Biso   1.000  C
  H19      1.0000 0.50000  0.87230  0.23400  Biso   1.000  H
  C27      1.0000 0.50000  0.79650  0.54010  Biso   1.000  C
  H20      1.0000 0.50000  0.82960  0.50640  Biso   1.000  H
  C28      1.0000 0.50000  0.79750  0.63910  Biso   1.000  C
  N10      1.0000 0.50000  0.83020  0.11310  Biso   1.000  N
  N11      1.0000 0.50000  0.98060  0.97450  Biso   1.000  N
  N12      1.0000 0.50000  0.84890  0.67800  Biso   1.000  N
  O23      1.0000 0.50000  0.70570  0.34110  Biso   1.000  O
  O24      1.0000 0.50000  0.85510  0.76070  Biso   1.000  O
  C29      1.0000 0.00000  0.66460  0.98130  Biso   1.000  C
  H21      1.0000 0.00000  0.69630  0.01910  Biso   1.000  H
  C30      1.0000 0.00000  0.61590  0.02630  Biso   1.000  C
  H22      1.0000 0.00000  0.61420  0.09380  Biso   1.000  H
  C31      1.0000 0.00000  0.57030  0.97450  Biso   1.000  C
  C32      1.0000 0.00000  0.57320  0.87560  Biso   1.000  C
  H23      1.0000 0.00000  0.54160  0.83780  Biso   1.000  H
  C33      1.0000 0.00000  0.62470  0.83330  Biso   1.000  C
  H24      1.0000 0.00000  0.62770  0.76600  Biso   1.000  H
  C34      1.0000 0.00000  0.70350  0.45990  Biso   1.000  C
  H25      1.0000 0.00000  0.67040  0.49360  Biso   1.000  H
  C35      1.0000 0.00000  0.70250  0.36090  Biso   1.000  C
  N13      1.0000 0.00000  0.66980  0.88690  Biso   1.000  N
  N14      1.0000 0.00000  0.51940  0.02550  Biso   1.000  N
  N15      1.0000 0.00000  0.65110  0.32200  Biso   1.000  N
  O25      1.0000 0.00000  0.79430  0.65890  Biso   1.000  O
  O26      1.0000 0.00000  0.64490  0.23930  Biso   1.000  O
  C36      1.0000 0.50000  0.16460  0.98130  Biso   1.000  C
  H26      1.0000 0.50000  0.19630  0.01910  Biso   1.000  H
  C37      1.0000 0.50000  0.11590  0.02630  Biso   1.000  C
  H27      1.0000 0.50000  0.11420  0.09380  Biso   1.000  H
  C38      1.0000 0.50000  0.07030  0.97450  Biso   1.000  C
  C39      1.0000 0.50000  0.07320  0.87560  Biso   1.000  C
  H28      1.0000 0.50000  0.04160  0.83780  Biso   1.000  H
  C40      1.0000 0.50000  0.12470  0.83330  Biso   1.000  C
  H29      1.0000 0.50000  0.12770  0.76600  Biso   1.000  H
  C41      1.0000 0.50000  0.20350  0.45990  Biso   1.000  C
  H30      1.0000 0.50000  0.17040  0.49360  Biso   1.000  H
  C42      1.0000 0.50000  0.20250  0.36090  Biso   1.000  C
  N16      1.0000 0.50000  0.16980  0.88690  Biso   1.000  N
  N17      1.0000 0.50000  0.01940  0.02550  Biso   1.000  N
  N18      1.0000 0.50000  0.15110  0.32200  Biso   1.000  N
  O27      1.0000 0.50000  0.29430  0.65890  Biso   1.000  O
  O28      1.0000 0.50000  0.14490  0.23930  Biso   1.000  O
  C43      1.0000 0.00000  0.83540  0.98130  Biso   1.000  C
  H31      1.0000 0.00000  0.80370  0.01910  Biso   1.000  H
  C44      1.0000 0.00000  0.88410  0.02630  Biso   1.000  C
  H32      1.0000 0.00000  0.88580  0.09380  Biso   1.000  H
  C45      1.0000 0.00000  0.92970  0.97450  Biso   1.000  C
  C46      1.0000 0.00000  0.92680  0.87560  Biso   1.000  C
  H33      1.0000 0.00000  0.95840  0.83780  Biso   1.000  H
  C47      1.0000 0.00000  0.87530  0.83330  Biso   1.000  C
  H34      1.0000 0.00000  0.87230  0.76600  Biso   1.000  H
  C48      1.0000 0.00000  0.79650  0.45990  Biso   1.000  C
  H35      1.0000 0.00000  0.82960  0.49360  Biso   1.000  H
  C49      1.0000 0.00000  0.79750  0.36090  Biso   1.000  C
  N19      1.0000 0.00000  0.83020  0.88690  Biso   1.000  N
  N20      1.0000 0.00000  0.98060  0.02550  Biso   1.000  N
  N21      1.0000 0.00000  0.84890  0.32200  Biso   1.000  N
  O29      1.0000 0.00000  0.70570  0.65890  Biso   1.000  O
  O30      1.0000 0.00000  0.85510  0.23930  Biso   1.000  O
  C50      1.0000 0.50000  0.33540  0.98130  Biso   1.000  C
  H36      1.0000 0.50000  0.30370  0.01910  Biso   1.000  H
  C51      1.0000 0.50000  0.38410  0.02630  Biso   1.000  C
  H37      1.0000 0.50000  0.38580  0.09380  Biso   1.000  H
  C52      1.0000 0.50000  0.42970  0.97450  Biso   1.000  C
  C53      1.0000 0.50000  0.42680  0.87560  Biso   1.000  C
  H38      1.0000 0.50000  0.45840  0.83780  Biso   1.000  H
  C54      1.0000 0.50000  0.37530  0.83330  Biso   1.000  C
  H39      1.0000 0.50000  0.37230  0.76600  Biso   1.000  H
  C55      1.0000 0.50000  0.29650  0.45990  Biso   1.000  C
  H40      1.0000 0.50000  0.32960  0.49360  Biso   1.000  H
  C56      1.0000 0.50000  0.29750  0.36090  Biso   1.000  C
  N22      1.0000 0.50000  0.33020  0.88690  Biso   1.000  N
  N23      1.0000 0.50000  0.48060  0.02550  Biso   1.000  N
  N24      1.0000 0.50000  0.34890  0.32200  Biso   1.000  N
  O31      1.0000 0.50000  0.20570  0.65890  Biso   1.000  O
  O32      1.0000 0.50000  0.35510  0.23930  Biso   1.000  O
  C57      1.0000 0.00000  0.25000  0.38360  Biso   1.000  C
  C58      1.0000 0.00000  0.25000  0.49040  Biso   1.000  C
  C59      1.0000 0.00000  0.25000  0.69040  Biso   1.000  C
  C60      1.0000 0.00000  0.25000  0.79880  Biso   1.000  C
  Cd1      1.0000 0.00000  0.25000  0.19228  Biso   1.000  Cd
  C61      1.0000 0.50000  0.75000  0.38360  Biso   1.000  C
  C62      1.0000 0.50000  0.75000  0.49040  Biso   1.000  C
  C63      1.0000 0.50000  0.75000  0.69040  Biso   1.000  C
  C64      1.0000 0.50000  0.75000  0.79880  Biso   1.000  C
  Cd2      1.0000 0.50000  0.75000  0.19228  Biso   1.000  Cd
  C65      1.0000 0.00000  0.75000  0.61640  Biso   1.000  C
  C66      1.0000 0.00000  0.75000  0.50960  Biso   1.000  C
  C67      1.0000 0.00000  0.75000  0.30960  Biso   1.000  C
  C68      1.0000 0.00000  0.75000  0.20120  Biso   1.000  C
  Cd3      1.0000 0.00000  0.75000  0.80772  Biso   1.000  Cd
  C69      1.0000 0.50000  0.25000  0.61640  Biso   1.000  C
  C70      1.0000 0.50000  0.25000  0.50960  Biso   1.000  C
  C71      1.0000 0.50000  0.25000  0.30960  Biso   1.000  C
  C72      1.0000 0.50000  0.25000  0.20120  Biso   1.000  C
  Cd4      1.0000 0.50000  0.25000  0.80772  Biso   1.000  Cd
  O33      1.0000 0.16060  0.25000  0.83960  Biso   1.000  O
  O34      1.0000 0.66060  0.75000  0.83960  Biso   1.000  O
  O35      1.0000 0.83940  0.25000  0.83960  Biso   1.000  O
  O36      1.0000 0.33940  0.75000  0.83960  Biso   1.000  O
  O37      1.0000 0.83940  0.75000  0.16040  Biso   1.000  O
  O38      1.0000 0.33940  0.25000  0.16040  Biso   1.000  O
  O39      1.0000 0.16060  0.75000  0.16040  Biso   1.000  O
  O40      1.0000 0.66060  0.25000  0.16040  Biso   1.000  O
