data_DODMIT_clean
_audit_creation_date              2014-07-02
_audit_creation_method            'Materials Studio'
_symmetry_space_group_name_H-M    'P1'
_symmetry_Int_Tables_number       1
_symmetry_cell_setting            triclinic
loop_
_symmetry_equiv_pos_as_xyz
  x,y,z
_cell_length_a                    10.7380
_cell_length_b                    10.7619
_cell_length_c                    18.5470
_cell_angle_alpha                 105.9280
_cell_angle_beta                  90.0000
_cell_angle_gamma                 119.9270
loop_
_atom_site_label
_atom_site_type_symbol
_atom_site_fract_x
_atom_site_fract_y
_atom_site_fract_z
_atom_site_U_iso_or_equiv
_atom_site_adp_type
_atom_site_occupancy
Er1    Er    0.07696   0.00278   0.89720   0.01267  Uiso   1.00
Er2    Er    0.07418   0.99722   0.60281   0.01267  Uiso   1.00
Er3    Er    0.92304   0.99722   0.10281   0.01267  Uiso   1.00
Er4    Er    0.92582   0.00278   0.39720   0.01267  Uiso   1.00
H1     H     0.35750   0.38560   0.21890   0.01267  Uiso   1.00
H2     H     0.57660   0.61080   0.27360   0.01267  Uiso   1.00
H3     H     0.48680   0.36120   0.01660   0.01267  Uiso   1.00
H4     H     0.69950   0.58940   0.06860   0.01267  Uiso   1.00
H5     H     0.96580   0.66300   0.09700   0.01267  Uiso   1.00
H6     H     0.06570   0.55800   0.88960   0.01267  Uiso   1.00
H7     H     0.97190   0.61440   0.28110   0.01267  Uiso   1.00
H8     H     0.96580   0.38920   0.22640   0.01267  Uiso   1.00
H9     H     0.12560   0.63880   0.48340   0.01267  Uiso   1.00
H10    H     0.11010   0.41060   0.43140   0.01267  Uiso   1.00
H11    H     0.30280   0.33700   0.40300   0.01267  Uiso   1.00
H12    H     0.50770   0.44200   0.61040   0.01267  Uiso   1.00
H13    H     0.64250   0.61440   0.78110   0.01267  Uiso   1.00
H14    H     0.42340   0.38920   0.72640   0.01267  Uiso   1.00
H15    H     0.51320   0.63880   0.98340   0.01267  Uiso   1.00
H16    H     0.30050   0.41060   0.93140   0.01267  Uiso   1.00
H17    H     0.03420   0.33700   0.90300   0.01267  Uiso   1.00
H18    H     0.93430   0.44200   0.11040   0.01267  Uiso   1.00
H19    H     0.02810   0.38560   0.71890   0.01267  Uiso   1.00
H20    H     0.03420   0.61080   0.77360   0.01267  Uiso   1.00
H21    H     0.87440   0.36120   0.51660   0.01267  Uiso   1.00
H22    H     0.88990   0.58940   0.56860   0.01267  Uiso   1.00
H23    H     0.69720   0.66300   0.59700   0.01267  Uiso   1.00
H24    H     0.49230   0.55800   0.38960   0.01267  Uiso   1.00
C1     C     0.42710   0.42660   0.18900   0.01267  Uiso   1.00
C2     C     0.55720   0.56240   0.22140   0.01267  Uiso   1.00
C3     C     0.03900   0.77620   0.98250   0.01267  Uiso   1.00
C4     C     0.50370   0.41280   0.06820   0.01267  Uiso   1.00
C5     C     0.65780   0.62560   0.17620   0.01267  Uiso   1.00
C6     C     0.63120   0.54880   0.09910   0.01267  Uiso   1.00
C7     C     0.97990   0.59780   0.05800   0.01267  Uiso   1.00
C8     C     0.40180   0.35200   0.11150   0.01267  Uiso   1.00
C9     C     0.03960   0.53500   0.93420   0.01267  Uiso   1.00
C10    C     0.79540   0.77740   0.21050   0.01267  Uiso   1.00
C11    C     0.25830   0.20720   0.07580   0.01267  Uiso   1.00
C12    C     0.02080   0.63380   0.99210   0.01267  Uiso   1.00
C13    C     0.00050   0.57340   0.31100   0.01267  Uiso   1.00
C14    C     0.99480   0.43760   0.27860   0.01267  Uiso   1.00
C15    C     0.26280   0.22380   0.51750   0.01267  Uiso   1.00
C16    C     0.09090   0.58720   0.43180   0.01267  Uiso   1.00
C17    C     0.03220   0.37440   0.32380   0.01267  Uiso   1.00
C18    C     0.08240   0.45120   0.40090   0.01267  Uiso   1.00
C19    C     0.38210   0.40220   0.44200   0.01267  Uiso   1.00
C20    C     0.04980   0.64800   0.38850   0.01267  Uiso   1.00
C21    C     0.50460   0.46500   0.56580   0.01267  Uiso   1.00
C22    C     0.01800   0.22260   0.28950   0.01267  Uiso   1.00
C23    C     0.05110   0.79280   0.42420   0.01267  Uiso   1.00
C24    C     0.38700   0.36620   0.50790   0.01267  Uiso   1.00
C25    C     0.57290   0.57340   0.81100   0.01267  Uiso   1.00
C26    C     0.44280   0.43760   0.77860   0.01267  Uiso   1.00
C27    C     0.96100   0.22380   0.01750   0.01267  Uiso   1.00
C28    C     0.49630   0.58720   0.93180   0.01267  Uiso   1.00
C29    C     0.34220   0.37440   0.82380   0.01267  Uiso   1.00
C30    C     0.36880   0.45120   0.90090   0.01267  Uiso   1.00
C31    C     0.02010   0.40220   0.94200   0.01267  Uiso   1.00
C32    C     0.59820   0.64800   0.88850   0.01267  Uiso   1.00
C33    C     0.96040   0.46500   0.06580   0.01267  Uiso   1.00
C34    C     0.20460   0.22260   0.78950   0.01267  Uiso   1.00
C35    C     0.74170   0.79280   0.92420   0.01267  Uiso   1.00
C36    C     0.97920   0.36620   0.00790   0.01267  Uiso   1.00
C37    C     0.99950   0.42660   0.68900   0.01267  Uiso   1.00
C38    C     0.00520   0.56240   0.72140   0.01267  Uiso   1.00
C39    C     0.73720   0.77620   0.48250   0.01267  Uiso   1.00
C40    C     0.90910   0.41280   0.56820   0.01267  Uiso   1.00
C41    C     0.96780   0.62560   0.67620   0.01267  Uiso   1.00
C42    C     0.91760   0.54880   0.59910   0.01267  Uiso   1.00
C43    C     0.61790   0.59780   0.55800   0.01267  Uiso   1.00
C44    C     0.95020   0.35200   0.61150   0.01267  Uiso   1.00
C45    C     0.49540   0.53500   0.43420   0.01267  Uiso   1.00
C46    C     0.98200   0.77740   0.71050   0.01267  Uiso   1.00
C47    C     0.94890   0.20720   0.57580   0.01267  Uiso   1.00
C48    C     0.61300   0.63380   0.49210   0.01267  Uiso   1.00
O1     O     0.24460   0.14600   0.00600   0.01267  Uiso   1.00
O2     O     0.08850   0.81060   0.92500   0.01267  Uiso   1.00
O3     O     0.00190   0.85060   0.03050   0.01267  Uiso   1.00
O4     O     0.81610   0.83700   0.28070   0.01267  Uiso   1.00
O5     O     0.16700   0.15940   0.11740   0.01267  Uiso   1.00
O6     O     0.87720   0.83260   0.16610   0.01267  Uiso   1.00
O7     O     0.09860   0.85400   0.49400   0.01267  Uiso   1.00
O8     O     0.27790   0.18940   0.57500   0.01267  Uiso   1.00
O9     O     0.15130   0.14940   0.46950   0.01267  Uiso   1.00
O10    O     0.97910   0.16300   0.21930   0.01267  Uiso   1.00
O11    O     0.00760   0.84060   0.38260   0.01267  Uiso   1.00
O12    O     0.04460   0.16740   0.33390   0.01267  Uiso   1.00
O13    O     0.75540   0.85400   0.99400   0.01267  Uiso   1.00
O14    O     0.91150   0.18940   0.07500   0.01267  Uiso   1.00
O15    O     0.99810   0.14940   0.96950   0.01267  Uiso   1.00
O16    O     0.18390   0.16300   0.71930   0.01267  Uiso   1.00
O17    O     0.83300   0.84060   0.88260   0.01267  Uiso   1.00
O18    O     0.12280   0.16740   0.83390   0.01267  Uiso   1.00
O19    O     0.90140   0.14600   0.50600   0.01267  Uiso   1.00
O20    O     0.72210   0.81060   0.42500   0.01267  Uiso   1.00
O21    O     0.84870   0.85060   0.53050   0.01267  Uiso   1.00
O22    O     0.02090   0.83700   0.78070   0.01267  Uiso   1.00
O23    O     0.99240   0.15940   0.61740   0.01267  Uiso   1.00
O24    O     0.95540   0.83260   0.66610   0.01267  Uiso   1.00
