data_image0
_cell_length_a       13.302
_cell_length_b       13.352
_cell_length_c       19.894
_cell_angle_alpha    95.63
_cell_angle_beta     104.8
_cell_angle_gamma    117.75

_symmetry_space_group_name_H-M    "P 1"
_symmetry_int_tables_number       1

loop_
  _symmetry_equiv_pos_as_xyz
  'x, y, z'

loop_
  _atom_site_label
  _atom_site_occupancy
  _atom_site_fract_x
  _atom_site_fract_y
  _atom_site_fract_z
  _atom_site_thermal_displace_type
  _atom_site_B_iso_or_equiv
  _atom_site_type_symbol
  Gd1      1.0000 0.66186  0.94605  0.59540  Biso   1.000  Gd
  Gd2      1.0000 0.81987  0.03774  0.90470  Biso   1.000  Gd
  Cu1      1.0000 0.77260  0.00226  0.24741  Biso   1.000  Cu
  Cu2      1.0000 0.74359  0.48346  0.75072  Biso   1.000  Cu
  Cl1      1.0000 0.93926  0.59707  0.74292  Biso   1.000  Cl
  P1       1.0000 0.86940  0.07330  0.49879  Biso   1.000  P
  P2       1.0000 0.63815  0.19729  0.54283  Biso   1.000  P
  Cl2      1.0000 0.64510  0.80416  0.24565  Biso   1.000  Cl
  P3       1.0000 0.87873  0.80311  0.94609  Biso   1.000  P
  P4       1.0000 0.46318  0.08922  0.25632  Biso   1.000  P
  P5       1.0000 0.05787  0.88314  0.24193  Biso   1.000  P
  P6       1.0000 0.61770  0.87050  0.99508  Biso   1.000  P
  P7       1.0000 0.61040  0.65315  0.57958  Biso   1.000  P
  P8       1.0000 0.89420  0.34176  0.93390  Biso   1.000  P
  O1       1.0000 0.00830  0.86690  0.99580  Biso   1.000  O
  O2       1.0000 0.51420  0.17070  0.50050  Biso   1.000  O
  O3       1.0000 0.15900  0.95140  0.31280  Biso   1.000  O
  O4       1.0000 0.66130  0.77910  0.61330  Biso   1.000  O
  O5       1.0000 0.43160  0.06070  0.32156  Biso   1.000  O
  O6       1.0000 0.83830  0.87510  0.90570  Biso   1.000  O
  O7       1.0000 0.08360  0.91960  0.17640  Biso   1.000  O
  O8       1.0000 0.82340  0.21030  0.90840  Biso   1.000  O
  O9       1.0000 0.71080  0.97480  0.97890  Biso   1.000  O
  O10      1.0000 0.54326  0.22420  0.26940  Biso   1.000  O
  O11      1.0000 0.60130  0.75390  0.96370  Biso   1.000  O
  O12      1.0000 0.64480  0.10100  0.57420  Biso   1.000  O
  O13      1.0000 0.77850  0.98140  0.52400  Biso   1.000  O
  O14      1.0000 0.01270  0.74900  0.23010  Biso   1.000  O
  O15      1.0000 0.36150  0.04349  0.18660  Biso   1.000  O
  O16      1.0000 0.71940  0.23430  0.49490  Biso   1.000  O
  O17      1.0000 0.64980  0.64430  0.51250  Biso   1.000  O
  O18      1.0000 0.99370  0.08410  0.52500  Biso   1.000  O
  O19      1.0000 0.79220  0.74060  0.98800  Biso   1.000  O
  O20      1.0000 0.47540  0.57460  0.55880  Biso   1.000  O
  O21      1.0000 0.86370  0.39130  0.99260  Biso   1.000  O
  O22      1.0000 0.49780  0.86780  0.97200  Biso   1.000  O
  N1       1.0000 0.64240  0.54500  0.69410  Biso   1.000  N
  O23      1.0000 0.88680  0.19400  0.51850  Biso   1.000  O
  N2       1.0000 0.63920  0.33440  0.66140  Biso   1.000  N
  N3       1.0000 0.74470  0.57810  0.84410  Biso   1.000  N
  N4       1.0000 0.75540  0.37230  0.81160  Biso   1.000  N
  O24      1.0000 0.03210  0.38580  0.95860  Biso   1.000  O
  C1       1.0000 0.67480  0.37180  0.85130  Biso   1.000  C
  H1       1.0000 0.59350  0.33930  0.81770  Biso   1.000  H
  H2       1.0000 0.67200  0.32290  0.88460  Biso   1.000  H
  N5       1.0000 0.68080  0.09510  0.24860  Biso   1.000  N
  C2       1.0000 0.87780  0.40890  0.85860  Biso   1.000  C
  H3       1.0000 0.92020  0.49290  0.87820  Biso   1.000  H
  H4       1.0000 0.91930  0.39400  0.82880  Biso   1.000  H
  C3       1.0000 0.55690  0.02410  0.24670  Biso   1.000  C
  H5       1.0000 0.51290  0.96490  0.20130  Biso   1.000  H
  H6       1.0000 0.55960  0.98330  0.28420  Biso   1.000  H
  C4       1.0000 0.52350  0.43370  0.66480  Biso   1.000  C
  H7       1.0000 0.46280  0.44760  0.63580  Biso   1.000  H
  H8       1.0000 0.49850  0.40490  0.70410  Biso   1.000  H
  N6       1.0000 0.92900  0.00210  0.24540  Biso   1.000  N
  C5       1.0000 0.92690  0.89090  0.24620  Biso   1.000  C
  H9       1.0000 0.91320  0.87020  0.28970  Biso   1.000  H
  H10      1.0000 0.85740  0.83100  0.20600  Biso   1.000  H
  C6       1.0000 0.80800  0.01530  0.40120  Biso   1.000  C
  H11      1.0000 0.80930  0.94340  0.39110  Biso   1.000  H
  H12      1.0000 0.72370  0.99390  0.38550  Biso   1.000  H
  C7       1.0000 0.86310  0.68860  0.87840  Biso   1.000  C
  H13      1.0000 0.92210  0.66760  0.90040  Biso   1.000  H
  H14      1.0000 0.88610  0.72320  0.84020  Biso   1.000  H
  C8       1.0000 0.53390  0.34280  0.61910  Biso   1.000  C
  H15      1.0000 0.54530  0.36520  0.57560  Biso   1.000  H
  H16      1.0000 0.46020  0.26730  0.60560  Biso   1.000  H
  C9       1.0000 0.71110  0.32830  0.61690  Biso   1.000  C
  H17      1.0000 0.73550  0.39590  0.59700  Biso   1.000  H
  H18      1.0000 0.78420  0.33510  0.64840  Biso   1.000  H
  C10      1.0000 0.59940  0.23590  0.69580  Biso   1.000  C
  H19      1.0000 0.53270  0.22820  0.71060  Biso   1.000  H
  H20      1.0000 0.57110  0.16370  0.66140  Biso   1.000  H
  C11      1.0000 0.70150  0.25540  0.76040  Biso   1.000  C
  H21      1.0000 0.76340  0.25180  0.74480  Biso   1.000  H
  H22      1.0000 0.67150  0.19390  0.78480  Biso   1.000  H
  N7       1.0000 0.74410  0.00500  0.14200  Biso   1.000  N
  C12      1.0000 0.64110  0.59470  0.81610  Biso   1.000  C
  H23      1.0000 0.64650  0.65450  0.85110  Biso   1.000  H
  H24      1.0000 0.56640  0.52240  0.80800  Biso   1.000  H
  N8       1.0000 0.86480  0.08810  0.35470  Biso   1.000  N
  C13      1.0000 0.72080  0.49600  0.89270  Biso   1.000  C
  H25      1.0000 0.66120  0.49630  0.91220  Biso   1.000  H
  H26      1.0000 0.79480  0.52280  0.93260  Biso   1.000  H
  C14      1.0000 0.63990  0.63120  0.74550  Biso   1.000  C
  H27      1.0000 0.56770  0.63520  0.72530  Biso   1.000  H
  H28      1.0000 0.70980  0.70820  0.75440  Biso   1.000  H
  C15      1.0000 0.68940  0.59690  0.63810  Biso   1.000  C
  H29      1.0000 0.69260  0.53780  0.60770  Biso   1.000  H
  H30      1.0000 0.77210  0.66050  0.66230  Biso   1.000  H
  C16      1.0000 0.66280  0.88760  0.09200  Biso   1.000  C
  H31      1.0000 0.58930  0.85200  0.10370  Biso   1.000  H
  H32      1.0000 0.70080  0.84160  0.10290  Biso   1.000  H
  C17      1.0000 0.02080  0.10050  0.29840  Biso   1.000  C
  H33      1.0000 0.02900  0.17010  0.28350  Biso   1.000  H
  H34      1.0000 0.09670  0.10220  0.30630  Biso   1.000  H
  C18      1.0000 0.69100  0.14500  0.18770  Biso   1.000  C
  H35      1.0000 0.76680  0.21900  0.20370  Biso   1.000  H
  H36      1.0000 0.62650  0.16200  0.17290  Biso   1.000  H
  C19      1.0000 0.99450  0.09910  0.36210  Biso   1.000  C
  H37      1.0000 0.05780  0.17040  0.39820  Biso   1.000  H
  H38      1.0000 0.99560  0.03390  0.37920  Biso   1.000  H
  C20      1.0000 0.92820  0.02200  0.16480  Biso   1.000  C
  H39      1.0000 0.89590  0.94700  0.13190  Biso   1.000  H
  H40      1.0000 0.01090  0.07180  0.16700  Biso   1.000  H
  C21      1.0000 0.86210  0.07120  0.13810  Biso   1.000  C
  H41      1.0000 0.85650  0.07170  0.08860  Biso   1.000  H
  H42      1.0000 0.90110  0.15140  0.16590  Biso   1.000  H
  C22      1.0000 0.75890  0.18650  0.32460  Biso   1.000  C
  C23      1.0000 0.68700  0.07940  0.12850  Biso   1.000  C
  H43      1.0000 0.72590  0.13200  0.10110  Biso   1.000  H
  H44      1.0000 0.60260  0.02810  0.09850  Biso   1.000  H
  C24      1.0000 0.86270  0.19350  0.35760  Biso   1.000  C
  H45      1.0000 0.88990  0.23310  0.40780  Biso   1.000  H
  H46      1.0000 0.92150  0.24310  0.33750  Biso   1.000  H
  Gd3      1.0000 0.33814  0.05395  0.40460  Biso   1.000  Gd
  Gd4      1.0000 0.18013  0.96226  0.09530  Biso   1.000  Gd
  Cu3      1.0000 0.22740  0.99774  0.75259  Biso   1.000  Cu
  Cu4      1.0000 0.25641  0.51654  0.24928  Biso   1.000  Cu
  Cl3      1.0000 0.06074  0.40293  0.25708  Biso   1.000  Cl
  P9       1.0000 0.13060  0.92670  0.50121  Biso   1.000  P
  P10      1.0000 0.36185  0.80271  0.45717  Biso   1.000  P
  Cl4      1.0000 0.35490  0.19584  0.75435  Biso   1.000  Cl
  P11      1.0000 0.12127  0.19689  0.05391  Biso   1.000  P
  P12      1.0000 0.53682  0.91078  0.74368  Biso   1.000  P
  P13      1.0000 0.94213  0.11686  0.75807  Biso   1.000  P
  P14      1.0000 0.38230  0.12950  0.00492  Biso   1.000  P
  P15      1.0000 0.38960  0.34685  0.42042  Biso   1.000  P
  P16      1.0000 0.10580  0.65824  0.06610  Biso   1.000  P
  O25      1.0000 0.99170  0.13310  0.00420  Biso   1.000  O
  O26      1.0000 0.48580  0.82930  0.49950  Biso   1.000  O
  O27      1.0000 0.84100  0.04860  0.68720  Biso   1.000  O
  O28      1.0000 0.33870  0.22090  0.38670  Biso   1.000  O
  O29      1.0000 0.56840  0.93930  0.67844  Biso   1.000  O
  O30      1.0000 0.16170  0.12490  0.09430  Biso   1.000  O
  O31      1.0000 0.91640  0.08040  0.82360  Biso   1.000  O
  O32      1.0000 0.17660  0.78970  0.09160  Biso   1.000  O
  O33      1.0000 0.28920  0.02520  0.02110  Biso   1.000  O
  O34      1.0000 0.45674  0.77580  0.73060  Biso   1.000  O
  O35      1.0000 0.39870  0.24610  0.03630  Biso   1.000  O
  O36      1.0000 0.35520  0.89900  0.42580  Biso   1.000  O
  O37      1.0000 0.22150  0.01860  0.47600  Biso   1.000  O
  O38      1.0000 0.98730  0.25100  0.76990  Biso   1.000  O
  O39      1.0000 0.63850  0.95651  0.81340  Biso   1.000  O
  O40      1.0000 0.28060  0.76570  0.50510  Biso   1.000  O
  O41      1.0000 0.35020  0.35570  0.48750  Biso   1.000  O
  O42      1.0000 0.00630  0.91590  0.47500  Biso   1.000  O
  O43      1.0000 0.20780  0.25940  0.01200  Biso   1.000  O
  O44      1.0000 0.52460  0.42540  0.44120  Biso   1.000  O
  O45      1.0000 0.13630  0.60870  0.00740  Biso   1.000  O
  O46      1.0000 0.50220  0.13220  0.02800  Biso   1.000  O
  N9       1.0000 0.35760  0.45500  0.30590  Biso   1.000  N
  O47      1.0000 0.11320  0.80600  0.48150  Biso   1.000  O
  N10      1.0000 0.36080  0.66560  0.33860  Biso   1.000  N
  N11      1.0000 0.25530  0.42190  0.15590  Biso   1.000  N
  N12      1.0000 0.24460  0.62770  0.18840  Biso   1.000  N
  O48      1.0000 0.96790  0.61420  0.04140  Biso   1.000  O
  C25      1.0000 0.32520  0.62820  0.14870  Biso   1.000  C
  H47      1.0000 0.40650  0.66070  0.18230  Biso   1.000  H
  H48      1.0000 0.32800  0.67710  0.11540  Biso   1.000  H
  N13      1.0000 0.31920  0.90490  0.75140  Biso   1.000  N
  C26      1.0000 0.12220  0.59110  0.14140  Biso   1.000  C
  H49      1.0000 0.07980  0.50710  0.12180  Biso   1.000  H
  H50      1.0000 0.08070  0.60600  0.17120  Biso   1.000  H
  C27      1.0000 0.44310  0.97590  0.75330  Biso   1.000  C
  H51      1.0000 0.48710  0.03510  0.79870  Biso   1.000  H
  H52      1.0000 0.44040  0.01670  0.71580  Biso   1.000  H
  C28      1.0000 0.47650  0.56630  0.33520  Biso   1.000  C
  H53      1.0000 0.53720  0.55240  0.36420  Biso   1.000  H
  H54      1.0000 0.50150  0.59510  0.29590  Biso   1.000  H
  N14      1.0000 0.07100  0.99790  0.75460  Biso   1.000  N
  C29      1.0000 0.07310  0.10910  0.75380  Biso   1.000  C
  H55      1.0000 0.08680  0.12980  0.71030  Biso   1.000  H
  H56      1.0000 0.14260  0.16900  0.79400  Biso   1.000  H
  C30      1.0000 0.19200  0.98470  0.59880  Biso   1.000  C
  H57      1.0000 0.19070  0.05660  0.60890  Biso   1.000  H
  H58      1.0000 0.27630  0.00610  0.61450  Biso   1.000  H
  C31      1.0000 0.13690  0.31140  0.12160  Biso   1.000  C
  H59      1.0000 0.07790  0.33240  0.09960  Biso   1.000  H
  H60      1.0000 0.11390  0.27680  0.15980  Biso   1.000  H
  C32      1.0000 0.46610  0.65720  0.38090  Biso   1.000  C
  H61      1.0000 0.45470  0.63480  0.42440  Biso   1.000  H
  H62      1.0000 0.53980  0.73270  0.39440  Biso   1.000  H
  C33      1.0000 0.28890  0.67170  0.38310  Biso   1.000  C
  H63      1.0000 0.26450  0.60410  0.40300  Biso   1.000  H
  H64      1.0000 0.21580  0.66490  0.35160  Biso   1.000  H
  C34      1.0000 0.40060  0.76410  0.30420  Biso   1.000  C
  H65      1.0000 0.46730  0.77180  0.28940  Biso   1.000  H
  H66      1.0000 0.42890  0.83630  0.33860  Biso   1.000  H
  C35      1.0000 0.29850  0.74460  0.23960  Biso   1.000  C
  H67      1.0000 0.23660  0.74820  0.25520  Biso   1.000  H
  H68      1.0000 0.32850  0.80610  0.21520  Biso   1.000  H
  N15      1.0000 0.25590  0.99500  0.85800  Biso   1.000  N
  C36      1.0000 0.35890  0.40530  0.18390  Biso   1.000  C
  H69      1.0000 0.35350  0.34550  0.14890  Biso   1.000  H
  H70      1.0000 0.43360  0.47760  0.19200  Biso   1.000  H
  N16      1.0000 0.13520  0.91190  0.64530  Biso   1.000  N
  C37      1.0000 0.27920  0.50400  0.10730  Biso   1.000  C
  H71      1.0000 0.33880  0.50370  0.08780  Biso   1.000  H
  H72      1.0000 0.20520  0.47720  0.06740  Biso   1.000  H
  C38      1.0000 0.36010  0.36880  0.25450  Biso   1.000  C
  H73      1.0000 0.43230  0.36480  0.27470  Biso   1.000  H
  H74      1.0000 0.29020  0.29180  0.24560  Biso   1.000  H
  C39      1.0000 0.31060  0.40310  0.36190  Biso   1.000  C
  H75      1.0000 0.30740  0.46220  0.39230  Biso   1.000  H
  H76      1.0000 0.22790  0.33950  0.33770  Biso   1.000  H
  C40      1.0000 0.33720  0.11240  0.90800  Biso   1.000  C
  H77      1.0000 0.41070  0.14800  0.89630  Biso   1.000  H
  H78      1.0000 0.29920  0.15840  0.89710  Biso   1.000  H
  C41      1.0000 0.97920  0.89950  0.70160  Biso   1.000  C
  H79      1.0000 0.97100  0.82990  0.71650  Biso   1.000  H
  H80      1.0000 0.90330  0.89780  0.69370  Biso   1.000  H
  C42      1.0000 0.30900  0.85500  0.81230  Biso   1.000  C
  H81      1.0000 0.23320  0.78100  0.79630  Biso   1.000  H
  H82      1.0000 0.37350  0.83800  0.82710  Biso   1.000  H
  C43      1.0000 0.00550  0.90090  0.63790  Biso   1.000  C
  H83      1.0000 0.94220  0.82960  0.60180  Biso   1.000  H
  H84      1.0000 0.00440  0.96610  0.62080  Biso   1.000  H
  C44      1.0000 0.07180  0.97800  0.83520  Biso   1.000  C
  H85      1.0000 0.10410  0.05300  0.86810  Biso   1.000  H
  H86      1.0000 0.98910  0.92820  0.83300  Biso   1.000  H
  C45      1.0000 0.13790  0.92880  0.86190  Biso   1.000  C
  H87      1.0000 0.14350  0.92830  0.91140  Biso   1.000  H
  H88      1.0000 0.09890  0.84860  0.83410  Biso   1.000  H
  C46      1.0000 0.24110  0.81350  0.67540  Biso   1.000  C
  C47      1.0000 0.31300  0.92060  0.87150  Biso   1.000  C
  H89      1.0000 0.27410  0.86800  0.89890  Biso   1.000  H
  H90      1.0000 0.39740  0.97190  0.90150  Biso   1.000  H
  C48      1.0000 0.13730  0.80650  0.64240  Biso   1.000  C
  H91      1.0000 0.11010  0.76690  0.59220  Biso   1.000  H
  H92      1.0000 0.07850  0.75690  0.66250  Biso   1.000  H
