data_DOGZIJ_clean
_audit_creation_date              2014-07-02
_audit_creation_method            'Materials Studio'
_symmetry_space_group_name_H-M    'P1'
_symmetry_Int_Tables_number       1
_symmetry_cell_setting            triclinic
loop_
_symmetry_equiv_pos_as_xyz
  x,y,z
_cell_length_a                    8.4730
_cell_length_b                    10.1540
_cell_length_c                    13.3970
_cell_angle_alpha                 68.2100
_cell_angle_beta                  78.6400
_cell_angle_gamma                 77.4600
loop_
_atom_site_label
_atom_site_type_symbol
_atom_site_fract_x
_atom_site_fract_y
_atom_site_fract_z
_atom_site_U_iso_or_equiv
_atom_site_adp_type
_atom_site_occupancy
Zn1    Zn    0.94337   0.43515   0.15822   0.01267  Uiso   1.00
Zn2    Zn    0.05663   0.56485   0.84178   0.01267  Uiso   1.00
H1     H     0.25520   0.25230   0.08250   0.01267  Uiso   1.00
H2     H     0.46150   0.22910   0.32370   0.01267  Uiso   1.00
H3     H     0.19300   0.37390   0.33060   0.01267  Uiso   1.00
H4     H     0.63880   0.18640   0.11450   0.01267  Uiso   1.00
H5     H     0.59800   0.05000   0.21090   0.01267  Uiso   1.00
H6     H     0.43310   0.91870   0.26960   0.01267  Uiso   1.00
H7     H     0.34450   0.81180   0.24980   0.01267  Uiso   1.00
H8     H     0.53250   0.77550   0.25620   0.01267  Uiso   1.00
H9     H     0.58630   0.32140   0.97300   0.01267  Uiso   1.00
H10    H     0.69230   0.28880   0.87240   0.01267  Uiso   1.00
H11    H     0.50650   0.35150   0.86900   0.01267  Uiso   1.00
H12    H     0.92360   0.04000   0.16330   0.01267  Uiso   1.00
H13    H     0.07040   0.18590   0.84280   0.01267  Uiso   1.00
H14    H     0.75230   0.53260   0.51890   0.01267  Uiso   1.00
H15    H     0.46580   0.45770   0.34890   0.01267  Uiso   1.00
H16    H     0.74480   0.74770   0.91750   0.01267  Uiso   1.00
H17    H     0.53850   0.77090   0.67630   0.01267  Uiso   1.00
H18    H     0.80700   0.62610   0.66940   0.01267  Uiso   1.00
H19    H     0.36120   0.81360   0.88550   0.01267  Uiso   1.00
H20    H     0.40200   0.95000   0.78910   0.01267  Uiso   1.00
H21    H     0.56690   0.08130   0.73040   0.01267  Uiso   1.00
H22    H     0.65550   0.18820   0.75020   0.01267  Uiso   1.00
H23    H     0.46750   0.22450   0.74380   0.01267  Uiso   1.00
H24    H     0.41370   0.67860   0.02700   0.01267  Uiso   1.00
H25    H     0.30770   0.71120   0.12760   0.01267  Uiso   1.00
H26    H     0.49350   0.64850   0.13100   0.01267  Uiso   1.00
H27    H     0.07640   0.96000   0.83670   0.01267  Uiso   1.00
H28    H     0.92960   0.81410   0.15720   0.01267  Uiso   1.00
H29    H     0.24770   0.46740   0.48110   0.01267  Uiso   1.00
H30    H     0.53420   0.54230   0.65110   0.01267  Uiso   1.00
C1     C     0.27350   0.26620   0.14380   0.01267  Uiso   1.00
C2     C     0.38720   0.25220   0.27480   0.01267  Uiso   1.00
C3     C     0.23850   0.33210   0.27820   0.01267  Uiso   1.00
C4     C     0.55660   0.12620   0.14960   0.01267  Uiso   1.00
C5     C     0.52300   0.06260   0.07105   0.01267  Uiso   1.00
C6     C     0.47590   0.92710   0.11222   0.01267  Uiso   1.00
C7     C     0.54560   0.13730   0.95960   0.01267  Uiso   1.00
C8     C     0.44350   0.85140   0.23290   0.01267  Uiso   1.00
C9     C     0.58650   0.28870   0.91430   0.01267  Uiso   1.00
C10    C     0.98650   0.28196   0.00754   0.01267  Uiso   1.00
C11    C     0.99390   0.13484   0.00404   0.01267  Uiso   1.00
C12    C     0.95370   0.02368   0.09773   0.01267  Uiso   1.00
C13    C     0.04180   0.11140   0.90555   0.01267  Uiso   1.00
C14    C     0.77220   0.48840   0.33344   0.01267  Uiso   1.00
C15    C     0.63150   0.49350   0.42035   0.01267  Uiso   1.00
C16    C     0.65090   0.51930   0.51100   0.01267  Uiso   1.00
C17    C     0.48010   0.47470   0.40989   0.01267  Uiso   1.00
C18    C     0.72650   0.73380   0.85620   0.01267  Uiso   1.00
C19    C     0.61280   0.74780   0.72520   0.01267  Uiso   1.00
C20    C     0.76150   0.66790   0.72180   0.01267  Uiso   1.00
C21    C     0.44340   0.87380   0.85040   0.01267  Uiso   1.00
C22    C     0.47700   0.93740   0.92895   0.01267  Uiso   1.00
C23    C     0.52410   0.07290   0.88778   0.01267  Uiso   1.00
C24    C     0.45440   0.86270   0.04040   0.01267  Uiso   1.00
C25    C     0.55650   0.14860   0.76710   0.01267  Uiso   1.00
C26    C     0.41350   0.71130   0.08570   0.01267  Uiso   1.00
C27    C     0.01350   0.71804   0.99246   0.01267  Uiso   1.00
C28    C     0.00610   0.86516   0.99596   0.01267  Uiso   1.00
C29    C     0.04630   0.97632   0.90227   0.01267  Uiso   1.00
C30    C     0.95820   0.88860   0.09445   0.01267  Uiso   1.00
C31    C     0.22780   0.51160   0.66656   0.01267  Uiso   1.00
C32    C     0.36850   0.50650   0.57965   0.01267  Uiso   1.00
C33    C     0.34910   0.48070   0.48900   0.01267  Uiso   1.00
C34    C     0.51990   0.52530   0.59011   0.01267  Uiso   1.00
N1     N     0.16570   0.34247   0.19489   0.01267  Uiso   1.00
N2     N     0.40830   0.21200   0.18763   0.01267  Uiso   1.00
N3     N     0.83430   0.65753   0.80511   0.01267  Uiso   1.00
N4     N     0.59170   0.78800   0.81237   0.01267  Uiso   1.00
O1     O     0.89713   0.31229   0.08565   0.01267  Uiso   1.00
O2     O     0.07341   0.36352   0.93383   0.01267  Uiso   1.00
O3     O     0.75545   0.42894   0.26784   0.01267  Uiso   1.00
O4     O     0.89600   0.53839   0.32694   0.01267  Uiso   1.00
O5     O     0.10287   0.68771   0.91435   0.01267  Uiso   1.00
O6     O     0.92659   0.63648   0.06617   0.01267  Uiso   1.00
O7     O     0.24455   0.57106   0.73216   0.01267  Uiso   1.00
O8     O     0.10400   0.46161   0.67306   0.01267  Uiso   1.00
