data_image0
_cell_length_a       10.586
_cell_length_b       28.043
_cell_length_c       17.448
_cell_angle_alpha    90
_cell_angle_beta     92.08
_cell_angle_gamma    90

_symmetry_space_group_name_H-M    "P 1"
_symmetry_int_tables_number       1

loop_
  _symmetry_equiv_pos_as_xyz
  'x, y, z'

loop_
  _atom_site_label
  _atom_site_occupancy
  _atom_site_fract_x
  _atom_site_fract_y
  _atom_site_fract_z
  _atom_site_thermal_displace_type
  _atom_site_B_iso_or_equiv
  _atom_site_type_symbol
  O1       1.0000 0.14900  0.38654  0.30560  Biso   1.000  O
  N1       1.0000 0.07890  0.45725  0.16890  Biso   1.000  N
  C1       1.0000 0.11120  0.35087  0.34390  Biso   1.000  C
  C2       1.0000 0.06250  0.44640  0.09550  Biso   1.000  C
  C3       1.0000 0.16220  0.49140  0.18670  Biso   1.000  C
  O2       1.0000 0.99700  0.34174  0.34850  Biso   1.000  O
  C4       1.0000 0.21060  0.32429  0.39100  Biso   1.000  C
  H1       1.0000 0.00060  0.42410  0.08180  Biso   1.000  H
  C5       1.0000 0.13210  0.46620  0.03790  Biso   1.000  C
  C6       1.0000 0.23490  0.51370  0.13300  Biso   1.000  C
  H2       1.0000 0.17210  0.50070  0.23770  Biso   1.000  H
  Zn1      1.0000 0.86147  0.28710  0.37077  Biso   1.000  Zn
  C7       1.0000 0.23240  0.33960  0.46570  Biso   1.000  C
  C8       1.0000 0.28100  0.28610  0.36270  Biso   1.000  C
  H3       1.0000 0.11840  0.45690  0.98720  Biso   1.000  H
  C9       1.0000 0.22230  0.50030  0.05720  Biso   1.000  C
  H4       1.0000 0.29170  0.53750  0.14800  Biso   1.000  H
  O3       1.0000 0.17310  0.28707  0.24250  Biso   1.000  O
  O4       1.0000 0.49590  0.26435  0.60710  Biso   1.000  O
  O5       1.0000 0.56180  0.22439  0.50820  Biso   1.000  O
  N2       1.0000 0.73160  0.66010  0.89990  Biso   1.000  N
  C10      1.0000 0.48890  0.25550  0.53720  Biso   1.000  C
  H5       1.0000 0.18590  0.36500  0.48430  Biso   1.000  H
  C11      1.0000 0.32310  0.31750  0.51320  Biso   1.000  C
  C12      1.0000 0.37260  0.26510  0.41070  Biso   1.000  C
  C13      1.0000 0.25930  0.26700  0.28300  Biso   1.000  C
  C14      1.0000 0.30560  0.51970  0.00010  Biso   1.000  C
  C15      1.0000 0.69040  0.65310  0.97040  Biso   1.000  C
  C16      1.0000 0.68050  0.63290  0.84390  Biso   1.000  C
  C17      1.0000 0.39340  0.28030  0.48580  Biso   1.000  C
  H6       1.0000 0.33640  0.32790  0.56350  Biso   1.000  H
  H7       1.0000 0.42110  0.24020  0.39210  Biso   1.000  H
  O6       1.0000 0.31990  0.23240  0.26290  Biso   1.000  O
  N3       1.0000 0.30830  0.50370  0.92780  Biso   1.000  N
  N4       1.0000 0.38990  0.55427  0.01310  Biso   1.000  N
  C18      1.0000 0.59900  0.62090  0.98720  Biso   1.000  C
  H8       1.0000 0.72600  0.67120  0.01020  Biso   1.000  H
  C19      1.0000 0.58830  0.60000  0.85660  Biso   1.000  C
  H9       1.0000 0.70870  0.63660  0.79430  Biso   1.000  H
  H10      1.0000 0.26140  0.48160  0.90790  Biso   1.000  H
  N5       1.0000 0.39930  0.52900  0.89110  Biso   1.000  N
  C20      1.0000 0.44470  0.55880  0.94490  Biso   1.000  C
  C21      1.0000 0.54490  0.59330  0.92950  Biso   1.000  C
  H11      1.0000 0.57340  0.61760  0.03730  Biso   1.000  H
  H12      1.0000 0.55480  0.58200  0.81600  Biso   1.000  H
  O7       1.0000 0.64900  0.88654  0.30560  Biso   1.000  O
  N6       1.0000 0.57890  0.95725  0.16890  Biso   1.000  N
  C22      1.0000 0.61120  0.85087  0.34390  Biso   1.000  C
  C23      1.0000 0.56250  0.94640  0.09550  Biso   1.000  C
  C24      1.0000 0.66220  0.99140  0.18670  Biso   1.000  C
  O8       1.0000 0.49700  0.84174  0.34850  Biso   1.000  O
  C25      1.0000 0.71060  0.82429  0.39100  Biso   1.000  C
  H13      1.0000 0.50060  0.92410  0.08180  Biso   1.000  H
  C26      1.0000 0.63210  0.96620  0.03790  Biso   1.000  C
  C27      1.0000 0.73490  0.01370  0.13300  Biso   1.000  C
  H14      1.0000 0.67210  0.00070  0.23770  Biso   1.000  H
  Zn2      1.0000 0.36147  0.78710  0.37077  Biso   1.000  Zn
  C28      1.0000 0.73240  0.83960  0.46570  Biso   1.000  C
  C29      1.0000 0.78100  0.78610  0.36270  Biso   1.000  C
  H15      1.0000 0.61840  0.95690  0.98720  Biso   1.000  H
  C30      1.0000 0.72230  0.00030  0.05720  Biso   1.000  C
  H16      1.0000 0.79170  0.03750  0.14800  Biso   1.000  H
  O9       1.0000 0.67310  0.78707  0.24250  Biso   1.000  O
  O10      1.0000 0.99590  0.76435  0.60710  Biso   1.000  O
  O11      1.0000 0.06180  0.72439  0.50820  Biso   1.000  O
  N7       1.0000 0.23160  0.16010  0.89990  Biso   1.000  N
  C31      1.0000 0.98890  0.75550  0.53720  Biso   1.000  C
  H17      1.0000 0.68590  0.86500  0.48430  Biso   1.000  H
  C32      1.0000 0.82310  0.81750  0.51320  Biso   1.000  C
  C33      1.0000 0.87260  0.76510  0.41070  Biso   1.000  C
  C34      1.0000 0.75930  0.76700  0.28300  Biso   1.000  C
  C35      1.0000 0.80560  0.01970  0.00010  Biso   1.000  C
  C36      1.0000 0.19040  0.15310  0.97040  Biso   1.000  C
  C37      1.0000 0.18050  0.13290  0.84390  Biso   1.000  C
  C38      1.0000 0.89340  0.78030  0.48580  Biso   1.000  C
  H18      1.0000 0.83640  0.82790  0.56350  Biso   1.000  H
  H19      1.0000 0.92110  0.74020  0.39210  Biso   1.000  H
  O12      1.0000 0.81990  0.73240  0.26290  Biso   1.000  O
  N8       1.0000 0.80830  0.00370  0.92780  Biso   1.000  N
  N9       1.0000 0.88990  0.05427  0.01310  Biso   1.000  N
  C39      1.0000 0.09900  0.12090  0.98720  Biso   1.000  C
  H20      1.0000 0.22600  0.17120  0.01020  Biso   1.000  H
  C40      1.0000 0.08830  0.10000  0.85660  Biso   1.000  C
  H21      1.0000 0.20870  0.13660  0.79430  Biso   1.000  H
  H22      1.0000 0.76140  0.98160  0.90790  Biso   1.000  H
  N10      1.0000 0.89930  0.02900  0.89110  Biso   1.000  N
  C41      1.0000 0.94470  0.05880  0.94490  Biso   1.000  C
  C42      1.0000 0.04490  0.09330  0.92950  Biso   1.000  C
  H23      1.0000 0.07340  0.11760  0.03730  Biso   1.000  H
  H24      1.0000 0.05480  0.08200  0.81600  Biso   1.000  H
  O13      1.0000 0.85100  0.38654  0.19440  Biso   1.000  O
  N11      1.0000 0.92110  0.45725  0.33110  Biso   1.000  N
  C43      1.0000 0.88880  0.35087  0.15610  Biso   1.000  C
  C44      1.0000 0.93750  0.44640  0.40450  Biso   1.000  C
  C45      1.0000 0.83780  0.49140  0.31330  Biso   1.000  C
  O14      1.0000 0.00300  0.34174  0.15150  Biso   1.000  O
  C46      1.0000 0.78940  0.32429  0.10900  Biso   1.000  C
  H25      1.0000 0.99940  0.42410  0.41820  Biso   1.000  H
  C47      1.0000 0.86790  0.46620  0.46210  Biso   1.000  C
  C48      1.0000 0.76510  0.51370  0.36700  Biso   1.000  C
  H26      1.0000 0.82790  0.50070  0.26230  Biso   1.000  H
  Zn3      1.0000 0.13853  0.28710  0.12923  Biso   1.000  Zn
  C49      1.0000 0.76760  0.33960  0.03430  Biso   1.000  C
  C50      1.0000 0.71900  0.28610  0.13730  Biso   1.000  C
  H27      1.0000 0.88160  0.45690  0.51280  Biso   1.000  H
  C51      1.0000 0.77770  0.50030  0.44280  Biso   1.000  C
  H28      1.0000 0.70830  0.53750  0.35200  Biso   1.000  H
  O15      1.0000 0.82690  0.28707  0.25750  Biso   1.000  O
  O16      1.0000 0.50410  0.26435  0.89290  Biso   1.000  O
  O17      1.0000 0.43820  0.22439  0.99180  Biso   1.000  O
  N12      1.0000 0.26840  0.66010  0.60010  Biso   1.000  N
  C52      1.0000 0.51110  0.25550  0.96280  Biso   1.000  C
  H29      1.0000 0.81410  0.36500  0.01570  Biso   1.000  H
  C53      1.0000 0.67690  0.31750  0.98680  Biso   1.000  C
  C54      1.0000 0.62740  0.26510  0.08930  Biso   1.000  C
  C55      1.0000 0.74070  0.26700  0.21700  Biso   1.000  C
  C56      1.0000 0.69440  0.51970  0.49990  Biso   1.000  C
  C57      1.0000 0.30960  0.65310  0.52960  Biso   1.000  C
  C58      1.0000 0.31950  0.63290  0.65610  Biso   1.000  C
  C59      1.0000 0.60660  0.28030  0.01420  Biso   1.000  C
  H30      1.0000 0.66360  0.32790  0.93650  Biso   1.000  H
  H31      1.0000 0.57890  0.24020  0.10790  Biso   1.000  H
  O18      1.0000 0.68010  0.23240  0.23710  Biso   1.000  O
  N13      1.0000 0.69170  0.50370  0.57220  Biso   1.000  N
  N14      1.0000 0.61010  0.55427  0.48690  Biso   1.000  N
  C60      1.0000 0.40100  0.62090  0.51280  Biso   1.000  C
  H32      1.0000 0.27400  0.67120  0.48980  Biso   1.000  H
  C61      1.0000 0.41170  0.60000  0.64340  Biso   1.000  C
  H33      1.0000 0.29130  0.63660  0.70570  Biso   1.000  H
  H34      1.0000 0.73860  0.48160  0.59210  Biso   1.000  H
  N15      1.0000 0.60070  0.52900  0.60890  Biso   1.000  N
  C62      1.0000 0.55530  0.55880  0.55510  Biso   1.000  C
  C63      1.0000 0.45510  0.59330  0.57050  Biso   1.000  C
  H35      1.0000 0.42660  0.61760  0.46270  Biso   1.000  H
  H36      1.0000 0.44520  0.58200  0.68400  Biso   1.000  H
  O19      1.0000 0.35100  0.88654  0.19440  Biso   1.000  O
  N16      1.0000 0.42110  0.95725  0.33110  Biso   1.000  N
  C64      1.0000 0.38880  0.85087  0.15610  Biso   1.000  C
  C65      1.0000 0.43750  0.94640  0.40450  Biso   1.000  C
  C66      1.0000 0.33780  0.99140  0.31330  Biso   1.000  C
  O20      1.0000 0.50300  0.84174  0.15150  Biso   1.000  O
  C67      1.0000 0.28940  0.82429  0.10900  Biso   1.000  C
  H37      1.0000 0.49940  0.92410  0.41820  Biso   1.000  H
  C68      1.0000 0.36790  0.96620  0.46210  Biso   1.000  C
  C69      1.0000 0.26510  0.01370  0.36700  Biso   1.000  C
  H38      1.0000 0.32790  0.00070  0.26230  Biso   1.000  H
  Zn4      1.0000 0.63853  0.78710  0.12923  Biso   1.000  Zn
  C70      1.0000 0.26760  0.83960  0.03430  Biso   1.000  C
  C71      1.0000 0.21900  0.78610  0.13730  Biso   1.000  C
  H39      1.0000 0.38160  0.95690  0.51280  Biso   1.000  H
  C72      1.0000 0.27770  0.00030  0.44280  Biso   1.000  C
  H40      1.0000 0.20830  0.03750  0.35200  Biso   1.000  H
  O21      1.0000 0.32690  0.78707  0.25750  Biso   1.000  O
  O22      1.0000 0.00410  0.76435  0.89290  Biso   1.000  O
  O23      1.0000 0.93820  0.72439  0.99180  Biso   1.000  O
  N17      1.0000 0.76840  0.16010  0.60010  Biso   1.000  N
  C73      1.0000 0.01110  0.75550  0.96280  Biso   1.000  C
  H41      1.0000 0.31410  0.86500  0.01570  Biso   1.000  H
  C74      1.0000 0.17690  0.81750  0.98680  Biso   1.000  C
  C75      1.0000 0.12740  0.76510  0.08930  Biso   1.000  C
  C76      1.0000 0.24070  0.76700  0.21700  Biso   1.000  C
  C77      1.0000 0.19440  0.01970  0.49990  Biso   1.000  C
  C78      1.0000 0.80960  0.15310  0.52960  Biso   1.000  C
  C79      1.0000 0.81950  0.13290  0.65610  Biso   1.000  C
  C80      1.0000 0.10660  0.78030  0.01420  Biso   1.000  C
  H42      1.0000 0.16360  0.82790  0.93650  Biso   1.000  H
  H43      1.0000 0.07890  0.74020  0.10790  Biso   1.000  H
  O24      1.0000 0.18010  0.73240  0.23710  Biso   1.000  O
  N18      1.0000 0.19170  0.00370  0.57220  Biso   1.000  N
  N19      1.0000 0.11010  0.05427  0.48690  Biso   1.000  N
  C81      1.0000 0.90100  0.12090  0.51280  Biso   1.000  C
  H44      1.0000 0.77400  0.17120  0.48980  Biso   1.000  H
  C82      1.0000 0.91170  0.10000  0.64340  Biso   1.000  C
  H45      1.0000 0.79130  0.13660  0.70570  Biso   1.000  H
  H46      1.0000 0.23860  0.98160  0.59210  Biso   1.000  H
  N20      1.0000 0.10070  0.02900  0.60890  Biso   1.000  N
  C83      1.0000 0.05530  0.05880  0.55510  Biso   1.000  C
  C84      1.0000 0.95510  0.09330  0.57050  Biso   1.000  C
  H47      1.0000 0.92660  0.11760  0.46270  Biso   1.000  H
  H48      1.0000 0.94520  0.08200  0.68400  Biso   1.000  H
  O25      1.0000 0.85100  0.61346  0.69440  Biso   1.000  O
  N21      1.0000 0.92110  0.54275  0.83110  Biso   1.000  N
  C85      1.0000 0.88880  0.64913  0.65610  Biso   1.000  C
  C86      1.0000 0.93750  0.55360  0.90450  Biso   1.000  C
  C87      1.0000 0.83780  0.50860  0.81330  Biso   1.000  C
  O26      1.0000 0.00300  0.65826  0.65150  Biso   1.000  O
  C88      1.0000 0.78940  0.67571  0.60900  Biso   1.000  C
  H49      1.0000 0.99940  0.57590  0.91820  Biso   1.000  H
  C89      1.0000 0.86790  0.53380  0.96210  Biso   1.000  C
  C90      1.0000 0.76510  0.48630  0.86700  Biso   1.000  C
  H50      1.0000 0.82790  0.49930  0.76230  Biso   1.000  H
  Zn5      1.0000 0.13853  0.71290  0.62923  Biso   1.000  Zn
  C91      1.0000 0.76760  0.66040  0.53430  Biso   1.000  C
  C92      1.0000 0.71900  0.71390  0.63730  Biso   1.000  C
  H51      1.0000 0.88160  0.54310  0.01280  Biso   1.000  H
  C93      1.0000 0.77770  0.49970  0.94280  Biso   1.000  C
  H52      1.0000 0.70830  0.46250  0.85200  Biso   1.000  H
  O27      1.0000 0.82690  0.71293  0.75750  Biso   1.000  O
  O28      1.0000 0.50410  0.73565  0.39290  Biso   1.000  O
  O29      1.0000 0.43820  0.77561  0.49180  Biso   1.000  O
  N22      1.0000 0.26840  0.33990  0.10010  Biso   1.000  N
  C94      1.0000 0.51110  0.74450  0.46280  Biso   1.000  C
  H53      1.0000 0.81410  0.63500  0.51570  Biso   1.000  H
  C95      1.0000 0.67690  0.68250  0.48680  Biso   1.000  C
  C96      1.0000 0.62740  0.73490  0.58930  Biso   1.000  C
  C97      1.0000 0.74070  0.73300  0.71700  Biso   1.000  C
  C98      1.0000 0.69440  0.48030  0.99990  Biso   1.000  C
  C99      1.0000 0.30960  0.34690  0.02960  Biso   1.000  C
  C100     1.0000 0.31950  0.36710  0.15610  Biso   1.000  C
  C101     1.0000 0.60660  0.71970  0.51420  Biso   1.000  C
  H54      1.0000 0.66360  0.67210  0.43650  Biso   1.000  H
  H55      1.0000 0.57890  0.75980  0.60790  Biso   1.000  H
  O30      1.0000 0.68010  0.76760  0.73710  Biso   1.000  O
  N23      1.0000 0.69170  0.49630  0.07220  Biso   1.000  N
  N24      1.0000 0.61010  0.44573  0.98690  Biso   1.000  N
  C102     1.0000 0.40100  0.37910  0.01280  Biso   1.000  C
  H56      1.0000 0.27400  0.32880  0.98980  Biso   1.000  H
  C103     1.0000 0.41170  0.40000  0.14340  Biso   1.000  C
  H57      1.0000 0.29130  0.36340  0.20570  Biso   1.000  H
  H58      1.0000 0.73860  0.51840  0.09210  Biso   1.000  H
  N25      1.0000 0.60070  0.47100  0.10890  Biso   1.000  N
  C104     1.0000 0.55530  0.44120  0.05510  Biso   1.000  C
  C105     1.0000 0.45510  0.40670  0.07050  Biso   1.000  C
  H59      1.0000 0.42660  0.38240  0.96270  Biso   1.000  H
  H60      1.0000 0.44520  0.41800  0.18400  Biso   1.000  H
  O31      1.0000 0.35100  0.11346  0.69440  Biso   1.000  O
  N26      1.0000 0.42110  0.04275  0.83110  Biso   1.000  N
  C106     1.0000 0.38880  0.14913  0.65610  Biso   1.000  C
  C107     1.0000 0.43750  0.05360  0.90450  Biso   1.000  C
  C108     1.0000 0.33780  0.00860  0.81330  Biso   1.000  C
  O32      1.0000 0.50300  0.15826  0.65150  Biso   1.000  O
  C109     1.0000 0.28940  0.17571  0.60900  Biso   1.000  C
  H61      1.0000 0.49940  0.07590  0.91820  Biso   1.000  H
  C110     1.0000 0.36790  0.03380  0.96210  Biso   1.000  C
  C111     1.0000 0.26510  0.98630  0.86700  Biso   1.000  C
  H62      1.0000 0.32790  0.99930  0.76230  Biso   1.000  H
  Zn6      1.0000 0.63853  0.21290  0.62923  Biso   1.000  Zn
  C112     1.0000 0.26760  0.16040  0.53430  Biso   1.000  C
  C113     1.0000 0.21900  0.21390  0.63730  Biso   1.000  C
  H63      1.0000 0.38160  0.04310  0.01280  Biso   1.000  H
  C114     1.0000 0.27770  0.99970  0.94280  Biso   1.000  C
  H64      1.0000 0.20830  0.96250  0.85200  Biso   1.000  H
  O33      1.0000 0.32690  0.21293  0.75750  Biso   1.000  O
  O34      1.0000 0.00410  0.23565  0.39290  Biso   1.000  O
  O35      1.0000 0.93820  0.27561  0.49180  Biso   1.000  O
  N27      1.0000 0.76840  0.83990  0.10010  Biso   1.000  N
  C115     1.0000 0.01110  0.24450  0.46280  Biso   1.000  C
  H65      1.0000 0.31410  0.13500  0.51570  Biso   1.000  H
  C116     1.0000 0.17690  0.18250  0.48680  Biso   1.000  C
  C117     1.0000 0.12740  0.23490  0.58930  Biso   1.000  C
  C118     1.0000 0.24070  0.23300  0.71700  Biso   1.000  C
  C119     1.0000 0.19440  0.98030  0.99990  Biso   1.000  C
  C120     1.0000 0.80960  0.84690  0.02960  Biso   1.000  C
  C121     1.0000 0.81950  0.86710  0.15610  Biso   1.000  C
  C122     1.0000 0.10660  0.21970  0.51420  Biso   1.000  C
  H66      1.0000 0.16360  0.17210  0.43650  Biso   1.000  H
  H67      1.0000 0.07890  0.25980  0.60790  Biso   1.000  H
  O36      1.0000 0.18010  0.26760  0.73710  Biso   1.000  O
  N28      1.0000 0.19170  0.99630  0.07220  Biso   1.000  N
  N29      1.0000 0.11010  0.94573  0.98690  Biso   1.000  N
  C123     1.0000 0.90100  0.87910  0.01280  Biso   1.000  C
  H68      1.0000 0.77400  0.82880  0.98980  Biso   1.000  H
  C124     1.0000 0.91170  0.90000  0.14340  Biso   1.000  C
  H69      1.0000 0.79130  0.86340  0.20570  Biso   1.000  H
  H70      1.0000 0.23860  0.01840  0.09210  Biso   1.000  H
  N30      1.0000 0.10070  0.97100  0.10890  Biso   1.000  N
  C125     1.0000 0.05530  0.94120  0.05510  Biso   1.000  C
  C126     1.0000 0.95510  0.90670  0.07050  Biso   1.000  C
  H71      1.0000 0.92660  0.88240  0.96270  Biso   1.000  H
  H72      1.0000 0.94520  0.91800  0.18400  Biso   1.000  H
  O37      1.0000 0.14900  0.61346  0.80560  Biso   1.000  O
  N31      1.0000 0.07890  0.54275  0.66890  Biso   1.000  N
  C127     1.0000 0.11120  0.64913  0.84390  Biso   1.000  C
  C128     1.0000 0.06250  0.55360  0.59550  Biso   1.000  C
  C129     1.0000 0.16220  0.50860  0.68670  Biso   1.000  C
  O38      1.0000 0.99700  0.65826  0.84850  Biso   1.000  O
  C130     1.0000 0.21060  0.67571  0.89100  Biso   1.000  C
  H73      1.0000 0.00060  0.57590  0.58180  Biso   1.000  H
  C131     1.0000 0.13210  0.53380  0.53790  Biso   1.000  C
  C132     1.0000 0.23490  0.48630  0.63300  Biso   1.000  C
  H74      1.0000 0.17210  0.49930  0.73770  Biso   1.000  H
  Zn7      1.0000 0.86147  0.71290  0.87077  Biso   1.000  Zn
  C133     1.0000 0.23240  0.66040  0.96570  Biso   1.000  C
  C134     1.0000 0.28100  0.71390  0.86270  Biso   1.000  C
  H75      1.0000 0.11840  0.54310  0.48720  Biso   1.000  H
  C135     1.0000 0.22230  0.49970  0.55720  Biso   1.000  C
  H76      1.0000 0.29170  0.46250  0.64800  Biso   1.000  H
  O39      1.0000 0.17310  0.71293  0.74250  Biso   1.000  O
  O40      1.0000 0.49590  0.73565  0.10710  Biso   1.000  O
  O41      1.0000 0.56180  0.77561  0.00820  Biso   1.000  O
  N32      1.0000 0.73160  0.33990  0.39990  Biso   1.000  N
  C136     1.0000 0.48890  0.74450  0.03720  Biso   1.000  C
  H77      1.0000 0.18590  0.63500  0.98430  Biso   1.000  H
  C137     1.0000 0.32310  0.68250  0.01320  Biso   1.000  C
  C138     1.0000 0.37260  0.73490  0.91070  Biso   1.000  C
  C139     1.0000 0.25930  0.73300  0.78300  Biso   1.000  C
  C140     1.0000 0.30560  0.48030  0.50010  Biso   1.000  C
  C141     1.0000 0.69040  0.34690  0.47040  Biso   1.000  C
  C142     1.0000 0.68050  0.36710  0.34390  Biso   1.000  C
  C143     1.0000 0.39340  0.71970  0.98580  Biso   1.000  C
  H78      1.0000 0.33640  0.67210  0.06350  Biso   1.000  H
  H79      1.0000 0.42110  0.75980  0.89210  Biso   1.000  H
  O42      1.0000 0.31990  0.76760  0.76290  Biso   1.000  O
  N33      1.0000 0.30830  0.49630  0.42780  Biso   1.000  N
  N34      1.0000 0.38990  0.44573  0.51310  Biso   1.000  N
  C144     1.0000 0.59900  0.37910  0.48720  Biso   1.000  C
  H80      1.0000 0.72600  0.32880  0.51020  Biso   1.000  H
  C145     1.0000 0.58830  0.40000  0.35660  Biso   1.000  C
  H81      1.0000 0.70870  0.36340  0.29430  Biso   1.000  H
  H82      1.0000 0.26140  0.51840  0.40790  Biso   1.000  H
  N35      1.0000 0.39930  0.47100  0.39110  Biso   1.000  N
  C146     1.0000 0.44470  0.44120  0.44490  Biso   1.000  C
  C147     1.0000 0.54490  0.40670  0.42950  Biso   1.000  C
  H83      1.0000 0.57340  0.38240  0.53730  Biso   1.000  H
  H84      1.0000 0.55480  0.41800  0.31600  Biso   1.000  H
  O43      1.0000 0.64900  0.11346  0.80560  Biso   1.000  O
  N36      1.0000 0.57890  0.04275  0.66890  Biso   1.000  N
  C148     1.0000 0.61120  0.14913  0.84390  Biso   1.000  C
  C149     1.0000 0.56250  0.05360  0.59550  Biso   1.000  C
  C150     1.0000 0.66220  0.00860  0.68670  Biso   1.000  C
  O44      1.0000 0.49700  0.15826  0.84850  Biso   1.000  O
  C151     1.0000 0.71060  0.17571  0.89100  Biso   1.000  C
  H85      1.0000 0.50060  0.07590  0.58180  Biso   1.000  H
  C152     1.0000 0.63210  0.03380  0.53790  Biso   1.000  C
  C153     1.0000 0.73490  0.98630  0.63300  Biso   1.000  C
  H86      1.0000 0.67210  0.99930  0.73770  Biso   1.000  H
  Zn8      1.0000 0.36147  0.21290  0.87077  Biso   1.000  Zn
  C154     1.0000 0.73240  0.16040  0.96570  Biso   1.000  C
  C155     1.0000 0.78100  0.21390  0.86270  Biso   1.000  C
  H87      1.0000 0.61840  0.04310  0.48720  Biso   1.000  H
  C156     1.0000 0.72230  0.99970  0.55720  Biso   1.000  C
  H88      1.0000 0.79170  0.96250  0.64800  Biso   1.000  H
  O45      1.0000 0.67310  0.21293  0.74250  Biso   1.000  O
  O46      1.0000 0.99590  0.23565  0.10710  Biso   1.000  O
  O47      1.0000 0.06180  0.27561  0.00820  Biso   1.000  O
  N37      1.0000 0.23160  0.83990  0.39990  Biso   1.000  N
  C157     1.0000 0.98890  0.24450  0.03720  Biso   1.000  C
  H89      1.0000 0.68590  0.13500  0.98430  Biso   1.000  H
  C158     1.0000 0.82310  0.18250  0.01320  Biso   1.000  C
  C159     1.0000 0.87260  0.23490  0.91070  Biso   1.000  C
  C160     1.0000 0.75930  0.23300  0.78300  Biso   1.000  C
  C161     1.0000 0.80560  0.98030  0.50010  Biso   1.000  C
  C162     1.0000 0.19040  0.84690  0.47040  Biso   1.000  C
  C163     1.0000 0.18050  0.86710  0.34390  Biso   1.000  C
  C164     1.0000 0.89340  0.21970  0.98580  Biso   1.000  C
  H90      1.0000 0.83640  0.17210  0.06350  Biso   1.000  H
  H91      1.0000 0.92110  0.25980  0.89210  Biso   1.000  H
  O48      1.0000 0.81990  0.26760  0.76290  Biso   1.000  O
  N38      1.0000 0.80830  0.99630  0.42780  Biso   1.000  N
  N39      1.0000 0.88990  0.94573  0.51310  Biso   1.000  N
  C165     1.0000 0.09900  0.87910  0.48720  Biso   1.000  C
  H92      1.0000 0.22600  0.82880  0.51020  Biso   1.000  H
  C166     1.0000 0.08830  0.90000  0.35660  Biso   1.000  C
  H93      1.0000 0.20870  0.86340  0.29430  Biso   1.000  H
  H94      1.0000 0.76140  0.01840  0.40790  Biso   1.000  H
  N40      1.0000 0.89930  0.97100  0.39110  Biso   1.000  N
  C167     1.0000 0.94470  0.94120  0.44490  Biso   1.000  C
  C168     1.0000 0.04490  0.90670  0.42950  Biso   1.000  C
  H95      1.0000 0.07340  0.88240  0.53730  Biso   1.000  H
  H96      1.0000 0.05480  0.91800  0.31600  Biso   1.000  H
  Zn9      1.0000 0.00000  0.41412  0.25000  Biso   1.000  Zn
  Zn10     1.0000 0.50000  0.91412  0.25000  Biso   1.000  Zn
  Zn11     1.0000 0.00000  0.58588  0.75000  Biso   1.000  Zn
  Zn12     1.0000 0.50000  0.08588  0.75000  Biso   1.000  Zn
