data_image0
_cell_length_a       22.6655
_cell_length_b       18.8656
_cell_length_c       24.6036
_cell_angle_alpha    90
_cell_angle_beta     107.228
_cell_angle_gamma    90

_symmetry_space_group_name_H-M    "P 1"
_symmetry_int_tables_number       1

loop_
  _symmetry_equiv_pos_as_xyz
  'x, y, z'

loop_
  _atom_site_label
  _atom_site_occupancy
  _atom_site_fract_x
  _atom_site_fract_y
  _atom_site_fract_z
  _atom_site_thermal_displace_type
  _atom_site_B_iso_or_equiv
  _atom_site_type_symbol
  Ag1      1.0000 0.23663  0.59538  0.94711  Biso   1.000  Ag
  Ag2      1.0000 0.06788  0.07225  0.52235  Biso   1.000  Ag
  Ag3      1.0000 0.83410  0.72747  0.48353  Biso   1.000  Ag
  Cl1      1.0000 0.31020  0.67396  0.03140  Biso   1.000  Cl
  C1       1.0000 0.23010  0.58980  0.82340  Biso   1.000  C
  H1       1.0000 0.23460  0.54220  0.83360  Biso   1.000  H
  C2       1.0000 0.22390  0.60790  0.76820  Biso   1.000  C
  H2       1.0000 0.22380  0.57330  0.74130  Biso   1.000  H
  C3       1.0000 0.21760  0.67930  0.75280  Biso   1.000  C
  C4       1.0000 0.21870  0.72930  0.79410  Biso   1.000  C
  H3       1.0000 0.21600  0.77750  0.78550  Biso   1.000  H
  C5       1.0000 0.22400  0.70570  0.84870  Biso   1.000  C
  H4       1.0000 0.22320  0.73920  0.87620  Biso   1.000  H
  C6       1.0000 0.19410  0.55760  0.47240  Biso   1.000  C
  H5       1.0000 0.18050  0.56280  0.43300  Biso   1.000  H
  C7       1.0000 0.18390  0.61320  0.50590  Biso   1.000  C
  H6       1.0000 0.16200  0.65320  0.48920  Biso   1.000  H
  C8       1.0000 0.20690  0.60750  0.56390  Biso   1.000  C
  C9       1.0000 0.23710  0.54600  0.58710  Biso   1.000  C
  H7       1.0000 0.25200  0.54040  0.62640  Biso   1.000  H
  C10      1.0000 0.24480  0.49310  0.55130  Biso   1.000  C
  H8       1.0000 0.26640  0.45260  0.56730  Biso   1.000  H
  C11      1.0000 0.13860  0.96960  0.61390  Biso   1.000  C
  H9       1.0000 0.13360  0.00510  0.63840  Biso   1.000  H
  C12      1.0000 0.16170  0.90590  0.63690  Biso   1.000  C
  H10      1.0000 0.17250  0.89870  0.67610  Biso   1.000  H
  C13      1.0000 0.16850  0.85240  0.60100  Biso   1.000  C
  C14      1.0000 0.15450  0.86730  0.54250  Biso   1.000  C
  H11      1.0000 0.16000  0.83310  0.51710  Biso   1.000  H
  C15      1.0000 0.13250  0.93390  0.52370  Biso   1.000  C
  H12      1.0000 0.12400  0.94440  0.48520  Biso   1.000  H
  C16      1.0000 0.20940  0.69880  0.69300  Biso   1.000  C
  C17      1.0000 0.20210  0.66470  0.60360  Biso   1.000  C
  C18      1.0000 0.18620  0.77780  0.62140  Biso   1.000  C
  C19      1.0000 0.00230  0.15620  0.41830  Biso   1.000  C
  H13      1.0000 0.01060  0.11570  0.40030  Biso   1.000  H
  C20      1.0000 0.98060  0.21480  0.38680  Biso   1.000  C
  H14      1.0000 0.97510  0.21440  0.34780  Biso   1.000  H
  C21      1.0000 0.96670  0.27430  0.41180  Biso   1.000  C
  C22      1.0000 0.97240  0.27280  0.46990  Biso   1.000  C
  H15      1.0000 0.96100  0.31150  0.48790  Biso   1.000  H
  C23      1.0000 0.99550  0.21170  0.49960  Biso   1.000  C
  H16      1.0000 0.99960  0.20990  0.53830  Biso   1.000  H
  C24      1.0000 0.92030  0.44970  0.14480  Biso   1.000  C
  H17      1.0000 0.92240  0.49090  0.12480  Biso   1.000  H
  C25      1.0000 0.92320  0.45580  0.20130  Biso   1.000  C
  H18      1.0000 0.92530  0.49980  0.21870  Biso   1.000  H
  C26      1.0000 0.92270  0.39320  0.23150  Biso   1.000  C
  C27      1.0000 0.92000  0.33030  0.20520  Biso   1.000  C
  H19      1.0000 0.92150  0.28830  0.22530  Biso   1.000  H
  C28      1.0000 0.91480  0.32920  0.14750  Biso   1.000  C
  H20      1.0000 0.91140  0.28550  0.12940  Biso   1.000  H
  C29      1.0000 0.89800  0.58660  0.47860  Biso   1.000  C
  H21      1.0000 0.91090  0.59280  0.51790  Biso   1.000  H
  C30      1.0000 0.91660  0.52660  0.45560  Biso   1.000  C
  H22      1.0000 0.94100  0.49270  0.47940  Biso   1.000  H
  C31      1.0000 0.89880  0.51700  0.39710  Biso   1.000  C
  C32      1.0000 0.86130  0.56920  0.36330  Biso   1.000  C
  H23      1.0000 0.84780  0.56460  0.32390  Biso   1.000  H
  C33      1.0000 0.84480  0.62770  0.38960  Biso   1.000  C
  H24      1.0000 0.82070  0.66270  0.36700  Biso   1.000  H
  C34      1.0000 0.94560  0.34010  0.37790  Biso   1.000  C
  C35      1.0000 0.92520  0.39600  0.29440  Biso   1.000  C
  C36      1.0000 0.91660  0.45390  0.37070  Biso   1.000  C
  N1       1.0000 0.23010  0.63860  0.86380  Biso   1.000  N
  N2       1.0000 0.22250  0.49720  0.49400  Biso   1.000  N
  N3       1.0000 0.12310  0.98400  0.55900  Biso   1.000  N
  N4       1.0000 0.19810  0.76680  0.67750  Biso   1.000  N
  N5       1.0000 0.21120  0.64620  0.65720  Biso   1.000  N
  N6       1.0000 0.18730  0.73000  0.58240  Biso   1.000  N
  N7       1.0000 0.01210  0.15520  0.47520  Biso   1.000  N
  N8       1.0000 0.91460  0.38730  0.11700  Biso   1.000  N
  N9       1.0000 0.86200  0.63590  0.44590  Biso   1.000  N
  N10      1.0000 0.93510  0.39820  0.40450  Biso   1.000  N
  N11      1.0000 0.93960  0.33500  0.32220  Biso   1.000  N
  N12      1.0000 0.91230  0.45650  0.31540  Biso   1.000  N
  Ag4      1.0000 0.73663  0.09538  0.94711  Biso   1.000  Ag
  Ag5      1.0000 0.56788  0.57225  0.52235  Biso   1.000  Ag
  Ag6      1.0000 0.33410  0.22747  0.48353  Biso   1.000  Ag
  Cl2      1.0000 0.81020  0.17396  0.03140  Biso   1.000  Cl
  C37      1.0000 0.73010  0.08980  0.82340  Biso   1.000  C
  H25      1.0000 0.73460  0.04220  0.83360  Biso   1.000  H
  C38      1.0000 0.72390  0.10790  0.76820  Biso   1.000  C
  H26      1.0000 0.72380  0.07330  0.74130  Biso   1.000  H
  C39      1.0000 0.71760  0.17930  0.75280  Biso   1.000  C
  C40      1.0000 0.71870  0.22930  0.79410  Biso   1.000  C
  H27      1.0000 0.71600  0.27750  0.78550  Biso   1.000  H
  C41      1.0000 0.72400  0.20570  0.84870  Biso   1.000  C
  H28      1.0000 0.72320  0.23920  0.87620  Biso   1.000  H
  C42      1.0000 0.69410  0.05760  0.47240  Biso   1.000  C
  H29      1.0000 0.68050  0.06280  0.43300  Biso   1.000  H
  C43      1.0000 0.68390  0.11320  0.50590  Biso   1.000  C
  H30      1.0000 0.66200  0.15320  0.48920  Biso   1.000  H
  C44      1.0000 0.70690  0.10750  0.56390  Biso   1.000  C
  C45      1.0000 0.73710  0.04600  0.58710  Biso   1.000  C
  H31      1.0000 0.75200  0.04040  0.62640  Biso   1.000  H
  C46      1.0000 0.74480  0.99310  0.55130  Biso   1.000  C
  H32      1.0000 0.76640  0.95260  0.56730  Biso   1.000  H
  C47      1.0000 0.63860  0.46960  0.61390  Biso   1.000  C
  H33      1.0000 0.63360  0.50510  0.63840  Biso   1.000  H
  C48      1.0000 0.66170  0.40590  0.63690  Biso   1.000  C
  H34      1.0000 0.67250  0.39870  0.67610  Biso   1.000  H
  C49      1.0000 0.66850  0.35240  0.60100  Biso   1.000  C
  C50      1.0000 0.65450  0.36730  0.54250  Biso   1.000  C
  H35      1.0000 0.66000  0.33310  0.51710  Biso   1.000  H
  C51      1.0000 0.63250  0.43390  0.52370  Biso   1.000  C
  H36      1.0000 0.62400  0.44440  0.48520  Biso   1.000  H
  C52      1.0000 0.70940  0.19880  0.69300  Biso   1.000  C
  C53      1.0000 0.70210  0.16470  0.60360  Biso   1.000  C
  C54      1.0000 0.68620  0.27780  0.62140  Biso   1.000  C
  C55      1.0000 0.50230  0.65620  0.41830  Biso   1.000  C
  H37      1.0000 0.51060  0.61570  0.40030  Biso   1.000  H
  C56      1.0000 0.48060  0.71480  0.38680  Biso   1.000  C
  H38      1.0000 0.47510  0.71440  0.34780  Biso   1.000  H
  C57      1.0000 0.46670  0.77430  0.41180  Biso   1.000  C
  C58      1.0000 0.47240  0.77280  0.46990  Biso   1.000  C
  H39      1.0000 0.46100  0.81150  0.48790  Biso   1.000  H
  C59      1.0000 0.49550  0.71170  0.49960  Biso   1.000  C
  H40      1.0000 0.49960  0.70990  0.53830  Biso   1.000  H
  C60      1.0000 0.42030  0.94970  0.14480  Biso   1.000  C
  H41      1.0000 0.42240  0.99090  0.12480  Biso   1.000  H
  C61      1.0000 0.42320  0.95580  0.20130  Biso   1.000  C
  H42      1.0000 0.42530  0.99980  0.21870  Biso   1.000  H
  C62      1.0000 0.42270  0.89320  0.23150  Biso   1.000  C
  C63      1.0000 0.42000  0.83030  0.20520  Biso   1.000  C
  H43      1.0000 0.42150  0.78830  0.22530  Biso   1.000  H
  C64      1.0000 0.41480  0.82920  0.14750  Biso   1.000  C
  H44      1.0000 0.41140  0.78550  0.12940  Biso   1.000  H
  C65      1.0000 0.39800  0.08660  0.47860  Biso   1.000  C
  H45      1.0000 0.41090  0.09280  0.51790  Biso   1.000  H
  C66      1.0000 0.41660  0.02660  0.45560  Biso   1.000  C
  H46      1.0000 0.44100  0.99270  0.47940  Biso   1.000  H
  C67      1.0000 0.39880  0.01700  0.39710  Biso   1.000  C
  C68      1.0000 0.36130  0.06920  0.36330  Biso   1.000  C
  H47      1.0000 0.34780  0.06460  0.32390  Biso   1.000  H
  C69      1.0000 0.34480  0.12770  0.38960  Biso   1.000  C
  H48      1.0000 0.32070  0.16270  0.36700  Biso   1.000  H
  C70      1.0000 0.44560  0.84010  0.37790  Biso   1.000  C
  C71      1.0000 0.42520  0.89600  0.29440  Biso   1.000  C
  C72      1.0000 0.41660  0.95390  0.37070  Biso   1.000  C
  N13      1.0000 0.73010  0.13860  0.86380  Biso   1.000  N
  N14      1.0000 0.72250  0.99720  0.49400  Biso   1.000  N
  N15      1.0000 0.62310  0.48400  0.55900  Biso   1.000  N
  N16      1.0000 0.69810  0.26680  0.67750  Biso   1.000  N
  N17      1.0000 0.71120  0.14620  0.65720  Biso   1.000  N
  N18      1.0000 0.68730  0.23000  0.58240  Biso   1.000  N
  N19      1.0000 0.51210  0.65520  0.47520  Biso   1.000  N
  N20      1.0000 0.41460  0.88730  0.11700  Biso   1.000  N
  N21      1.0000 0.36200  0.13590  0.44590  Biso   1.000  N
  N22      1.0000 0.43510  0.89820  0.40450  Biso   1.000  N
  N23      1.0000 0.43960  0.83500  0.32220  Biso   1.000  N
  N24      1.0000 0.41230  0.95650  0.31540  Biso   1.000  N
  Ag7      1.0000 0.23663  0.40462  0.44711  Biso   1.000  Ag
  Ag8      1.0000 0.06788  0.92775  0.02235  Biso   1.000  Ag
  Ag9      1.0000 0.83410  0.27253  0.98353  Biso   1.000  Ag
  Cl3      1.0000 0.31020  0.32604  0.53140  Biso   1.000  Cl
  C73      1.0000 0.23010  0.41020  0.32340  Biso   1.000  C
  H49      1.0000 0.23460  0.45780  0.33360  Biso   1.000  H
  C74      1.0000 0.22390  0.39210  0.26820  Biso   1.000  C
  H50      1.0000 0.22380  0.42670  0.24130  Biso   1.000  H
  C75      1.0000 0.21760  0.32070  0.25280  Biso   1.000  C
  C76      1.0000 0.21870  0.27070  0.29410  Biso   1.000  C
  H51      1.0000 0.21600  0.22250  0.28550  Biso   1.000  H
  C77      1.0000 0.22400  0.29430  0.34870  Biso   1.000  C
  H52      1.0000 0.22320  0.26080  0.37620  Biso   1.000  H
  C78      1.0000 0.19410  0.44240  0.97240  Biso   1.000  C
  H53      1.0000 0.18050  0.43720  0.93300  Biso   1.000  H
  C79      1.0000 0.18390  0.38680  0.00590  Biso   1.000  C
  H54      1.0000 0.16200  0.34680  0.98920  Biso   1.000  H
  C80      1.0000 0.20690  0.39250  0.06390  Biso   1.000  C
  C81      1.0000 0.23710  0.45400  0.08710  Biso   1.000  C
  H55      1.0000 0.25200  0.45960  0.12640  Biso   1.000  H
  C82      1.0000 0.24480  0.50690  0.05130  Biso   1.000  C
  H56      1.0000 0.26640  0.54740  0.06730  Biso   1.000  H
  C83      1.0000 0.13860  0.03040  0.11390  Biso   1.000  C
  H57      1.0000 0.13360  0.99490  0.13840  Biso   1.000  H
  C84      1.0000 0.16170  0.09410  0.13690  Biso   1.000  C
  H58      1.0000 0.17250  0.10130  0.17610  Biso   1.000  H
  C85      1.0000 0.16850  0.14760  0.10100  Biso   1.000  C
  C86      1.0000 0.15450  0.13270  0.04250  Biso   1.000  C
  H59      1.0000 0.16000  0.16690  0.01710  Biso   1.000  H
  C87      1.0000 0.13250  0.06610  0.02370  Biso   1.000  C
  H60      1.0000 0.12400  0.05560  0.98520  Biso   1.000  H
  C88      1.0000 0.20940  0.30120  0.19300  Biso   1.000  C
  C89      1.0000 0.20210  0.33530  0.10360  Biso   1.000  C
  C90      1.0000 0.18620  0.22220  0.12140  Biso   1.000  C
  C91      1.0000 0.00230  0.84380  0.91830  Biso   1.000  C
  H61      1.0000 0.01060  0.88430  0.90030  Biso   1.000  H
  C92      1.0000 0.98060  0.78520  0.88680  Biso   1.000  C
  H62      1.0000 0.97510  0.78560  0.84780  Biso   1.000  H
  C93      1.0000 0.96670  0.72570  0.91180  Biso   1.000  C
  C94      1.0000 0.97240  0.72720  0.96990  Biso   1.000  C
  H63      1.0000 0.96100  0.68850  0.98790  Biso   1.000  H
  C95      1.0000 0.99550  0.78830  0.99960  Biso   1.000  C
  H64      1.0000 0.99960  0.79010  0.03830  Biso   1.000  H
  C96      1.0000 0.92030  0.55030  0.64480  Biso   1.000  C
  H65      1.0000 0.92240  0.50910  0.62480  Biso   1.000  H
  C97      1.0000 0.92320  0.54420  0.70130  Biso   1.000  C
  H66      1.0000 0.92530  0.50020  0.71870  Biso   1.000  H
  C98      1.0000 0.92270  0.60680  0.73150  Biso   1.000  C
  C99      1.0000 0.92000  0.66970  0.70520  Biso   1.000  C
  H67      1.0000 0.92150  0.71170  0.72530  Biso   1.000  H
  C100     1.0000 0.91480  0.67080  0.64750  Biso   1.000  C
  H68      1.0000 0.91140  0.71450  0.62940  Biso   1.000  H
  C101     1.0000 0.89800  0.41340  0.97860  Biso   1.000  C
  H69      1.0000 0.91090  0.40720  0.01790  Biso   1.000  H
  C102     1.0000 0.91660  0.47340  0.95560  Biso   1.000  C
  H70      1.0000 0.94100  0.50730  0.97940  Biso   1.000  H
  C103     1.0000 0.89880  0.48300  0.89710  Biso   1.000  C
  C104     1.0000 0.86130  0.43080  0.86330  Biso   1.000  C
  H71      1.0000 0.84780  0.43540  0.82390  Biso   1.000  H
  C105     1.0000 0.84480  0.37230  0.88960  Biso   1.000  C
  H72      1.0000 0.82070  0.33730  0.86700  Biso   1.000  H
  C106     1.0000 0.94560  0.65990  0.87790  Biso   1.000  C
  C107     1.0000 0.92520  0.60400  0.79440  Biso   1.000  C
  C108     1.0000 0.91660  0.54610  0.87070  Biso   1.000  C
  N25      1.0000 0.23010  0.36140  0.36380  Biso   1.000  N
  N26      1.0000 0.22250  0.50280  0.99400  Biso   1.000  N
  N27      1.0000 0.12310  0.01600  0.05900  Biso   1.000  N
  N28      1.0000 0.19810  0.23320  0.17750  Biso   1.000  N
  N29      1.0000 0.21120  0.35380  0.15720  Biso   1.000  N
  N30      1.0000 0.18730  0.27000  0.08240  Biso   1.000  N
  N31      1.0000 0.01210  0.84480  0.97520  Biso   1.000  N
  N32      1.0000 0.91460  0.61270  0.61700  Biso   1.000  N
  N33      1.0000 0.86200  0.36410  0.94590  Biso   1.000  N
  N34      1.0000 0.93510  0.60180  0.90450  Biso   1.000  N
  N35      1.0000 0.93960  0.66500  0.82220  Biso   1.000  N
  N36      1.0000 0.91230  0.54350  0.81540  Biso   1.000  N
  Ag10     1.0000 0.73663  0.90462  0.44711  Biso   1.000  Ag
  Ag11     1.0000 0.56788  0.42775  0.02235  Biso   1.000  Ag
  Ag12     1.0000 0.33410  0.77253  0.98353  Biso   1.000  Ag
  Cl4      1.0000 0.81020  0.82604  0.53140  Biso   1.000  Cl
  C109     1.0000 0.73010  0.91020  0.32340  Biso   1.000  C
  H73      1.0000 0.73460  0.95780  0.33360  Biso   1.000  H
  C110     1.0000 0.72390  0.89210  0.26820  Biso   1.000  C
  H74      1.0000 0.72380  0.92670  0.24130  Biso   1.000  H
  C111     1.0000 0.71760  0.82070  0.25280  Biso   1.000  C
  C112     1.0000 0.71870  0.77070  0.29410  Biso   1.000  C
  H75      1.0000 0.71600  0.72250  0.28550  Biso   1.000  H
  C113     1.0000 0.72400  0.79430  0.34870  Biso   1.000  C
  H76      1.0000 0.72320  0.76080  0.37620  Biso   1.000  H
  C114     1.0000 0.69410  0.94240  0.97240  Biso   1.000  C
  H77      1.0000 0.68050  0.93720  0.93300  Biso   1.000  H
  C115     1.0000 0.68390  0.88680  0.00590  Biso   1.000  C
  H78      1.0000 0.66200  0.84680  0.98920  Biso   1.000  H
  C116     1.0000 0.70690  0.89250  0.06390  Biso   1.000  C
  C117     1.0000 0.73710  0.95400  0.08710  Biso   1.000  C
  H79      1.0000 0.75200  0.95960  0.12640  Biso   1.000  H
  C118     1.0000 0.74480  0.00690  0.05130  Biso   1.000  C
  H80      1.0000 0.76640  0.04740  0.06730  Biso   1.000  H
  C119     1.0000 0.63860  0.53040  0.11390  Biso   1.000  C
  H81      1.0000 0.63360  0.49490  0.13840  Biso   1.000  H
  C120     1.0000 0.66170  0.59410  0.13690  Biso   1.000  C
  H82      1.0000 0.67250  0.60130  0.17610  Biso   1.000  H
  C121     1.0000 0.66850  0.64760  0.10100  Biso   1.000  C
  C122     1.0000 0.65450  0.63270  0.04250  Biso   1.000  C
  H83      1.0000 0.66000  0.66690  0.01710  Biso   1.000  H
  C123     1.0000 0.63250  0.56610  0.02370  Biso   1.000  C
  H84      1.0000 0.62400  0.55560  0.98520  Biso   1.000  H
  C124     1.0000 0.70940  0.80120  0.19300  Biso   1.000  C
  C125     1.0000 0.70210  0.83530  0.10360  Biso   1.000  C
  C126     1.0000 0.68620  0.72220  0.12140  Biso   1.000  C
  C127     1.0000 0.50230  0.34380  0.91830  Biso   1.000  C
  H85      1.0000 0.51060  0.38430  0.90030  Biso   1.000  H
  C128     1.0000 0.48060  0.28520  0.88680  Biso   1.000  C
  H86      1.0000 0.47510  0.28560  0.84780  Biso   1.000  H
  C129     1.0000 0.46670  0.22570  0.91180  Biso   1.000  C
  C130     1.0000 0.47240  0.22720  0.96990  Biso   1.000  C
  H87      1.0000 0.46100  0.18850  0.98790  Biso   1.000  H
  C131     1.0000 0.49550  0.28830  0.99960  Biso   1.000  C
  H88      1.0000 0.49960  0.29010  0.03830  Biso   1.000  H
  C132     1.0000 0.42030  0.05030  0.64480  Biso   1.000  C
  H89      1.0000 0.42240  0.00910  0.62480  Biso   1.000  H
  C133     1.0000 0.42320  0.04420  0.70130  Biso   1.000  C
  H90      1.0000 0.42530  0.00020  0.71870  Biso   1.000  H
  C134     1.0000 0.42270  0.10680  0.73150  Biso   1.000  C
  C135     1.0000 0.42000  0.16970  0.70520  Biso   1.000  C
  H91      1.0000 0.42150  0.21170  0.72530  Biso   1.000  H
  C136     1.0000 0.41480  0.17080  0.64750  Biso   1.000  C
  H92      1.0000 0.41140  0.21450  0.62940  Biso   1.000  H
  C137     1.0000 0.39800  0.91340  0.97860  Biso   1.000  C
  H93      1.0000 0.41090  0.90720  0.01790  Biso   1.000  H
  C138     1.0000 0.41660  0.97340  0.95560  Biso   1.000  C
  H94      1.0000 0.44100  0.00730  0.97940  Biso   1.000  H
  C139     1.0000 0.39880  0.98300  0.89710  Biso   1.000  C
  C140     1.0000 0.36130  0.93080  0.86330  Biso   1.000  C
  H95      1.0000 0.34780  0.93540  0.82390  Biso   1.000  H
  C141     1.0000 0.34480  0.87230  0.88960  Biso   1.000  C
  H96      1.0000 0.32070  0.83730  0.86700  Biso   1.000  H
  C142     1.0000 0.44560  0.15990  0.87790  Biso   1.000  C
  C143     1.0000 0.42520  0.10400  0.79440  Biso   1.000  C
  C144     1.0000 0.41660  0.04610  0.87070  Biso   1.000  C
  N37      1.0000 0.73010  0.86140  0.36380  Biso   1.000  N
  N38      1.0000 0.72250  0.00280  0.99400  Biso   1.000  N
  N39      1.0000 0.62310  0.51600  0.05900  Biso   1.000  N
  N40      1.0000 0.69810  0.73320  0.17750  Biso   1.000  N
  N41      1.0000 0.71120  0.85380  0.15720  Biso   1.000  N
  N42      1.0000 0.68730  0.77000  0.08240  Biso   1.000  N
  N43      1.0000 0.51210  0.34480  0.97520  Biso   1.000  N
  N44      1.0000 0.41460  0.11270  0.61700  Biso   1.000  N
  N45      1.0000 0.36200  0.86410  0.94590  Biso   1.000  N
  N46      1.0000 0.43510  0.10180  0.90450  Biso   1.000  N
  N47      1.0000 0.43960  0.16500  0.82220  Biso   1.000  N
  N48      1.0000 0.41230  0.04350  0.81540  Biso   1.000  N
  Ag13     1.0000 0.76337  0.59538  0.55289  Biso   1.000  Ag
  Ag14     1.0000 0.93212  0.07225  0.97765  Biso   1.000  Ag
  Ag15     1.0000 0.16590  0.72747  0.01647  Biso   1.000  Ag
  Cl5      1.0000 0.68980  0.67396  0.46860  Biso   1.000  Cl
  C145     1.0000 0.76990  0.58980  0.67660  Biso   1.000  C
  H97      1.0000 0.76540  0.54220  0.66640  Biso   1.000  H
  C146     1.0000 0.77610  0.60790  0.73180  Biso   1.000  C
  H98      1.0000 0.77620  0.57330  0.75870  Biso   1.000  H
  C147     1.0000 0.78240  0.67930  0.74720  Biso   1.000  C
  C148     1.0000 0.78130  0.72930  0.70590  Biso   1.000  C
  H99      1.0000 0.78400  0.77750  0.71450  Biso   1.000  H
  C149     1.0000 0.77600  0.70570  0.65130  Biso   1.000  C
  H100     1.0000 0.77680  0.73920  0.62380  Biso   1.000  H
  C150     1.0000 0.80590  0.55760  0.02760  Biso   1.000  C
  H101     1.0000 0.81950  0.56280  0.06700  Biso   1.000  H
  C151     1.0000 0.81610  0.61320  0.99410  Biso   1.000  C
  H102     1.0000 0.83800  0.65320  0.01080  Biso   1.000  H
  C152     1.0000 0.79310  0.60750  0.93610  Biso   1.000  C
  C153     1.0000 0.76290  0.54600  0.91290  Biso   1.000  C
  H103     1.0000 0.74800  0.54040  0.87360  Biso   1.000  H
  C154     1.0000 0.75520  0.49310  0.94870  Biso   1.000  C
  H104     1.0000 0.73360  0.45260  0.93270  Biso   1.000  H
  C155     1.0000 0.86140  0.96960  0.88610  Biso   1.000  C
  H105     1.0000 0.86640  0.00510  0.86160  Biso   1.000  H
  C156     1.0000 0.83830  0.90590  0.86310  Biso   1.000  C
  H106     1.0000 0.82750  0.89870  0.82390  Biso   1.000  H
  C157     1.0000 0.83150  0.85240  0.89900  Biso   1.000  C
  C158     1.0000 0.84550  0.86730  0.95750  Biso   1.000  C
  H107     1.0000 0.84000  0.83310  0.98290  Biso   1.000  H
  C159     1.0000 0.86750  0.93390  0.97630  Biso   1.000  C
  H108     1.0000 0.87600  0.94440  0.01480  Biso   1.000  H
  C160     1.0000 0.79060  0.69880  0.80700  Biso   1.000  C
  C161     1.0000 0.79790  0.66470  0.89640  Biso   1.000  C
  C162     1.0000 0.81380  0.77780  0.87860  Biso   1.000  C
  C163     1.0000 0.99770  0.15620  0.08170  Biso   1.000  C
  H109     1.0000 0.98940  0.11570  0.09970  Biso   1.000  H
  C164     1.0000 0.01940  0.21480  0.11320  Biso   1.000  C
  H110     1.0000 0.02490  0.21440  0.15220  Biso   1.000  H
  C165     1.0000 0.03330  0.27430  0.08820  Biso   1.000  C
  C166     1.0000 0.02760  0.27280  0.03010  Biso   1.000  C
  H111     1.0000 0.03900  0.31150  0.01210  Biso   1.000  H
  C167     1.0000 0.00450  0.21170  0.00040  Biso   1.000  C
  H112     1.0000 0.00040  0.20990  0.96170  Biso   1.000  H
  C168     1.0000 0.07970  0.44970  0.35520  Biso   1.000  C
  H113     1.0000 0.07760  0.49090  0.37520  Biso   1.000  H
  C169     1.0000 0.07680  0.45580  0.29870  Biso   1.000  C
  H114     1.0000 0.07470  0.49980  0.28130  Biso   1.000  H
  C170     1.0000 0.07730  0.39320  0.26850  Biso   1.000  C
  C171     1.0000 0.08000  0.33030  0.29480  Biso   1.000  C
  H115     1.0000 0.07850  0.28830  0.27470  Biso   1.000  H
  C172     1.0000 0.08520  0.32920  0.35250  Biso   1.000  C
  H116     1.0000 0.08860  0.28550  0.37060  Biso   1.000  H
  C173     1.0000 0.10200  0.58660  0.02140  Biso   1.000  C
  H117     1.0000 0.08910  0.59280  0.98210  Biso   1.000  H
  C174     1.0000 0.08340  0.52660  0.04440  Biso   1.000  C
  H118     1.0000 0.05900  0.49270  0.02060  Biso   1.000  H
  C175     1.0000 0.10120  0.51700  0.10290  Biso   1.000  C
  C176     1.0000 0.13870  0.56920  0.13670  Biso   1.000  C
  H119     1.0000 0.15220  0.56460  0.17610  Biso   1.000  H
  C177     1.0000 0.15520  0.62770  0.11040  Biso   1.000  C
  H120     1.0000 0.17930  0.66270  0.13300  Biso   1.000  H
  C178     1.0000 0.05440  0.34010  0.12210  Biso   1.000  C
  C179     1.0000 0.07480  0.39600  0.20560  Biso   1.000  C
  C180     1.0000 0.08340  0.45390  0.12930  Biso   1.000  C
  N49      1.0000 0.76990  0.63860  0.63620  Biso   1.000  N
  N50      1.0000 0.77750  0.49720  0.00600  Biso   1.000  N
  N51      1.0000 0.87690  0.98400  0.94100  Biso   1.000  N
  N52      1.0000 0.80190  0.76680  0.82250  Biso   1.000  N
  N53      1.0000 0.78880  0.64620  0.84280  Biso   1.000  N
  N54      1.0000 0.81270  0.73000  0.91760  Biso   1.000  N
  N55      1.0000 0.98790  0.15520  0.02480  Biso   1.000  N
  N56      1.0000 0.08540  0.38730  0.38300  Biso   1.000  N
  N57      1.0000 0.13800  0.63590  0.05410  Biso   1.000  N
  N58      1.0000 0.06490  0.39820  0.09550  Biso   1.000  N
  N59      1.0000 0.06040  0.33500  0.17780  Biso   1.000  N
  N60      1.0000 0.08770  0.45650  0.18460  Biso   1.000  N
  Ag16     1.0000 0.26337  0.09538  0.55289  Biso   1.000  Ag
  Ag17     1.0000 0.43212  0.57225  0.97765  Biso   1.000  Ag
  Ag18     1.0000 0.66590  0.22747  0.01647  Biso   1.000  Ag
  Cl6      1.0000 0.18980  0.17396  0.46860  Biso   1.000  Cl
  C181     1.0000 0.26990  0.08980  0.67660  Biso   1.000  C
  H121     1.0000 0.26540  0.04220  0.66640  Biso   1.000  H
  C182     1.0000 0.27610  0.10790  0.73180  Biso   1.000  C
  H122     1.0000 0.27620  0.07330  0.75870  Biso   1.000  H
  C183     1.0000 0.28240  0.17930  0.74720  Biso   1.000  C
  C184     1.0000 0.28130  0.22930  0.70590  Biso   1.000  C
  H123     1.0000 0.28400  0.27750  0.71450  Biso   1.000  H
  C185     1.0000 0.27600  0.20570  0.65130  Biso   1.000  C
  H124     1.0000 0.27680  0.23920  0.62380  Biso   1.000  H
  C186     1.0000 0.30590  0.05760  0.02760  Biso   1.000  C
  H125     1.0000 0.31950  0.06280  0.06700  Biso   1.000  H
  C187     1.0000 0.31610  0.11320  0.99410  Biso   1.000  C
  H126     1.0000 0.33800  0.15320  0.01080  Biso   1.000  H
  C188     1.0000 0.29310  0.10750  0.93610  Biso   1.000  C
  C189     1.0000 0.26290  0.04600  0.91290  Biso   1.000  C
  H127     1.0000 0.24800  0.04040  0.87360  Biso   1.000  H
  C190     1.0000 0.25520  0.99310  0.94870  Biso   1.000  C
  H128     1.0000 0.23360  0.95260  0.93270  Biso   1.000  H
  C191     1.0000 0.36140  0.46960  0.88610  Biso   1.000  C
  H129     1.0000 0.36640  0.50510  0.86160  Biso   1.000  H
  C192     1.0000 0.33830  0.40590  0.86310  Biso   1.000  C
  H130     1.0000 0.32750  0.39870  0.82390  Biso   1.000  H
  C193     1.0000 0.33150  0.35240  0.89900  Biso   1.000  C
  C194     1.0000 0.34550  0.36730  0.95750  Biso   1.000  C
  H131     1.0000 0.34000  0.33310  0.98290  Biso   1.000  H
  C195     1.0000 0.36750  0.43390  0.97630  Biso   1.000  C
  H132     1.0000 0.37600  0.44440  0.01480  Biso   1.000  H
  C196     1.0000 0.29060  0.19880  0.80700  Biso   1.000  C
  C197     1.0000 0.29790  0.16470  0.89640  Biso   1.000  C
  C198     1.0000 0.31380  0.27780  0.87860  Biso   1.000  C
  C199     1.0000 0.49770  0.65620  0.08170  Biso   1.000  C
  H133     1.0000 0.48940  0.61570  0.09970  Biso   1.000  H
  C200     1.0000 0.51940  0.71480  0.11320  Biso   1.000  C
  H134     1.0000 0.52490  0.71440  0.15220  Biso   1.000  H
  C201     1.0000 0.53330  0.77430  0.08820  Biso   1.000  C
  C202     1.0000 0.52760  0.77280  0.03010  Biso   1.000  C
  H135     1.0000 0.53900  0.81150  0.01210  Biso   1.000  H
  C203     1.0000 0.50450  0.71170  0.00040  Biso   1.000  C
  H136     1.0000 0.50040  0.70990  0.96170  Biso   1.000  H
  C204     1.0000 0.57970  0.94970  0.35520  Biso   1.000  C
  H137     1.0000 0.57760  0.99090  0.37520  Biso   1.000  H
  C205     1.0000 0.57680  0.95580  0.29870  Biso   1.000  C
  H138     1.0000 0.57470  0.99980  0.28130  Biso   1.000  H
  C206     1.0000 0.57730  0.89320  0.26850  Biso   1.000  C
  C207     1.0000 0.58000  0.83030  0.29480  Biso   1.000  C
  H139     1.0000 0.57850  0.78830  0.27470  Biso   1.000  H
  C208     1.0000 0.58520  0.82920  0.35250  Biso   1.000  C
  H140     1.0000 0.58860  0.78550  0.37060  Biso   1.000  H
  C209     1.0000 0.60200  0.08660  0.02140  Biso   1.000  C
  H141     1.0000 0.58910  0.09280  0.98210  Biso   1.000  H
  C210     1.0000 0.58340  0.02660  0.04440  Biso   1.000  C
  H142     1.0000 0.55900  0.99270  0.02060  Biso   1.000  H
  C211     1.0000 0.60120  0.01700  0.10290  Biso   1.000  C
  C212     1.0000 0.63870  0.06920  0.13670  Biso   1.000  C
  H143     1.0000 0.65220  0.06460  0.17610  Biso   1.000  H
  C213     1.0000 0.65520  0.12770  0.11040  Biso   1.000  C
  H144     1.0000 0.67930  0.16270  0.13300  Biso   1.000  H
  C214     1.0000 0.55440  0.84010  0.12210  Biso   1.000  C
  C215     1.0000 0.57480  0.89600  0.20560  Biso   1.000  C
  C216     1.0000 0.58340  0.95390  0.12930  Biso   1.000  C
  N61      1.0000 0.26990  0.13860  0.63620  Biso   1.000  N
  N62      1.0000 0.27750  0.99720  0.00600  Biso   1.000  N
  N63      1.0000 0.37690  0.48400  0.94100  Biso   1.000  N
  N64      1.0000 0.30190  0.26680  0.82250  Biso   1.000  N
  N65      1.0000 0.28880  0.14620  0.84280  Biso   1.000  N
  N66      1.0000 0.31270  0.23000  0.91760  Biso   1.000  N
  N67      1.0000 0.48790  0.65520  0.02480  Biso   1.000  N
  N68      1.0000 0.58540  0.88730  0.38300  Biso   1.000  N
  N69      1.0000 0.63800  0.13590  0.05410  Biso   1.000  N
  N70      1.0000 0.56490  0.89820  0.09550  Biso   1.000  N
  N71      1.0000 0.56040  0.83500  0.17780  Biso   1.000  N
  N72      1.0000 0.58770  0.95650  0.18460  Biso   1.000  N
  Ag19     1.0000 0.76337  0.40462  0.05289  Biso   1.000  Ag
  Ag20     1.0000 0.93212  0.92775  0.47765  Biso   1.000  Ag
  Ag21     1.0000 0.16590  0.27253  0.51647  Biso   1.000  Ag
  Cl7      1.0000 0.68980  0.32604  0.96860  Biso   1.000  Cl
  C217     1.0000 0.76990  0.41020  0.17660  Biso   1.000  C
  H145     1.0000 0.76540  0.45780  0.16640  Biso   1.000  H
  C218     1.0000 0.77610  0.39210  0.23180  Biso   1.000  C
  H146     1.0000 0.77620  0.42670  0.25870  Biso   1.000  H
  C219     1.0000 0.78240  0.32070  0.24720  Biso   1.000  C
  C220     1.0000 0.78130  0.27070  0.20590  Biso   1.000  C
  H147     1.0000 0.78400  0.22250  0.21450  Biso   1.000  H
  C221     1.0000 0.77600  0.29430  0.15130  Biso   1.000  C
  H148     1.0000 0.77680  0.26080  0.12380  Biso   1.000  H
  C222     1.0000 0.80590  0.44240  0.52760  Biso   1.000  C
  H149     1.0000 0.81950  0.43720  0.56700  Biso   1.000  H
  C223     1.0000 0.81610  0.38680  0.49410  Biso   1.000  C
  H150     1.0000 0.83800  0.34680  0.51080  Biso   1.000  H
  C224     1.0000 0.79310  0.39250  0.43610  Biso   1.000  C
  C225     1.0000 0.76290  0.45400  0.41290  Biso   1.000  C
  H151     1.0000 0.74800  0.45960  0.37360  Biso   1.000  H
  C226     1.0000 0.75520  0.50690  0.44870  Biso   1.000  C
  H152     1.0000 0.73360  0.54740  0.43270  Biso   1.000  H
  C227     1.0000 0.86140  0.03040  0.38610  Biso   1.000  C
  H153     1.0000 0.86640  0.99490  0.36160  Biso   1.000  H
  C228     1.0000 0.83830  0.09410  0.36310  Biso   1.000  C
  H154     1.0000 0.82750  0.10130  0.32390  Biso   1.000  H
  C229     1.0000 0.83150  0.14760  0.39900  Biso   1.000  C
  C230     1.0000 0.84550  0.13270  0.45750  Biso   1.000  C
  H155     1.0000 0.84000  0.16690  0.48290  Biso   1.000  H
  C231     1.0000 0.86750  0.06610  0.47630  Biso   1.000  C
  H156     1.0000 0.87600  0.05560  0.51480  Biso   1.000  H
  C232     1.0000 0.79060  0.30120  0.30700  Biso   1.000  C
  C233     1.0000 0.79790  0.33530  0.39640  Biso   1.000  C
  C234     1.0000 0.81380  0.22220  0.37860  Biso   1.000  C
  C235     1.0000 0.99770  0.84380  0.58170  Biso   1.000  C
  H157     1.0000 0.98940  0.88430  0.59970  Biso   1.000  H
  C236     1.0000 0.01940  0.78520  0.61320  Biso   1.000  C
  H158     1.0000 0.02490  0.78560  0.65220  Biso   1.000  H
  C237     1.0000 0.03330  0.72570  0.58820  Biso   1.000  C
  C238     1.0000 0.02760  0.72720  0.53010  Biso   1.000  C
  H159     1.0000 0.03900  0.68850  0.51210  Biso   1.000  H
  C239     1.0000 0.00450  0.78830  0.50040  Biso   1.000  C
  H160     1.0000 0.00040  0.79010  0.46170  Biso   1.000  H
  C240     1.0000 0.07970  0.55030  0.85520  Biso   1.000  C
  H161     1.0000 0.07760  0.50910  0.87520  Biso   1.000  H
  C241     1.0000 0.07680  0.54420  0.79870  Biso   1.000  C
  H162     1.0000 0.07470  0.50020  0.78130  Biso   1.000  H
  C242     1.0000 0.07730  0.60680  0.76850  Biso   1.000  C
  C243     1.0000 0.08000  0.66970  0.79480  Biso   1.000  C
  H163     1.0000 0.07850  0.71170  0.77470  Biso   1.000  H
  C244     1.0000 0.08520  0.67080  0.85250  Biso   1.000  C
  H164     1.0000 0.08860  0.71450  0.87060  Biso   1.000  H
  C245     1.0000 0.10200  0.41340  0.52140  Biso   1.000  C
  H165     1.0000 0.08910  0.40720  0.48210  Biso   1.000  H
  C246     1.0000 0.08340  0.47340  0.54440  Biso   1.000  C
  H166     1.0000 0.05900  0.50730  0.52060  Biso   1.000  H
  C247     1.0000 0.10120  0.48300  0.60290  Biso   1.000  C
  C248     1.0000 0.13870  0.43080  0.63670  Biso   1.000  C
  H167     1.0000 0.15220  0.43540  0.67610  Biso   1.000  H
  C249     1.0000 0.15520  0.37230  0.61040  Biso   1.000  C
  H168     1.0000 0.17930  0.33730  0.63300  Biso   1.000  H
  C250     1.0000 0.05440  0.65990  0.62210  Biso   1.000  C
  C251     1.0000 0.07480  0.60400  0.70560  Biso   1.000  C
  C252     1.0000 0.08340  0.54610  0.62930  Biso   1.000  C
  N73      1.0000 0.76990  0.36140  0.13620  Biso   1.000  N
  N74      1.0000 0.77750  0.50280  0.50600  Biso   1.000  N
  N75      1.0000 0.87690  0.01600  0.44100  Biso   1.000  N
  N76      1.0000 0.80190  0.23320  0.32250  Biso   1.000  N
  N77      1.0000 0.78880  0.35380  0.34280  Biso   1.000  N
  N78      1.0000 0.81270  0.27000  0.41760  Biso   1.000  N
  N79      1.0000 0.98790  0.84480  0.52480  Biso   1.000  N
  N80      1.0000 0.08540  0.61270  0.88300  Biso   1.000  N
  N81      1.0000 0.13800  0.36410  0.55410  Biso   1.000  N
  N82      1.0000 0.06490  0.60180  0.59550  Biso   1.000  N
  N83      1.0000 0.06040  0.66500  0.67780  Biso   1.000  N
  N84      1.0000 0.08770  0.54350  0.68460  Biso   1.000  N
  Ag22     1.0000 0.26337  0.90462  0.05289  Biso   1.000  Ag
  Ag23     1.0000 0.43212  0.42775  0.47765  Biso   1.000  Ag
  Ag24     1.0000 0.66590  0.77253  0.51647  Biso   1.000  Ag
  Cl8      1.0000 0.18980  0.82604  0.96860  Biso   1.000  Cl
  C253     1.0000 0.26990  0.91020  0.17660  Biso   1.000  C
  H169     1.0000 0.26540  0.95780  0.16640  Biso   1.000  H
  C254     1.0000 0.27610  0.89210  0.23180  Biso   1.000  C
  H170     1.0000 0.27620  0.92670  0.25870  Biso   1.000  H
  C255     1.0000 0.28240  0.82070  0.24720  Biso   1.000  C
  C256     1.0000 0.28130  0.77070  0.20590  Biso   1.000  C
  H171     1.0000 0.28400  0.72250  0.21450  Biso   1.000  H
  C257     1.0000 0.27600  0.79430  0.15130  Biso   1.000  C
  H172     1.0000 0.27680  0.76080  0.12380  Biso   1.000  H
  C258     1.0000 0.30590  0.94240  0.52760  Biso   1.000  C
  H173     1.0000 0.31950  0.93720  0.56700  Biso   1.000  H
  C259     1.0000 0.31610  0.88680  0.49410  Biso   1.000  C
  H174     1.0000 0.33800  0.84680  0.51080  Biso   1.000  H
  C260     1.0000 0.29310  0.89250  0.43610  Biso   1.000  C
  C261     1.0000 0.26290  0.95400  0.41290  Biso   1.000  C
  H175     1.0000 0.24800  0.95960  0.37360  Biso   1.000  H
  C262     1.0000 0.25520  0.00690  0.44870  Biso   1.000  C
  H176     1.0000 0.23360  0.04740  0.43270  Biso   1.000  H
  C263     1.0000 0.36140  0.53040  0.38610  Biso   1.000  C
  H177     1.0000 0.36640  0.49490  0.36160  Biso   1.000  H
  C264     1.0000 0.33830  0.59410  0.36310  Biso   1.000  C
  H178     1.0000 0.32750  0.60130  0.32390  Biso   1.000  H
  C265     1.0000 0.33150  0.64760  0.39900  Biso   1.000  C
  C266     1.0000 0.34550  0.63270  0.45750  Biso   1.000  C
  H179     1.0000 0.34000  0.66690  0.48290  Biso   1.000  H
  C267     1.0000 0.36750  0.56610  0.47630  Biso   1.000  C
  H180     1.0000 0.37600  0.55560  0.51480  Biso   1.000  H
  C268     1.0000 0.29060  0.80120  0.30700  Biso   1.000  C
  C269     1.0000 0.29790  0.83530  0.39640  Biso   1.000  C
  C270     1.0000 0.31380  0.72220  0.37860  Biso   1.000  C
  C271     1.0000 0.49770  0.34380  0.58170  Biso   1.000  C
  H181     1.0000 0.48940  0.38430  0.59970  Biso   1.000  H
  C272     1.0000 0.51940  0.28520  0.61320  Biso   1.000  C
  H182     1.0000 0.52490  0.28560  0.65220  Biso   1.000  H
  C273     1.0000 0.53330  0.22570  0.58820  Biso   1.000  C
  C274     1.0000 0.52760  0.22720  0.53010  Biso   1.000  C
  H183     1.0000 0.53900  0.18850  0.51210  Biso   1.000  H
  C275     1.0000 0.50450  0.28830  0.50040  Biso   1.000  C
  H184     1.0000 0.50040  0.29010  0.46170  Biso   1.000  H
  C276     1.0000 0.57970  0.05030  0.85520  Biso   1.000  C
  H185     1.0000 0.57760  0.00910  0.87520  Biso   1.000  H
  C277     1.0000 0.57680  0.04420  0.79870  Biso   1.000  C
  H186     1.0000 0.57470  0.00020  0.78130  Biso   1.000  H
  C278     1.0000 0.57730  0.10680  0.76850  Biso   1.000  C
  C279     1.0000 0.58000  0.16970  0.79480  Biso   1.000  C
  H187     1.0000 0.57850  0.21170  0.77470  Biso   1.000  H
  C280     1.0000 0.58520  0.17080  0.85250  Biso   1.000  C
  H188     1.0000 0.58860  0.21450  0.87060  Biso   1.000  H
  C281     1.0000 0.60200  0.91340  0.52140  Biso   1.000  C
  H189     1.0000 0.58910  0.90720  0.48210  Biso   1.000  H
  C282     1.0000 0.58340  0.97340  0.54440  Biso   1.000  C
  H190     1.0000 0.55900  0.00730  0.52060  Biso   1.000  H
  C283     1.0000 0.60120  0.98300  0.60290  Biso   1.000  C
  C284     1.0000 0.63870  0.93080  0.63670  Biso   1.000  C
  H191     1.0000 0.65220  0.93540  0.67610  Biso   1.000  H
  C285     1.0000 0.65520  0.87230  0.61040  Biso   1.000  C
  H192     1.0000 0.67930  0.83730  0.63300  Biso   1.000  H
  C286     1.0000 0.55440  0.15990  0.62210  Biso   1.000  C
  C287     1.0000 0.57480  0.10400  0.70560  Biso   1.000  C
  C288     1.0000 0.58340  0.04610  0.62930  Biso   1.000  C
  N85      1.0000 0.26990  0.86140  0.13620  Biso   1.000  N
  N86      1.0000 0.27750  0.00280  0.50600  Biso   1.000  N
  N87      1.0000 0.37690  0.51600  0.44100  Biso   1.000  N
  N88      1.0000 0.30190  0.73320  0.32250  Biso   1.000  N
  N89      1.0000 0.28880  0.85380  0.34280  Biso   1.000  N
  N90      1.0000 0.31270  0.77000  0.41760  Biso   1.000  N
  N91      1.0000 0.48790  0.34480  0.52480  Biso   1.000  N
  N92      1.0000 0.58540  0.11270  0.88300  Biso   1.000  N
  N93      1.0000 0.63800  0.86410  0.55410  Biso   1.000  N
  N94      1.0000 0.56490  0.10180  0.59550  Biso   1.000  N
  N95      1.0000 0.56040  0.16500  0.67780  Biso   1.000  N
  N96      1.0000 0.58770  0.04350  0.68460  Biso   1.000  N
