data_DOHYIJ01_clean
_audit_creation_date              2014-07-02
_audit_creation_method            'Materials Studio'
_symmetry_space_group_name_H-M    'P1'
_symmetry_Int_Tables_number       1
_symmetry_cell_setting            triclinic
loop_
_symmetry_equiv_pos_as_xyz
  x,y,z
_cell_length_a                    9.2410
_cell_length_b                    9.5545
_cell_length_c                    21.6026
_cell_angle_alpha                 90.0000
_cell_angle_beta                  90.0000
_cell_angle_gamma                 116.1510
loop_
_atom_site_label
_atom_site_type_symbol
_atom_site_fract_x
_atom_site_fract_y
_atom_site_fract_z
_atom_site_U_iso_or_equiv
_atom_site_adp_type
_atom_site_occupancy
Eu1    Eu    0.12381   0.85880   0.49151   0.01267  Uiso   1.00
Eu2    Eu    0.37619   0.14120   0.99151   0.01267  Uiso   1.00
Eu3    Eu    0.87619   0.14120   0.50849   0.01267  Uiso   1.00
Eu4    Eu    0.62381   0.85880   0.00849   0.01267  Uiso   1.00
Cu1    Cu    0.04049   0.19135   0.85427   0.01267  Uiso   1.00
Cu2    Cu    0.45951   0.80865   0.35427   0.01267  Uiso   1.00
Cu3    Cu    0.95951   0.80865   0.14573   0.01267  Uiso   1.00
Cu4    Cu    0.54049   0.19135   0.64573   0.01267  Uiso   1.00
H1     H     0.99640   0.15410   0.72360   0.01267  Uiso   1.00
H2     H     0.10540   0.81540   0.66640   0.01267  Uiso   1.00
H3     H     0.14870   0.77250   0.76870   0.01267  Uiso   1.00
H4     H     0.12240   0.92560   0.84490   0.01267  Uiso   1.00
H5     H     0.79310   0.29760   0.84380   0.01267  Uiso   1.00
H6     H     0.74600   0.50290   0.87470   0.01267  Uiso   1.00
H7     H     0.93940   0.70300   0.93040   0.01267  Uiso   1.00
H8     H     0.20770   0.47160   0.92970   0.01267  Uiso   1.00
H9     H     0.50360   0.84590   0.22360   0.01267  Uiso   1.00
H10    H     0.39460   0.18460   0.16640   0.01267  Uiso   1.00
H11    H     0.35130   0.22750   0.26870   0.01267  Uiso   1.00
H12    H     0.37760   0.07440   0.34490   0.01267  Uiso   1.00
H13    H     0.70690   0.70240   0.34380   0.01267  Uiso   1.00
H14    H     0.75400   0.49710   0.37470   0.01267  Uiso   1.00
H15    H     0.56060   0.29700   0.43040   0.01267  Uiso   1.00
H16    H     0.29230   0.52840   0.42970   0.01267  Uiso   1.00
H17    H     0.00360   0.84590   0.27640   0.01267  Uiso   1.00
H18    H     0.89460   0.18460   0.33360   0.01267  Uiso   1.00
H19    H     0.85130   0.22750   0.23130   0.01267  Uiso   1.00
H20    H     0.87760   0.07440   0.15510   0.01267  Uiso   1.00
H21    H     0.20690   0.70240   0.15620   0.01267  Uiso   1.00
H22    H     0.25400   0.49710   0.12530   0.01267  Uiso   1.00
H23    H     0.06060   0.29700   0.06960   0.01267  Uiso   1.00
H24    H     0.79230   0.52840   0.07030   0.01267  Uiso   1.00
H25    H     0.49640   0.15410   0.77640   0.01267  Uiso   1.00
H26    H     0.60540   0.81540   0.83360   0.01267  Uiso   1.00
H27    H     0.64870   0.77250   0.73130   0.01267  Uiso   1.00
H28    H     0.62240   0.92560   0.65510   0.01267  Uiso   1.00
H29    H     0.29310   0.29760   0.65620   0.01267  Uiso   1.00
H30    H     0.24600   0.50290   0.62530   0.01267  Uiso   1.00
H31    H     0.43940   0.70300   0.56960   0.01267  Uiso   1.00
H32    H     0.70770   0.47160   0.57030   0.01267  Uiso   1.00
C1     C     0.02940   0.07750   0.73270   0.01267  Uiso   1.00
C2     C     0.04640   0.99200   0.68440   0.01267  Uiso   1.00
C3     C     0.09270   0.87550   0.69780   0.01267  Uiso   1.00
C4     C     0.11930   0.85100   0.75850   0.01267  Uiso   1.00
C5     C     0.10230   0.94280   0.80420   0.01267  Uiso   1.00
C6     C     0.01150   0.02620   0.61990   0.01267  Uiso   1.00
C7     C     0.87050   0.37610   0.86760   0.01267  Uiso   1.00
C8     C     0.84200   0.49980   0.88530   0.01267  Uiso   1.00
C9     C     0.95590   0.61740   0.91860   0.01267  Uiso   1.00
C10    C     0.09650   0.60900   0.93490   0.01267  Uiso   1.00
C11    C     0.11520   0.47950   0.91730   0.01267  Uiso   1.00
C12    C     0.22860   0.74130   0.97000   0.01267  Uiso   1.00
C13    C     0.98820   0.49190   0.46480   0.01267  Uiso   1.00
C14    C     0.99700   0.02310   0.96580   0.01267  Uiso   1.00
C15    C     0.47060   0.92250   0.23270   0.01267  Uiso   1.00
C16    C     0.45360   0.00800   0.18440   0.01267  Uiso   1.00
C17    C     0.40730   0.12450   0.19780   0.01267  Uiso   1.00
C18    C     0.38070   0.14900   0.25850   0.01267  Uiso   1.00
C19    C     0.39770   0.05720   0.30420   0.01267  Uiso   1.00
C20    C     0.48850   0.97380   0.11990   0.01267  Uiso   1.00
C21    C     0.62950   0.62390   0.36760   0.01267  Uiso   1.00
C22    C     0.65800   0.50020   0.38530   0.01267  Uiso   1.00
C23    C     0.54410   0.38260   0.41860   0.01267  Uiso   1.00
C24    C     0.40350   0.39100   0.43490   0.01267  Uiso   1.00
C25    C     0.38480   0.52050   0.41730   0.01267  Uiso   1.00
C26    C     0.27140   0.25870   0.47000   0.01267  Uiso   1.00
C27    C     0.51180   0.50810   0.96480   0.01267  Uiso   1.00
C28    C     0.50300   0.97690   0.46580   0.01267  Uiso   1.00
C29    C     0.97060   0.92250   0.26730   0.01267  Uiso   1.00
C30    C     0.95360   0.00800   0.31560   0.01267  Uiso   1.00
C31    C     0.90730   0.12450   0.30220   0.01267  Uiso   1.00
C32    C     0.88070   0.14900   0.24150   0.01267  Uiso   1.00
C33    C     0.89770   0.05720   0.19580   0.01267  Uiso   1.00
C34    C     0.98850   0.97380   0.38010   0.01267  Uiso   1.00
C35    C     0.12950   0.62390   0.13240   0.01267  Uiso   1.00
C36    C     0.15800   0.50020   0.11470   0.01267  Uiso   1.00
C37    C     0.04410   0.38260   0.08140   0.01267  Uiso   1.00
C38    C     0.90350   0.39100   0.06510   0.01267  Uiso   1.00
C39    C     0.88480   0.52050   0.08270   0.01267  Uiso   1.00
C40    C     0.77140   0.25870   0.03000   0.01267  Uiso   1.00
C41    C     0.01180   0.50810   0.53520   0.01267  Uiso   1.00
C42    C     0.00300   0.97690   0.03420   0.01267  Uiso   1.00
C43    C     0.52940   0.07750   0.76730   0.01267  Uiso   1.00
C44    C     0.54640   0.99200   0.81560   0.01267  Uiso   1.00
C45    C     0.59270   0.87550   0.80220   0.01267  Uiso   1.00
C46    C     0.61930   0.85100   0.74150   0.01267  Uiso   1.00
C47    C     0.60230   0.94280   0.69580   0.01267  Uiso   1.00
C48    C     0.51150   0.02620   0.88010   0.01267  Uiso   1.00
C49    C     0.37050   0.37610   0.63240   0.01267  Uiso   1.00
C50    C     0.34200   0.49980   0.61470   0.01267  Uiso   1.00
C51    C     0.45590   0.61740   0.58140   0.01267  Uiso   1.00
C52    C     0.59650   0.60900   0.56510   0.01267  Uiso   1.00
C53    C     0.61520   0.47950   0.58270   0.01267  Uiso   1.00
C54    C     0.72860   0.74130   0.53000   0.01267  Uiso   1.00
C55    C     0.48820   0.49190   0.03520   0.01267  Uiso   1.00
C56    C     0.49700   0.02310   0.53420   0.01267  Uiso   1.00
N1     N     0.05770   0.05680   0.79220   0.01267  Uiso   1.00
N2     N     0.00490   0.36340   0.88290   0.01267  Uiso   1.00
N3     N     0.44230   0.94320   0.29220   0.01267  Uiso   1.00
N4     N     0.49510   0.63660   0.38290   0.01267  Uiso   1.00
N5     N     0.94230   0.94320   0.20780   0.01267  Uiso   1.00
N6     N     0.99510   0.63660   0.11710   0.01267  Uiso   1.00
N7     N     0.55770   0.05680   0.70780   0.01267  Uiso   1.00
N8     N     0.50490   0.36340   0.61710   0.01267  Uiso   1.00
O1     O     0.05150   0.96640   0.57535   0.01267  Uiso   1.00
O2     O     0.94400   0.11330   0.61333   0.01267  Uiso   1.00
O3     O     0.33620   0.71290   0.99450   0.01267  Uiso   1.00
O4     O     0.22090   0.86830   0.97040   0.01267  Uiso   1.00
O5     O     0.05110   0.61620   0.43382   0.01267  Uiso   1.00
O6     O     0.90880   0.35750   0.44344   0.01267  Uiso   1.00
O7     O     0.12860   0.11790   0.94203   0.01267  Uiso   1.00
O8     O     0.86280   0.96190   0.93900   0.01267  Uiso   1.00
O9     O     0.44850   0.03360   0.07535   0.01267  Uiso   1.00
O10    O     0.55600   0.88670   0.11333   0.01267  Uiso   1.00
O11    O     0.16380   0.28710   0.49450   0.01267  Uiso   1.00
O12    O     0.27910   0.13170   0.47040   0.01267  Uiso   1.00
O13    O     0.44890   0.38380   0.93382   0.01267  Uiso   1.00
O14    O     0.59120   0.64250   0.94344   0.01267  Uiso   1.00
O15    O     0.37140   0.88210   0.44203   0.01267  Uiso   1.00
O16    O     0.63720   0.03810   0.43900   0.01267  Uiso   1.00
O17    O     0.94850   0.03360   0.42465   0.01267  Uiso   1.00
O18    O     0.05600   0.88670   0.38667   0.01267  Uiso   1.00
O19    O     0.66380   0.28710   0.00550   0.01267  Uiso   1.00
O20    O     0.77910   0.13170   0.02960   0.01267  Uiso   1.00
O21    O     0.94890   0.38380   0.56618   0.01267  Uiso   1.00
O22    O     0.09120   0.64250   0.55656   0.01267  Uiso   1.00
O23    O     0.87140   0.88210   0.05797   0.01267  Uiso   1.00
O24    O     0.13720   0.03810   0.06100   0.01267  Uiso   1.00
O25    O     0.55150   0.96640   0.92465   0.01267  Uiso   1.00
O26    O     0.44400   0.11330   0.88667   0.01267  Uiso   1.00
O27    O     0.83620   0.71290   0.50550   0.01267  Uiso   1.00
O28    O     0.72090   0.86830   0.52960   0.01267  Uiso   1.00
O29    O     0.55110   0.61620   0.06618   0.01267  Uiso   1.00
O30    O     0.40880   0.35750   0.05656   0.01267  Uiso   1.00
O31    O     0.62860   0.11790   0.55797   0.01267  Uiso   1.00
O32    O     0.36280   0.96190   0.56100   0.01267  Uiso   1.00
