data_image0
_cell_length_a       9.5107
_cell_length_b       14.6128
_cell_length_c       13.5317
_cell_angle_alpha    90
_cell_angle_beta     90
_cell_angle_gamma    90

_symmetry_space_group_name_H-M    "P 1"
_symmetry_int_tables_number       1

loop_
  _symmetry_equiv_pos_as_xyz
  'x, y, z'

loop_
  _atom_site_label
  _atom_site_occupancy
  _atom_site_fract_x
  _atom_site_fract_y
  _atom_site_fract_z
  _atom_site_thermal_displace_type
  _atom_site_B_iso_or_equiv
  _atom_site_type_symbol
  O1       1.0000 0.03630  0.49366  0.23100  Biso   1.000  O
  O2       1.0000 0.20470  0.39144  0.24975  Biso   1.000  O
  O3       1.0000 0.90770  0.11786  0.55546  Biso   1.000  O
  O4       1.0000 0.08280  0.11130  0.44985  Biso   1.000  O
  C1       1.0000 0.08850  0.42393  0.27421  Biso   1.000  C
  C2       1.0000 0.00720  0.37995  0.35580  Biso   1.000  C
  C3       1.0000 0.90770  0.43010  0.40800  Biso   1.000  C
  H1       1.0000 0.89050  0.49080  0.39130  Biso   1.000  H
  C4       1.0000 0.83420  0.39000  0.48480  Biso   1.000  C
  H2       1.0000 0.76880  0.42420  0.52020  Biso   1.000  H
  C5       1.0000 0.85720  0.29980  0.50930  Biso   1.000  C
  C6       1.0000 0.95670  0.24899  0.45907  Biso   1.000  C
  C7       1.0000 0.03140  0.28945  0.38220  Biso   1.000  C
  H3       1.0000 0.09840  0.25550  0.34810  Biso   1.000  H
  C8       1.0000 0.98460  0.15170  0.49004  Biso   1.000  C
  H4       1.0000 0.80100  0.27600  0.55700  Biso   1.000  H
  O5       1.0000 0.46370  0.50634  0.23100  Biso   1.000  O
  O6       1.0000 0.29530  0.60856  0.24975  Biso   1.000  O
  O7       1.0000 0.59230  0.88214  0.55546  Biso   1.000  O
  O8       1.0000 0.41720  0.88870  0.44985  Biso   1.000  O
  C9       1.0000 0.41150  0.57607  0.27421  Biso   1.000  C
  C10      1.0000 0.49280  0.62005  0.35580  Biso   1.000  C
  C11      1.0000 0.59230  0.56990  0.40800  Biso   1.000  C
  H5       1.0000 0.60950  0.50920  0.39130  Biso   1.000  H
  C12      1.0000 0.66580  0.61000  0.48480  Biso   1.000  C
  H6       1.0000 0.73120  0.57580  0.52020  Biso   1.000  H
  C13      1.0000 0.64280  0.70020  0.50930  Biso   1.000  C
  C14      1.0000 0.54330  0.75101  0.45907  Biso   1.000  C
  C15      1.0000 0.46860  0.71055  0.38220  Biso   1.000  C
  H7       1.0000 0.40160  0.74450  0.34810  Biso   1.000  H
  C16      1.0000 0.51540  0.84830  0.49004  Biso   1.000  C
  H8       1.0000 0.69900  0.72400  0.55700  Biso   1.000  H
  O9       1.0000 0.46370  0.99366  0.26900  Biso   1.000  O
  O10      1.0000 0.29530  0.89144  0.25025  Biso   1.000  O
  O11      1.0000 0.59230  0.61786  0.94454  Biso   1.000  O
  O12      1.0000 0.41720  0.61130  0.05015  Biso   1.000  O
  C17      1.0000 0.41150  0.92393  0.22579  Biso   1.000  C
  C18      1.0000 0.49280  0.87995  0.14420  Biso   1.000  C
  C19      1.0000 0.59230  0.93010  0.09200  Biso   1.000  C
  H9       1.0000 0.60950  0.99080  0.10870  Biso   1.000  H
  C20      1.0000 0.66580  0.89000  0.01520  Biso   1.000  C
  H10      1.0000 0.73120  0.92420  0.97980  Biso   1.000  H
  C21      1.0000 0.64280  0.79980  0.99070  Biso   1.000  C
  C22      1.0000 0.54330  0.74899  0.04093  Biso   1.000  C
  C23      1.0000 0.46860  0.78945  0.11780  Biso   1.000  C
  H11      1.0000 0.40160  0.75550  0.15190  Biso   1.000  H
  C24      1.0000 0.51540  0.65170  0.00996  Biso   1.000  C
  H12      1.0000 0.69900  0.77600  0.94300  Biso   1.000  H
  O13      1.0000 0.03630  0.00634  0.26900  Biso   1.000  O
  O14      1.0000 0.20470  0.10856  0.25025  Biso   1.000  O
  O15      1.0000 0.90770  0.38214  0.94454  Biso   1.000  O
  O16      1.0000 0.08280  0.38870  0.05015  Biso   1.000  O
  C25      1.0000 0.08850  0.07607  0.22579  Biso   1.000  C
  C26      1.0000 0.00720  0.12005  0.14420  Biso   1.000  C
  C27      1.0000 0.90770  0.06990  0.09200  Biso   1.000  C
  H13      1.0000 0.89050  0.00920  0.10870  Biso   1.000  H
  C28      1.0000 0.83420  0.11000  0.01520  Biso   1.000  C
  H14      1.0000 0.76880  0.07580  0.97980  Biso   1.000  H
  C29      1.0000 0.85720  0.20020  0.99070  Biso   1.000  C
  C30      1.0000 0.95670  0.25101  0.04093  Biso   1.000  C
  C31      1.0000 0.03140  0.21055  0.11780  Biso   1.000  C
  H15      1.0000 0.09840  0.24450  0.15190  Biso   1.000  H
  C32      1.0000 0.98460  0.34830  0.00996  Biso   1.000  C
  H16      1.0000 0.80100  0.22400  0.94300  Biso   1.000  H
  O17      1.0000 0.96370  0.50634  0.76900  Biso   1.000  O
  O18      1.0000 0.79530  0.60856  0.75025  Biso   1.000  O
  O19      1.0000 0.09230  0.88214  0.44454  Biso   1.000  O
  O20      1.0000 0.91720  0.88870  0.55015  Biso   1.000  O
  C33      1.0000 0.91150  0.57607  0.72579  Biso   1.000  C
  C34      1.0000 0.99280  0.62005  0.64420  Biso   1.000  C
  C35      1.0000 0.09230  0.56990  0.59200  Biso   1.000  C
  H17      1.0000 0.10950  0.50920  0.60870  Biso   1.000  H
  C36      1.0000 0.16580  0.61000  0.51520  Biso   1.000  C
  H18      1.0000 0.23120  0.57580  0.47980  Biso   1.000  H
  C37      1.0000 0.14280  0.70020  0.49070  Biso   1.000  C
  C38      1.0000 0.04330  0.75101  0.54093  Biso   1.000  C
  C39      1.0000 0.96860  0.71055  0.61780  Biso   1.000  C
  H19      1.0000 0.90160  0.74450  0.65190  Biso   1.000  H
  C40      1.0000 0.01540  0.84830  0.50996  Biso   1.000  C
  H20      1.0000 0.19900  0.72400  0.44300  Biso   1.000  H
  O21      1.0000 0.53630  0.49366  0.76900  Biso   1.000  O
  O22      1.0000 0.70470  0.39144  0.75025  Biso   1.000  O
  O23      1.0000 0.40770  0.11786  0.44454  Biso   1.000  O
  O24      1.0000 0.58280  0.11130  0.55015  Biso   1.000  O
  C41      1.0000 0.58850  0.42393  0.72579  Biso   1.000  C
  C42      1.0000 0.50720  0.37995  0.64420  Biso   1.000  C
  C43      1.0000 0.40770  0.43010  0.59200  Biso   1.000  C
  H21      1.0000 0.39050  0.49080  0.60870  Biso   1.000  H
  C44      1.0000 0.33420  0.39000  0.51520  Biso   1.000  C
  H22      1.0000 0.26880  0.42420  0.47980  Biso   1.000  H
  C45      1.0000 0.35720  0.29980  0.49070  Biso   1.000  C
  C46      1.0000 0.45670  0.24899  0.54093  Biso   1.000  C
  C47      1.0000 0.53140  0.28945  0.61780  Biso   1.000  C
  H23      1.0000 0.59840  0.25550  0.65190  Biso   1.000  H
  C48      1.0000 0.48460  0.15170  0.50996  Biso   1.000  C
  H24      1.0000 0.30100  0.27600  0.44300  Biso   1.000  H
  O25      1.0000 0.53630  0.00634  0.73100  Biso   1.000  O
  O26      1.0000 0.70470  0.10856  0.74975  Biso   1.000  O
  O27      1.0000 0.40770  0.38214  0.05546  Biso   1.000  O
  O28      1.0000 0.58280  0.38870  0.94985  Biso   1.000  O
  C49      1.0000 0.58850  0.07607  0.77421  Biso   1.000  C
  C50      1.0000 0.50720  0.12005  0.85580  Biso   1.000  C
  C51      1.0000 0.40770  0.06990  0.90800  Biso   1.000  C
  H25      1.0000 0.39050  0.00920  0.89130  Biso   1.000  H
  C52      1.0000 0.33420  0.11000  0.98480  Biso   1.000  C
  H26      1.0000 0.26880  0.07580  0.02020  Biso   1.000  H
  C53      1.0000 0.35720  0.20020  0.00930  Biso   1.000  C
  C54      1.0000 0.45670  0.25101  0.95907  Biso   1.000  C
  C55      1.0000 0.53140  0.21055  0.88220  Biso   1.000  C
  H27      1.0000 0.59840  0.24450  0.84810  Biso   1.000  H
  C56      1.0000 0.48460  0.34830  0.99004  Biso   1.000  C
  H28      1.0000 0.30100  0.22400  0.05700  Biso   1.000  H
  O29      1.0000 0.96370  0.99366  0.73100  Biso   1.000  O
  O30      1.0000 0.79530  0.89144  0.74975  Biso   1.000  O
  O31      1.0000 0.09230  0.61786  0.05546  Biso   1.000  O
  O32      1.0000 0.91720  0.61130  0.94985  Biso   1.000  O
  C57      1.0000 0.91150  0.92393  0.77421  Biso   1.000  C
  C58      1.0000 0.99280  0.87995  0.85580  Biso   1.000  C
  C59      1.0000 0.09230  0.93010  0.90800  Biso   1.000  C
  H29      1.0000 0.10950  0.99080  0.89130  Biso   1.000  H
  C60      1.0000 0.16580  0.89000  0.98480  Biso   1.000  C
  H30      1.0000 0.23120  0.92420  0.02020  Biso   1.000  H
  C61      1.0000 0.14280  0.79980  0.00930  Biso   1.000  C
  C62      1.0000 0.04330  0.74899  0.95907  Biso   1.000  C
  C63      1.0000 0.96860  0.78945  0.88220  Biso   1.000  C
  H31      1.0000 0.90160  0.75550  0.84810  Biso   1.000  H
  C64      1.0000 0.01540  0.65170  0.99004  Biso   1.000  C
  H32      1.0000 0.19900  0.77600  0.05700  Biso   1.000  H
  Nd1      1.0000 0.25000  0.50000  0.10438  Biso   1.000  Nd
  Nd2      1.0000 0.25000  0.00000  0.39563  Biso   1.000  Nd
  Nd3      1.0000 0.75000  0.50000  0.89563  Biso   1.000  Nd
  Nd4      1.0000 0.75000  0.00000  0.60438  Biso   1.000  Nd
