data_image0
_cell_length_a       9.5051
_cell_length_b       14.6243
_cell_length_c       13.5603
_cell_angle_alpha    90
_cell_angle_beta     90
_cell_angle_gamma    90

_symmetry_space_group_name_H-M    "P 1"
_symmetry_int_tables_number       1

loop_
  _symmetry_equiv_pos_as_xyz
  'x, y, z'

loop_
  _atom_site_label
  _atom_site_occupancy
  _atom_site_fract_x
  _atom_site_fract_y
  _atom_site_fract_z
  _atom_site_thermal_displace_type
  _atom_site_B_iso_or_equiv
  _atom_site_type_symbol
  O1       1.0000 0.08190  0.11096  0.55062  Biso   1.000  O
  O2       1.0000 0.90769  0.11830  0.44381  Biso   1.000  O
  C1       1.0000 0.03120  0.28949  0.61719  Biso   1.000  C
  O3       1.0000 0.20456  0.39117  0.74982  Biso   1.000  O
  C2       1.0000 0.00660  0.37983  0.64350  Biso   1.000  C
  C3       1.0000 0.08790  0.42415  0.72530  Biso   1.000  C
  C4       1.0000 0.90760  0.43011  0.59140  Biso   1.000  C
  C5       1.0000 0.98400  0.15192  0.50985  Biso   1.000  C
  C6       1.0000 0.95660  0.24909  0.54051  Biso   1.000  C
  C7       1.0000 0.85720  0.30033  0.49019  Biso   1.000  C
  C8       1.0000 0.83460  0.39042  0.51460  Biso   1.000  C
  O4       1.0000 0.03577  0.49361  0.76841  Biso   1.000  O
  H1       1.0000 0.09600  0.25490  0.64960  Biso   1.000  H
  H2       1.0000 0.80400  0.27490  0.44200  Biso   1.000  H
  H3       1.0000 0.88100  0.48800  0.61700  Biso   1.000  H
  H4       1.0000 0.76900  0.42200  0.47800  Biso   1.000  H
  O5       1.0000 0.41810  0.88904  0.55062  Biso   1.000  O
  O6       1.0000 0.59231  0.88170  0.44381  Biso   1.000  O
  C9       1.0000 0.46880  0.71051  0.61719  Biso   1.000  C
  O7       1.0000 0.29544  0.60883  0.74982  Biso   1.000  O
  C10      1.0000 0.49340  0.62017  0.64350  Biso   1.000  C
  C11      1.0000 0.41210  0.57585  0.72530  Biso   1.000  C
  C12      1.0000 0.59240  0.56989  0.59140  Biso   1.000  C
  C13      1.0000 0.51600  0.84808  0.50985  Biso   1.000  C
  C14      1.0000 0.54340  0.75091  0.54051  Biso   1.000  C
  C15      1.0000 0.64280  0.69967  0.49019  Biso   1.000  C
  C16      1.0000 0.66540  0.60958  0.51460  Biso   1.000  C
  O8       1.0000 0.46423  0.50639  0.76841  Biso   1.000  O
  H5       1.0000 0.40400  0.74510  0.64960  Biso   1.000  H
  H6       1.0000 0.69600  0.72510  0.44200  Biso   1.000  H
  H7       1.0000 0.61900  0.51200  0.61700  Biso   1.000  H
  H8       1.0000 0.73100  0.57800  0.47800  Biso   1.000  H
  O9       1.0000 0.41810  0.61096  0.94938  Biso   1.000  O
  O10      1.0000 0.59231  0.61830  0.05619  Biso   1.000  O
  C17      1.0000 0.46880  0.78949  0.88281  Biso   1.000  C
  O11      1.0000 0.29544  0.89117  0.75018  Biso   1.000  O
  C18      1.0000 0.49340  0.87983  0.85650  Biso   1.000  C
  C19      1.0000 0.41210  0.92415  0.77470  Biso   1.000  C
  C20      1.0000 0.59240  0.93011  0.90860  Biso   1.000  C
  C21      1.0000 0.51600  0.65192  0.99015  Biso   1.000  C
  C22      1.0000 0.54340  0.74909  0.95949  Biso   1.000  C
  C23      1.0000 0.64280  0.80033  0.00981  Biso   1.000  C
  C24      1.0000 0.66540  0.89042  0.98540  Biso   1.000  C
  O12      1.0000 0.46423  0.99361  0.73159  Biso   1.000  O
  H9       1.0000 0.40400  0.75490  0.85040  Biso   1.000  H
  H10      1.0000 0.69600  0.77490  0.05800  Biso   1.000  H
  H11      1.0000 0.61900  0.98800  0.88300  Biso   1.000  H
  H12      1.0000 0.73100  0.92200  0.02200  Biso   1.000  H
  O13      1.0000 0.08190  0.38904  0.94938  Biso   1.000  O
  O14      1.0000 0.90769  0.38170  0.05619  Biso   1.000  O
  C25      1.0000 0.03120  0.21051  0.88281  Biso   1.000  C
  O15      1.0000 0.20456  0.10883  0.75018  Biso   1.000  O
  C26      1.0000 0.00660  0.12017  0.85650  Biso   1.000  C
  C27      1.0000 0.08790  0.07585  0.77470  Biso   1.000  C
  C28      1.0000 0.90760  0.06989  0.90860  Biso   1.000  C
  C29      1.0000 0.98400  0.34808  0.99015  Biso   1.000  C
  C30      1.0000 0.95660  0.25091  0.95949  Biso   1.000  C
  C31      1.0000 0.85720  0.19967  0.00981  Biso   1.000  C
  C32      1.0000 0.83460  0.10958  0.98540  Biso   1.000  C
  O16      1.0000 0.03577  0.00639  0.73159  Biso   1.000  O
  H13      1.0000 0.09600  0.24510  0.85040  Biso   1.000  H
  H14      1.0000 0.80400  0.22510  0.05800  Biso   1.000  H
  H15      1.0000 0.88100  0.01200  0.88300  Biso   1.000  H
  H16      1.0000 0.76900  0.07800  0.02200  Biso   1.000  H
  O17      1.0000 0.91810  0.88904  0.44938  Biso   1.000  O
  O18      1.0000 0.09231  0.88170  0.55619  Biso   1.000  O
  C33      1.0000 0.96880  0.71051  0.38281  Biso   1.000  C
  O19      1.0000 0.79544  0.60883  0.25018  Biso   1.000  O
  C34      1.0000 0.99340  0.62017  0.35650  Biso   1.000  C
  C35      1.0000 0.91210  0.57585  0.27470  Biso   1.000  C
  C36      1.0000 0.09240  0.56989  0.40860  Biso   1.000  C
  C37      1.0000 0.01600  0.84808  0.49015  Biso   1.000  C
  C38      1.0000 0.04340  0.75091  0.45949  Biso   1.000  C
  C39      1.0000 0.14280  0.69967  0.50981  Biso   1.000  C
  C40      1.0000 0.16540  0.60958  0.48540  Biso   1.000  C
  O20      1.0000 0.96423  0.50639  0.23159  Biso   1.000  O
  H17      1.0000 0.90400  0.74510  0.35040  Biso   1.000  H
  H18      1.0000 0.19600  0.72510  0.55800  Biso   1.000  H
  H19      1.0000 0.11900  0.51200  0.38300  Biso   1.000  H
  H20      1.0000 0.23100  0.57800  0.52200  Biso   1.000  H
  O21      1.0000 0.58190  0.11096  0.44938  Biso   1.000  O
  O22      1.0000 0.40769  0.11830  0.55619  Biso   1.000  O
  C41      1.0000 0.53120  0.28949  0.38281  Biso   1.000  C
  O23      1.0000 0.70456  0.39117  0.25018  Biso   1.000  O
  C42      1.0000 0.50660  0.37983  0.35650  Biso   1.000  C
  C43      1.0000 0.58790  0.42415  0.27470  Biso   1.000  C
  C44      1.0000 0.40760  0.43011  0.40860  Biso   1.000  C
  C45      1.0000 0.48400  0.15192  0.49015  Biso   1.000  C
  C46      1.0000 0.45660  0.24909  0.45949  Biso   1.000  C
  C47      1.0000 0.35720  0.30033  0.50981  Biso   1.000  C
  C48      1.0000 0.33460  0.39042  0.48540  Biso   1.000  C
  O24      1.0000 0.53577  0.49361  0.23159  Biso   1.000  O
  H21      1.0000 0.59600  0.25490  0.35040  Biso   1.000  H
  H22      1.0000 0.30400  0.27490  0.55800  Biso   1.000  H
  H23      1.0000 0.38100  0.48800  0.38300  Biso   1.000  H
  H24      1.0000 0.26900  0.42200  0.52200  Biso   1.000  H
  O25      1.0000 0.58190  0.38904  0.05062  Biso   1.000  O
  O26      1.0000 0.40769  0.38170  0.94381  Biso   1.000  O
  C49      1.0000 0.53120  0.21051  0.11719  Biso   1.000  C
  O27      1.0000 0.70456  0.10883  0.24982  Biso   1.000  O
  C50      1.0000 0.50660  0.12017  0.14350  Biso   1.000  C
  C51      1.0000 0.58790  0.07585  0.22530  Biso   1.000  C
  C52      1.0000 0.40760  0.06989  0.09140  Biso   1.000  C
  C53      1.0000 0.48400  0.34808  0.00985  Biso   1.000  C
  C54      1.0000 0.45660  0.25091  0.04051  Biso   1.000  C
  C55      1.0000 0.35720  0.19967  0.99019  Biso   1.000  C
  C56      1.0000 0.33460  0.10958  0.01460  Biso   1.000  C
  O28      1.0000 0.53577  0.00639  0.26841  Biso   1.000  O
  H25      1.0000 0.59600  0.24510  0.14960  Biso   1.000  H
  H26      1.0000 0.30400  0.22510  0.94200  Biso   1.000  H
  H27      1.0000 0.38100  0.01200  0.11700  Biso   1.000  H
  H28      1.0000 0.26900  0.07800  0.97800  Biso   1.000  H
  O29      1.0000 0.91810  0.61096  0.05062  Biso   1.000  O
  O30      1.0000 0.09231  0.61830  0.94381  Biso   1.000  O
  C57      1.0000 0.96880  0.78949  0.11719  Biso   1.000  C
  O31      1.0000 0.79544  0.89117  0.24982  Biso   1.000  O
  C58      1.0000 0.99340  0.87983  0.14350  Biso   1.000  C
  C59      1.0000 0.91210  0.92415  0.22530  Biso   1.000  C
  C60      1.0000 0.09240  0.93011  0.09140  Biso   1.000  C
  C61      1.0000 0.01600  0.65192  0.00985  Biso   1.000  C
  C62      1.0000 0.04340  0.74909  0.04051  Biso   1.000  C
  C63      1.0000 0.14280  0.80033  0.99019  Biso   1.000  C
  C64      1.0000 0.16540  0.89042  0.01460  Biso   1.000  C
  O32      1.0000 0.96423  0.99361  0.26841  Biso   1.000  O
  H29      1.0000 0.90400  0.75490  0.14960  Biso   1.000  H
  H30      1.0000 0.19600  0.77490  0.94200  Biso   1.000  H
  H31      1.0000 0.11900  0.98800  0.11700  Biso   1.000  H
  H32      1.0000 0.23100  0.92200  0.97800  Biso   1.000  H
  Pr1      1.0000 0.25000  0.00000  0.60466  Biso   1.000  Pr
  Pr2      1.0000 0.25000  0.50000  0.89534  Biso   1.000  Pr
  Pr3      1.0000 0.75000  0.00000  0.39534  Biso   1.000  Pr
  Pr4      1.0000 0.75000  0.50000  0.10466  Biso   1.000  Pr
