data_image0
_cell_length_a       9.5277
_cell_length_b       14.692
_cell_length_c       13.6772
_cell_angle_alpha    90
_cell_angle_beta     90
_cell_angle_gamma    90

_symmetry_space_group_name_H-M    "P 1"
_symmetry_int_tables_number       1

loop_
  _symmetry_equiv_pos_as_xyz
  'x, y, z'

loop_
  _atom_site_label
  _atom_site_occupancy
  _atom_site_fract_x
  _atom_site_fract_y
  _atom_site_fract_z
  _atom_site_thermal_displace_type
  _atom_site_B_iso_or_equiv
  _atom_site_type_symbol
  H1       1.0000 0.76700  0.42300  0.97100  Biso   1.000  H
  H2       1.0000 0.88700  0.48610  0.11100  Biso   1.000  H
  H3       1.0000 0.80400  0.27600  0.94070  Biso   1.000  H
  H4       1.0000 0.09350  0.25680  0.15350  Biso   1.000  H
  O1       1.0000 0.07778  0.11186  0.05197  Biso   1.000  O
  O2       1.0000 0.90947  0.12045  0.94283  Biso   1.000  O
  O3       1.0000 0.03529  0.49398  0.26559  Biso   1.000  O
  O4       1.0000 0.20195  0.39033  0.24799  Biso   1.000  O
  C1       1.0000 0.02920  0.29035  0.11663  Biso   1.000  C
  C2       1.0000 0.00540  0.38018  0.14248  Biso   1.000  C
  C3       1.0000 0.98290  0.15333  0.00999  Biso   1.000  C
  C4       1.0000 0.83400  0.39100  0.01430  Biso   1.000  C
  C5       1.0000 0.95510  0.25015  0.04021  Biso   1.000  C
  C6       1.0000 0.90670  0.43043  0.09050  Biso   1.000  C
  C7       1.0000 0.85700  0.30100  0.99036  Biso   1.000  C
  C8       1.0000 0.08650  0.42396  0.22350  Biso   1.000  C
  H5       1.0000 0.73300  0.57700  0.97100  Biso   1.000  H
  H6       1.0000 0.61300  0.51390  0.11100  Biso   1.000  H
  H7       1.0000 0.69600  0.72400  0.94070  Biso   1.000  H
  H8       1.0000 0.40650  0.74320  0.15350  Biso   1.000  H
  O5       1.0000 0.42222  0.88814  0.05197  Biso   1.000  O
  O6       1.0000 0.59053  0.87955  0.94283  Biso   1.000  O
  O7       1.0000 0.46471  0.50602  0.26559  Biso   1.000  O
  O8       1.0000 0.29805  0.60967  0.24799  Biso   1.000  O
  C9       1.0000 0.47080  0.70965  0.11663  Biso   1.000  C
  C10      1.0000 0.49460  0.61982  0.14248  Biso   1.000  C
  C11      1.0000 0.51710  0.84667  0.00999  Biso   1.000  C
  C12      1.0000 0.66600  0.60900  0.01430  Biso   1.000  C
  C13      1.0000 0.54490  0.74985  0.04021  Biso   1.000  C
  C14      1.0000 0.59330  0.56957  0.09050  Biso   1.000  C
  C15      1.0000 0.64300  0.69900  0.99036  Biso   1.000  C
  C16      1.0000 0.41350  0.57604  0.22350  Biso   1.000  C
  H9       1.0000 0.73300  0.92300  0.52900  Biso   1.000  H
  H10      1.0000 0.61300  0.98610  0.38900  Biso   1.000  H
  H11      1.0000 0.69600  0.77600  0.55930  Biso   1.000  H
  H12      1.0000 0.40650  0.75680  0.34650  Biso   1.000  H
  O9       1.0000 0.42222  0.61186  0.44803  Biso   1.000  O
  O10      1.0000 0.59053  0.62045  0.55717  Biso   1.000  O
  O11      1.0000 0.46471  0.99398  0.23441  Biso   1.000  O
  O12      1.0000 0.29805  0.89033  0.25201  Biso   1.000  O
  C17      1.0000 0.47080  0.79035  0.38337  Biso   1.000  C
  C18      1.0000 0.49460  0.88018  0.35752  Biso   1.000  C
  C19      1.0000 0.51710  0.65333  0.49001  Biso   1.000  C
  C20      1.0000 0.66600  0.89100  0.48570  Biso   1.000  C
  C21      1.0000 0.54490  0.75015  0.45979  Biso   1.000  C
  C22      1.0000 0.59330  0.93043  0.40950  Biso   1.000  C
  C23      1.0000 0.64300  0.80100  0.50964  Biso   1.000  C
  C24      1.0000 0.41350  0.92396  0.27650  Biso   1.000  C
  H13      1.0000 0.76700  0.07700  0.52900  Biso   1.000  H
  H14      1.0000 0.88700  0.01390  0.38900  Biso   1.000  H
  H15      1.0000 0.80400  0.22400  0.55930  Biso   1.000  H
  H16      1.0000 0.09350  0.24320  0.34650  Biso   1.000  H
  O13      1.0000 0.07778  0.38814  0.44803  Biso   1.000  O
  O14      1.0000 0.90947  0.37955  0.55717  Biso   1.000  O
  O15      1.0000 0.03529  0.00602  0.23441  Biso   1.000  O
  O16      1.0000 0.20195  0.10967  0.25201  Biso   1.000  O
  C25      1.0000 0.02920  0.20965  0.38337  Biso   1.000  C
  C26      1.0000 0.00540  0.11982  0.35752  Biso   1.000  C
  C27      1.0000 0.98290  0.34667  0.49001  Biso   1.000  C
  C28      1.0000 0.83400  0.10900  0.48570  Biso   1.000  C
  C29      1.0000 0.95510  0.24985  0.45979  Biso   1.000  C
  C30      1.0000 0.90670  0.06957  0.40950  Biso   1.000  C
  C31      1.0000 0.85700  0.19900  0.50964  Biso   1.000  C
  C32      1.0000 0.08650  0.07604  0.27650  Biso   1.000  C
  H17      1.0000 0.23300  0.57700  0.02900  Biso   1.000  H
  H18      1.0000 0.11300  0.51390  0.88900  Biso   1.000  H
  H19      1.0000 0.19600  0.72400  0.05930  Biso   1.000  H
  H20      1.0000 0.90650  0.74320  0.84650  Biso   1.000  H
  O17      1.0000 0.92222  0.88814  0.94803  Biso   1.000  O
  O18      1.0000 0.09053  0.87955  0.05717  Biso   1.000  O
  O19      1.0000 0.96471  0.50602  0.73441  Biso   1.000  O
  O20      1.0000 0.79805  0.60967  0.75201  Biso   1.000  O
  C33      1.0000 0.97080  0.70965  0.88337  Biso   1.000  C
  C34      1.0000 0.99460  0.61982  0.85752  Biso   1.000  C
  C35      1.0000 0.01710  0.84667  0.99001  Biso   1.000  C
  C36      1.0000 0.16600  0.60900  0.98570  Biso   1.000  C
  C37      1.0000 0.04490  0.74985  0.95979  Biso   1.000  C
  C38      1.0000 0.09330  0.56957  0.90950  Biso   1.000  C
  C39      1.0000 0.14300  0.69900  0.00964  Biso   1.000  C
  C40      1.0000 0.91350  0.57604  0.77650  Biso   1.000  C
  H21      1.0000 0.26700  0.42300  0.02900  Biso   1.000  H
  H22      1.0000 0.38700  0.48610  0.88900  Biso   1.000  H
  H23      1.0000 0.30400  0.27600  0.05930  Biso   1.000  H
  H24      1.0000 0.59350  0.25680  0.84650  Biso   1.000  H
  O21      1.0000 0.57778  0.11186  0.94803  Biso   1.000  O
  O22      1.0000 0.40947  0.12045  0.05717  Biso   1.000  O
  O23      1.0000 0.53529  0.49398  0.73441  Biso   1.000  O
  O24      1.0000 0.70195  0.39033  0.75201  Biso   1.000  O
  C41      1.0000 0.52920  0.29035  0.88337  Biso   1.000  C
  C42      1.0000 0.50540  0.38018  0.85752  Biso   1.000  C
  C43      1.0000 0.48290  0.15333  0.99001  Biso   1.000  C
  C44      1.0000 0.33400  0.39100  0.98570  Biso   1.000  C
  C45      1.0000 0.45510  0.25015  0.95979  Biso   1.000  C
  C46      1.0000 0.40670  0.43043  0.90950  Biso   1.000  C
  C47      1.0000 0.35700  0.30100  0.00964  Biso   1.000  C
  C48      1.0000 0.58650  0.42396  0.77650  Biso   1.000  C
  H25      1.0000 0.26700  0.07700  0.47100  Biso   1.000  H
  H26      1.0000 0.38700  0.01390  0.61100  Biso   1.000  H
  H27      1.0000 0.30400  0.22400  0.44070  Biso   1.000  H
  H28      1.0000 0.59350  0.24320  0.65350  Biso   1.000  H
  O25      1.0000 0.57778  0.38814  0.55197  Biso   1.000  O
  O26      1.0000 0.40947  0.37955  0.44283  Biso   1.000  O
  O27      1.0000 0.53529  0.00602  0.76559  Biso   1.000  O
  O28      1.0000 0.70195  0.10967  0.74799  Biso   1.000  O
  C49      1.0000 0.52920  0.20965  0.61663  Biso   1.000  C
  C50      1.0000 0.50540  0.11982  0.64248  Biso   1.000  C
  C51      1.0000 0.48290  0.34667  0.50999  Biso   1.000  C
  C52      1.0000 0.33400  0.10900  0.51430  Biso   1.000  C
  C53      1.0000 0.45510  0.24985  0.54021  Biso   1.000  C
  C54      1.0000 0.40670  0.06957  0.59050  Biso   1.000  C
  C55      1.0000 0.35700  0.19900  0.49036  Biso   1.000  C
  C56      1.0000 0.58650  0.07604  0.72350  Biso   1.000  C
  H29      1.0000 0.23300  0.92300  0.47100  Biso   1.000  H
  H30      1.0000 0.11300  0.98610  0.61100  Biso   1.000  H
  H31      1.0000 0.19600  0.77600  0.44070  Biso   1.000  H
  H32      1.0000 0.90650  0.75680  0.65350  Biso   1.000  H
  O29      1.0000 0.92222  0.61186  0.55197  Biso   1.000  O
  O30      1.0000 0.09053  0.62045  0.44283  Biso   1.000  O
  O31      1.0000 0.96471  0.99398  0.76559  Biso   1.000  O
  O32      1.0000 0.79805  0.89033  0.74799  Biso   1.000  O
  C57      1.0000 0.97080  0.79035  0.61663  Biso   1.000  C
  C58      1.0000 0.99460  0.88018  0.64248  Biso   1.000  C
  C59      1.0000 0.01710  0.65333  0.50999  Biso   1.000  C
  C60      1.0000 0.16600  0.89100  0.51430  Biso   1.000  C
  C61      1.0000 0.04490  0.75015  0.54021  Biso   1.000  C
  C62      1.0000 0.09330  0.93043  0.59050  Biso   1.000  C
  C63      1.0000 0.14300  0.80100  0.49036  Biso   1.000  C
  C64      1.0000 0.91350  0.92396  0.72350  Biso   1.000  C
  La1      1.0000 0.25000  0.00000  0.10581  Biso   1.000  La
  La2      1.0000 0.25000  0.50000  0.39419  Biso   1.000  La
  La3      1.0000 0.75000  0.00000  0.89419  Biso   1.000  La
  La4      1.0000 0.75000  0.50000  0.60581  Biso   1.000  La
