data_image0
_cell_length_a       9.43
_cell_length_b       14.48
_cell_length_c       13.306
_cell_angle_alpha    90
_cell_angle_beta     90
_cell_angle_gamma    90

_symmetry_space_group_name_H-M    "P 1"
_symmetry_int_tables_number       1

loop_
  _symmetry_equiv_pos_as_xyz
  'x, y, z'

loop_
  _atom_site_label
  _atom_site_occupancy
  _atom_site_fract_x
  _atom_site_fract_y
  _atom_site_fract_z
  _atom_site_thermal_displace_type
  _atom_site_B_iso_or_equiv
  _atom_site_type_symbol
  O1       1.0000 0.20980  0.39321  0.24521  Biso   1.000  O
  O2       1.0000 0.03610  0.49290  0.22546  Biso   1.000  O
  O3       1.0000 0.08950  0.10897  0.45231  Biso   1.000  O
  O4       1.0000 0.90400  0.11348  0.55316  Biso   1.000  O
  C1       1.0000 0.09090  0.42442  0.27058  Biso   1.000  C
  C2       1.0000 0.01030  0.37931  0.35419  Biso   1.000  C
  C3       1.0000 0.91050  0.43060  0.40710  Biso   1.000  C
  C4       1.0000 0.83480  0.38910  0.48460  Biso   1.000  C
  C5       1.0000 0.85830  0.29850  0.50900  Biso   1.000  C
  C6       1.0000 0.95850  0.24652  0.45876  Biso   1.000  C
  C7       1.0000 0.03470  0.28859  0.38119  Biso   1.000  C
  C8       1.0000 0.98630  0.14830  0.48971  Biso   1.000  C
  H1       1.0000 0.09300  0.25720  0.34850  Biso   1.000  H
  H2       1.0000 0.86900  0.48400  0.37700  Biso   1.000  H
  H3       1.0000 0.81400  0.27200  0.56000  Biso   1.000  H
  H4       1.0000 0.76800  0.41700  0.51600  Biso   1.000  H
  O5       1.0000 0.29020  0.60679  0.24521  Biso   1.000  O
  O6       1.0000 0.46390  0.50710  0.22546  Biso   1.000  O
  O7       1.0000 0.41050  0.89103  0.45231  Biso   1.000  O
  O8       1.0000 0.59600  0.88652  0.55316  Biso   1.000  O
  C9       1.0000 0.40910  0.57558  0.27058  Biso   1.000  C
  C10      1.0000 0.48970  0.62069  0.35419  Biso   1.000  C
  C11      1.0000 0.58950  0.56940  0.40710  Biso   1.000  C
  C12      1.0000 0.66520  0.61090  0.48460  Biso   1.000  C
  C13      1.0000 0.64170  0.70150  0.50900  Biso   1.000  C
  C14      1.0000 0.54150  0.75348  0.45876  Biso   1.000  C
  C15      1.0000 0.46530  0.71141  0.38119  Biso   1.000  C
  C16      1.0000 0.51370  0.85170  0.48971  Biso   1.000  C
  H5       1.0000 0.40700  0.74280  0.34850  Biso   1.000  H
  H6       1.0000 0.63100  0.51600  0.37700  Biso   1.000  H
  H7       1.0000 0.68600  0.72800  0.56000  Biso   1.000  H
  H8       1.0000 0.73200  0.58300  0.51600  Biso   1.000  H
  O9       1.0000 0.29020  0.89321  0.25479  Biso   1.000  O
  O10      1.0000 0.46390  0.99290  0.27454  Biso   1.000  O
  O11      1.0000 0.41050  0.60897  0.04769  Biso   1.000  O
  O12      1.0000 0.59600  0.61348  0.94684  Biso   1.000  O
  C17      1.0000 0.40910  0.92442  0.22942  Biso   1.000  C
  C18      1.0000 0.48970  0.87931  0.14581  Biso   1.000  C
  C19      1.0000 0.58950  0.93060  0.09290  Biso   1.000  C
  C20      1.0000 0.66520  0.88910  0.01540  Biso   1.000  C
  C21      1.0000 0.64170  0.79850  0.99100  Biso   1.000  C
  C22      1.0000 0.54150  0.74652  0.04124  Biso   1.000  C
  C23      1.0000 0.46530  0.78859  0.11881  Biso   1.000  C
  C24      1.0000 0.51370  0.64830  0.01029  Biso   1.000  C
  H9       1.0000 0.40700  0.75720  0.15150  Biso   1.000  H
  H10      1.0000 0.63100  0.98400  0.12300  Biso   1.000  H
  H11      1.0000 0.68600  0.77200  0.94000  Biso   1.000  H
  H12      1.0000 0.73200  0.91700  0.98400  Biso   1.000  H
  O13      1.0000 0.20980  0.10679  0.25479  Biso   1.000  O
  O14      1.0000 0.03610  0.00710  0.27454  Biso   1.000  O
  O15      1.0000 0.08950  0.39103  0.04769  Biso   1.000  O
  O16      1.0000 0.90400  0.38652  0.94684  Biso   1.000  O
  C25      1.0000 0.09090  0.07558  0.22942  Biso   1.000  C
  C26      1.0000 0.01030  0.12069  0.14581  Biso   1.000  C
  C27      1.0000 0.91050  0.06940  0.09290  Biso   1.000  C
  C28      1.0000 0.83480  0.11090  0.01540  Biso   1.000  C
  C29      1.0000 0.85830  0.20150  0.99100  Biso   1.000  C
  C30      1.0000 0.95850  0.25348  0.04124  Biso   1.000  C
  C31      1.0000 0.03470  0.21141  0.11881  Biso   1.000  C
  C32      1.0000 0.98630  0.35170  0.01029  Biso   1.000  C
  H13      1.0000 0.09300  0.24280  0.15150  Biso   1.000  H
  H14      1.0000 0.86900  0.01600  0.12300  Biso   1.000  H
  H15      1.0000 0.81400  0.22800  0.94000  Biso   1.000  H
  H16      1.0000 0.76800  0.08300  0.98400  Biso   1.000  H
  O17      1.0000 0.79020  0.60679  0.75479  Biso   1.000  O
  O18      1.0000 0.96390  0.50710  0.77454  Biso   1.000  O
  O19      1.0000 0.91050  0.89103  0.54769  Biso   1.000  O
  O20      1.0000 0.09600  0.88652  0.44684  Biso   1.000  O
  C33      1.0000 0.90910  0.57558  0.72942  Biso   1.000  C
  C34      1.0000 0.98970  0.62069  0.64581  Biso   1.000  C
  C35      1.0000 0.08950  0.56940  0.59290  Biso   1.000  C
  C36      1.0000 0.16520  0.61090  0.51540  Biso   1.000  C
  C37      1.0000 0.14170  0.70150  0.49100  Biso   1.000  C
  C38      1.0000 0.04150  0.75348  0.54124  Biso   1.000  C
  C39      1.0000 0.96530  0.71141  0.61881  Biso   1.000  C
  C40      1.0000 0.01370  0.85170  0.51029  Biso   1.000  C
  H17      1.0000 0.90700  0.74280  0.65150  Biso   1.000  H
  H18      1.0000 0.13100  0.51600  0.62300  Biso   1.000  H
  H19      1.0000 0.18600  0.72800  0.44000  Biso   1.000  H
  H20      1.0000 0.23200  0.58300  0.48400  Biso   1.000  H
  O21      1.0000 0.70980  0.39321  0.75479  Biso   1.000  O
  O22      1.0000 0.53610  0.49290  0.77454  Biso   1.000  O
  O23      1.0000 0.58950  0.10897  0.54769  Biso   1.000  O
  O24      1.0000 0.40400  0.11348  0.44684  Biso   1.000  O
  C41      1.0000 0.59090  0.42442  0.72942  Biso   1.000  C
  C42      1.0000 0.51030  0.37931  0.64581  Biso   1.000  C
  C43      1.0000 0.41050  0.43060  0.59290  Biso   1.000  C
  C44      1.0000 0.33480  0.38910  0.51540  Biso   1.000  C
  C45      1.0000 0.35830  0.29850  0.49100  Biso   1.000  C
  C46      1.0000 0.45850  0.24652  0.54124  Biso   1.000  C
  C47      1.0000 0.53470  0.28859  0.61881  Biso   1.000  C
  C48      1.0000 0.48630  0.14830  0.51029  Biso   1.000  C
  H21      1.0000 0.59300  0.25720  0.65150  Biso   1.000  H
  H22      1.0000 0.36900  0.48400  0.62300  Biso   1.000  H
  H23      1.0000 0.31400  0.27200  0.44000  Biso   1.000  H
  H24      1.0000 0.26800  0.41700  0.48400  Biso   1.000  H
  O25      1.0000 0.70980  0.10679  0.74521  Biso   1.000  O
  O26      1.0000 0.53610  0.00710  0.72546  Biso   1.000  O
  O27      1.0000 0.58950  0.39103  0.95231  Biso   1.000  O
  O28      1.0000 0.40400  0.38652  0.05316  Biso   1.000  O
  C49      1.0000 0.59090  0.07558  0.77058  Biso   1.000  C
  C50      1.0000 0.51030  0.12069  0.85419  Biso   1.000  C
  C51      1.0000 0.41050  0.06940  0.90710  Biso   1.000  C
  C52      1.0000 0.33480  0.11090  0.98460  Biso   1.000  C
  C53      1.0000 0.35830  0.20150  0.00900  Biso   1.000  C
  C54      1.0000 0.45850  0.25348  0.95876  Biso   1.000  C
  C55      1.0000 0.53470  0.21141  0.88119  Biso   1.000  C
  C56      1.0000 0.48630  0.35170  0.98971  Biso   1.000  C
  H25      1.0000 0.59300  0.24280  0.84850  Biso   1.000  H
  H26      1.0000 0.36900  0.01600  0.87700  Biso   1.000  H
  H27      1.0000 0.31400  0.22800  0.06000  Biso   1.000  H
  H28      1.0000 0.26800  0.08300  0.01600  Biso   1.000  H
  O29      1.0000 0.79020  0.89321  0.74521  Biso   1.000  O
  O30      1.0000 0.96390  0.99290  0.72546  Biso   1.000  O
  O31      1.0000 0.91050  0.60897  0.95231  Biso   1.000  O
  O32      1.0000 0.09600  0.61348  0.05316  Biso   1.000  O
  C57      1.0000 0.90910  0.92442  0.77058  Biso   1.000  C
  C58      1.0000 0.98970  0.87931  0.85419  Biso   1.000  C
  C59      1.0000 0.08950  0.93060  0.90710  Biso   1.000  C
  C60      1.0000 0.16520  0.88910  0.98460  Biso   1.000  C
  C61      1.0000 0.14170  0.79850  0.00900  Biso   1.000  C
  C62      1.0000 0.04150  0.74652  0.95876  Biso   1.000  C
  C63      1.0000 0.96530  0.78859  0.88119  Biso   1.000  C
  C64      1.0000 0.01370  0.64830  0.98971  Biso   1.000  C
  H29      1.0000 0.90700  0.75720  0.84850  Biso   1.000  H
  H30      1.0000 0.13100  0.98400  0.87700  Biso   1.000  H
  H31      1.0000 0.18600  0.77200  0.06000  Biso   1.000  H
  H32      1.0000 0.23200  0.91700  0.01600  Biso   1.000  H
  Dy1      1.0000 0.25000  0.50000  0.10195  Biso   1.000  Dy
  Dy2      1.0000 0.25000  0.00000  0.39805  Biso   1.000  Dy
  Dy3      1.0000 0.75000  0.50000  0.89805  Biso   1.000  Dy
  Dy4      1.0000 0.75000  0.00000  0.60195  Biso   1.000  Dy
