data_image0
_cell_length_a       9.021
_cell_length_b       13.841
_cell_length_c       30.183
_cell_angle_alpha    90
_cell_angle_beta     90
_cell_angle_gamma    90

_symmetry_space_group_name_H-M    "P 1"
_symmetry_int_tables_number       1

loop_
  _symmetry_equiv_pos_as_xyz
  'x, y, z'

loop_
  _atom_site_label
  _atom_site_occupancy
  _atom_site_fract_x
  _atom_site_fract_y
  _atom_site_fract_z
  _atom_site_thermal_displace_type
  _atom_site_B_iso_or_equiv
  _atom_site_type_symbol
  C1       1.0000 0.13330  0.67390  0.18996  Biso   1.000  C
  C2       1.0000 0.19200  0.67880  0.14317  Biso   1.000  C
  C3       1.0000 0.33370  0.65060  0.13248  Biso   1.000  C
  H1       1.0000 0.39850  0.63250  0.15500  Biso   1.000  H
  C4       1.0000 0.38220  0.64850  0.08885  Biso   1.000  C
  H2       1.0000 0.47850  0.62980  0.08200  Biso   1.000  H
  C5       1.0000 0.28430  0.67490  0.05567  Biso   1.000  C
  C6       1.0000 0.14520  0.70610  0.06554  Biso   1.000  C
  H3       1.0000 0.08170  0.72580  0.04300  Biso   1.000  H
  C7       1.0000 0.09840  0.70850  0.10912  Biso   1.000  C
  H4       1.0000 0.00330  0.73010  0.11580  Biso   1.000  H
  C8       1.0000 0.28880  0.58260  0.98968  Biso   1.000  C
  C9       1.0000 0.29100  0.58310  0.94419  Biso   1.000  C
  H5       1.0000 0.31960  0.63850  0.92900  Biso   1.000  H
  C10      1.0000 0.34620  0.83070  0.28236  Biso   1.000  C
  H6       1.0000 0.33850  0.83910  0.25190  Biso   1.000  H
  C11      1.0000 0.39580  0.89820  0.31119  Biso   1.000  C
  H7       1.0000 0.43190  0.95920  0.30420  Biso   1.000  H
  C12      1.0000 0.33080  0.77000  0.34622  Biso   1.000  C
  H8       1.0000 0.31190  0.72720  0.36930  Biso   1.000  H
  C13      1.0000 0.41660  0.90120  0.39473  Biso   1.000  C
  C14      1.0000 0.34730  0.86830  0.43191  Biso   1.000  C
  H9       1.0000 0.27570  0.82030  0.42960  Biso   1.000  H
  C15      1.0000 0.38200  0.90550  0.47275  Biso   1.000  C
  H10      1.0000 0.33600  0.88030  0.49780  Biso   1.000  H
  C16      1.0000 0.48400  0.97940  0.47761  Biso   1.000  C
  C17      1.0000 0.54700  0.01230  0.43987  Biso   1.000  C
  H11      1.0000 0.61560  0.06220  0.44180  Biso   1.000  H
  C18      1.0000 0.51420  0.97520  0.39836  Biso   1.000  C
  H12      1.0000 0.55880  0.00080  0.37320  Biso   1.000  H
  Fe1      1.0000 0.19364  0.61714  0.28520  Biso   1.000  Fe
  N1       1.0000 0.30920  0.74890  0.30449  Biso   1.000  N
  N2       1.0000 0.38260  0.85920  0.35236  Biso   1.000  N
  O1       1.0000 0.28530  0.57742  0.85194  Biso   1.000  O
  O2       1.0000 0.22370  0.65100  0.21960  Biso   1.000  O
  O3       1.0000 0.99940  0.69220  0.19619  Biso   1.000  O
  O4       1.0000 0.33010  0.66730  0.01138  Biso   1.000  O
  O5       1.0000 0.10090  0.47534  0.27182  Biso   1.000  O
  C19      1.0000 0.36670  0.32610  0.18996  Biso   1.000  C
  C20      1.0000 0.30800  0.32120  0.14317  Biso   1.000  C
  C21      1.0000 0.16630  0.34940  0.13248  Biso   1.000  C
  H13      1.0000 0.10150  0.36750  0.15500  Biso   1.000  H
  C22      1.0000 0.11780  0.35150  0.08885  Biso   1.000  C
  H14      1.0000 0.02150  0.37020  0.08200  Biso   1.000  H
  C23      1.0000 0.21570  0.32510  0.05567  Biso   1.000  C
  C24      1.0000 0.35480  0.29390  0.06554  Biso   1.000  C
  H15      1.0000 0.41830  0.27420  0.04300  Biso   1.000  H
  C25      1.0000 0.40160  0.29150  0.10912  Biso   1.000  C
  H16      1.0000 0.49670  0.26990  0.11580  Biso   1.000  H
  C26      1.0000 0.21120  0.41740  0.98968  Biso   1.000  C
  C27      1.0000 0.20900  0.41690  0.94419  Biso   1.000  C
  H17      1.0000 0.18040  0.36150  0.92900  Biso   1.000  H
  C28      1.0000 0.15380  0.16930  0.28236  Biso   1.000  C
  H18      1.0000 0.16150  0.16090  0.25190  Biso   1.000  H
  C29      1.0000 0.10420  0.10180  0.31119  Biso   1.000  C
  H19      1.0000 0.06810  0.04080  0.30420  Biso   1.000  H
  C30      1.0000 0.16920  0.23000  0.34622  Biso   1.000  C
  H20      1.0000 0.18810  0.27280  0.36930  Biso   1.000  H
  C31      1.0000 0.08340  0.09880  0.39473  Biso   1.000  C
  C32      1.0000 0.15270  0.13170  0.43191  Biso   1.000  C
  H21      1.0000 0.22430  0.17970  0.42960  Biso   1.000  H
  C33      1.0000 0.11800  0.09450  0.47275  Biso   1.000  C
  H22      1.0000 0.16400  0.11970  0.49780  Biso   1.000  H
  C34      1.0000 0.01600  0.02060  0.47761  Biso   1.000  C
  C35      1.0000 0.95300  0.98770  0.43987  Biso   1.000  C
  H23      1.0000 0.88440  0.93780  0.44180  Biso   1.000  H
  C36      1.0000 0.98580  0.02480  0.39836  Biso   1.000  C
  H24      1.0000 0.94120  0.99920  0.37320  Biso   1.000  H
  Fe2      1.0000 0.30636  0.38286  0.28520  Biso   1.000  Fe
  N3       1.0000 0.19080  0.25110  0.30449  Biso   1.000  N
  N4       1.0000 0.11740  0.14080  0.35236  Biso   1.000  N
  O6       1.0000 0.21470  0.42258  0.85194  Biso   1.000  O
  O7       1.0000 0.27630  0.34900  0.21960  Biso   1.000  O
  O8       1.0000 0.50060  0.30780  0.19619  Biso   1.000  O
  O9       1.0000 0.16990  0.33270  0.01138  Biso   1.000  O
  O10      1.0000 0.39910  0.52466  0.27182  Biso   1.000  O
  C37      1.0000 0.86670  0.67390  0.31004  Biso   1.000  C
  C38      1.0000 0.80800  0.67880  0.35683  Biso   1.000  C
  C39      1.0000 0.66630  0.65060  0.36752  Biso   1.000  C
  H25      1.0000 0.60150  0.63250  0.34500  Biso   1.000  H
  C40      1.0000 0.61780  0.64850  0.41115  Biso   1.000  C
  H26      1.0000 0.52150  0.62980  0.41800  Biso   1.000  H
  C41      1.0000 0.71570  0.67490  0.44433  Biso   1.000  C
  C42      1.0000 0.85480  0.70610  0.43446  Biso   1.000  C
  H27      1.0000 0.91830  0.72580  0.45700  Biso   1.000  H
  C43      1.0000 0.90160  0.70850  0.39088  Biso   1.000  C
  H28      1.0000 0.99670  0.73010  0.38420  Biso   1.000  H
  C44      1.0000 0.71120  0.58260  0.51032  Biso   1.000  C
  C45      1.0000 0.70900  0.58310  0.55581  Biso   1.000  C
  H29      1.0000 0.68040  0.63850  0.57100  Biso   1.000  H
  C46      1.0000 0.65380  0.83070  0.21764  Biso   1.000  C
  H30      1.0000 0.66150  0.83910  0.24810  Biso   1.000  H
  C47      1.0000 0.60420  0.89820  0.18881  Biso   1.000  C
  H31      1.0000 0.56810  0.95920  0.19580  Biso   1.000  H
  C48      1.0000 0.66920  0.77000  0.15378  Biso   1.000  C
  H32      1.0000 0.68810  0.72720  0.13070  Biso   1.000  H
  C49      1.0000 0.58340  0.90120  0.10527  Biso   1.000  C
  C50      1.0000 0.65270  0.86830  0.06809  Biso   1.000  C
  H33      1.0000 0.72430  0.82030  0.07040  Biso   1.000  H
  C51      1.0000 0.61800  0.90550  0.02725  Biso   1.000  C
  H34      1.0000 0.66400  0.88030  0.00220  Biso   1.000  H
  C52      1.0000 0.51600  0.97940  0.02239  Biso   1.000  C
  C53      1.0000 0.45300  0.01230  0.06013  Biso   1.000  C
  H35      1.0000 0.38440  0.06220  0.05820  Biso   1.000  H
  C54      1.0000 0.48580  0.97520  0.10164  Biso   1.000  C
  H36      1.0000 0.44120  0.00080  0.12680  Biso   1.000  H
  Fe3      1.0000 0.80636  0.61714  0.21480  Biso   1.000  Fe
  N5       1.0000 0.69080  0.74890  0.19551  Biso   1.000  N
  N6       1.0000 0.61740  0.85920  0.14764  Biso   1.000  N
  O11      1.0000 0.71470  0.57742  0.64806  Biso   1.000  O
  O12      1.0000 0.77630  0.65100  0.28040  Biso   1.000  O
  O13      1.0000 0.00060  0.69220  0.30381  Biso   1.000  O
  O14      1.0000 0.66990  0.66730  0.48862  Biso   1.000  O
  O15      1.0000 0.89910  0.47534  0.22818  Biso   1.000  O
  C55      1.0000 0.63330  0.32610  0.31004  Biso   1.000  C
  C56      1.0000 0.69200  0.32120  0.35683  Biso   1.000  C
  C57      1.0000 0.83370  0.34940  0.36752  Biso   1.000  C
  H37      1.0000 0.89850  0.36750  0.34500  Biso   1.000  H
  C58      1.0000 0.88220  0.35150  0.41115  Biso   1.000  C
  H38      1.0000 0.97850  0.37020  0.41800  Biso   1.000  H
  C59      1.0000 0.78430  0.32510  0.44433  Biso   1.000  C
  C60      1.0000 0.64520  0.29390  0.43446  Biso   1.000  C
  H39      1.0000 0.58170  0.27420  0.45700  Biso   1.000  H
  C61      1.0000 0.59840  0.29150  0.39088  Biso   1.000  C
  H40      1.0000 0.50330  0.26990  0.38420  Biso   1.000  H
  C62      1.0000 0.78880  0.41740  0.51032  Biso   1.000  C
  C63      1.0000 0.79100  0.41690  0.55581  Biso   1.000  C
  H41      1.0000 0.81960  0.36150  0.57100  Biso   1.000  H
  C64      1.0000 0.84620  0.16930  0.21764  Biso   1.000  C
  H42      1.0000 0.83850  0.16090  0.24810  Biso   1.000  H
  C65      1.0000 0.89580  0.10180  0.18881  Biso   1.000  C
  H43      1.0000 0.93190  0.04080  0.19580  Biso   1.000  H
  C66      1.0000 0.83080  0.23000  0.15378  Biso   1.000  C
  H44      1.0000 0.81190  0.27280  0.13070  Biso   1.000  H
  C67      1.0000 0.91660  0.09880  0.10527  Biso   1.000  C
  C68      1.0000 0.84730  0.13170  0.06809  Biso   1.000  C
  H45      1.0000 0.77570  0.17970  0.07040  Biso   1.000  H
  C69      1.0000 0.88200  0.09450  0.02725  Biso   1.000  C
  H46      1.0000 0.83600  0.11970  0.00220  Biso   1.000  H
  C70      1.0000 0.98400  0.02060  0.02239  Biso   1.000  C
  C71      1.0000 0.04700  0.98770  0.06013  Biso   1.000  C
  H47      1.0000 0.11560  0.93780  0.05820  Biso   1.000  H
  C72      1.0000 0.01420  0.02480  0.10164  Biso   1.000  C
  H48      1.0000 0.05880  0.99920  0.12680  Biso   1.000  H
  Fe4      1.0000 0.69364  0.38286  0.21480  Biso   1.000  Fe
  N7       1.0000 0.80920  0.25110  0.19551  Biso   1.000  N
  N8       1.0000 0.88260  0.14080  0.14764  Biso   1.000  N
  O16      1.0000 0.78530  0.42258  0.64806  Biso   1.000  O
  O17      1.0000 0.72370  0.34900  0.28040  Biso   1.000  O
  O18      1.0000 0.49940  0.30780  0.30381  Biso   1.000  O
  O19      1.0000 0.83010  0.33270  0.48862  Biso   1.000  O
  O20      1.0000 0.60090  0.52466  0.22818  Biso   1.000  O
  C73      1.0000 0.86670  0.32610  0.81004  Biso   1.000  C
  C74      1.0000 0.80800  0.32120  0.85683  Biso   1.000  C
  C75      1.0000 0.66630  0.34940  0.86752  Biso   1.000  C
  H49      1.0000 0.60150  0.36750  0.84500  Biso   1.000  H
  C76      1.0000 0.61780  0.35150  0.91115  Biso   1.000  C
  H50      1.0000 0.52150  0.37020  0.91800  Biso   1.000  H
  C77      1.0000 0.71570  0.32510  0.94433  Biso   1.000  C
  C78      1.0000 0.85480  0.29390  0.93446  Biso   1.000  C
  H51      1.0000 0.91830  0.27420  0.95700  Biso   1.000  H
  C79      1.0000 0.90160  0.29150  0.89088  Biso   1.000  C
  H52      1.0000 0.99670  0.26990  0.88420  Biso   1.000  H
  C80      1.0000 0.71120  0.41740  0.01032  Biso   1.000  C
  C81      1.0000 0.70900  0.41690  0.05581  Biso   1.000  C
  H53      1.0000 0.68040  0.36150  0.07100  Biso   1.000  H
  C82      1.0000 0.65380  0.16930  0.71764  Biso   1.000  C
  H54      1.0000 0.66150  0.16090  0.74810  Biso   1.000  H
  C83      1.0000 0.60420  0.10180  0.68881  Biso   1.000  C
  H55      1.0000 0.56810  0.04080  0.69580  Biso   1.000  H
  C84      1.0000 0.66920  0.23000  0.65378  Biso   1.000  C
  H56      1.0000 0.68810  0.27280  0.63070  Biso   1.000  H
  C85      1.0000 0.58340  0.09880  0.60527  Biso   1.000  C
  C86      1.0000 0.65270  0.13170  0.56809  Biso   1.000  C
  H57      1.0000 0.72430  0.17970  0.57040  Biso   1.000  H
  C87      1.0000 0.61800  0.09450  0.52725  Biso   1.000  C
  H58      1.0000 0.66400  0.11970  0.50220  Biso   1.000  H
  C88      1.0000 0.51600  0.02060  0.52239  Biso   1.000  C
  C89      1.0000 0.45300  0.98770  0.56013  Biso   1.000  C
  H59      1.0000 0.38440  0.93780  0.55820  Biso   1.000  H
  C90      1.0000 0.48580  0.02480  0.60164  Biso   1.000  C
  H60      1.0000 0.44120  0.99920  0.62680  Biso   1.000  H
  Fe5      1.0000 0.80636  0.38286  0.71480  Biso   1.000  Fe
  N9       1.0000 0.69080  0.25110  0.69551  Biso   1.000  N
  N10      1.0000 0.61740  0.14080  0.64764  Biso   1.000  N
  O21      1.0000 0.71470  0.42258  0.14806  Biso   1.000  O
  O22      1.0000 0.77630  0.34900  0.78040  Biso   1.000  O
  O23      1.0000 0.00060  0.30780  0.80381  Biso   1.000  O
  O24      1.0000 0.66990  0.33270  0.98862  Biso   1.000  O
  O25      1.0000 0.89910  0.52466  0.72818  Biso   1.000  O
  C91      1.0000 0.63330  0.67390  0.81004  Biso   1.000  C
  C92      1.0000 0.69200  0.67880  0.85683  Biso   1.000  C
  C93      1.0000 0.83370  0.65060  0.86752  Biso   1.000  C
  H61      1.0000 0.89850  0.63250  0.84500  Biso   1.000  H
  C94      1.0000 0.88220  0.64850  0.91115  Biso   1.000  C
  H62      1.0000 0.97850  0.62980  0.91800  Biso   1.000  H
  C95      1.0000 0.78430  0.67490  0.94433  Biso   1.000  C
  C96      1.0000 0.64520  0.70610  0.93446  Biso   1.000  C
  H63      1.0000 0.58170  0.72580  0.95700  Biso   1.000  H
  C97      1.0000 0.59840  0.70850  0.89088  Biso   1.000  C
  H64      1.0000 0.50330  0.73010  0.88420  Biso   1.000  H
  C98      1.0000 0.78880  0.58260  0.01032  Biso   1.000  C
  C99      1.0000 0.79100  0.58310  0.05581  Biso   1.000  C
  H65      1.0000 0.81960  0.63850  0.07100  Biso   1.000  H
  C100     1.0000 0.84620  0.83070  0.71764  Biso   1.000  C
  H66      1.0000 0.83850  0.83910  0.74810  Biso   1.000  H
  C101     1.0000 0.89580  0.89820  0.68881  Biso   1.000  C
  H67      1.0000 0.93190  0.95920  0.69580  Biso   1.000  H
  C102     1.0000 0.83080  0.77000  0.65378  Biso   1.000  C
  H68      1.0000 0.81190  0.72720  0.63070  Biso   1.000  H
  C103     1.0000 0.91660  0.90120  0.60527  Biso   1.000  C
  C104     1.0000 0.84730  0.86830  0.56809  Biso   1.000  C
  H69      1.0000 0.77570  0.82030  0.57040  Biso   1.000  H
  C105     1.0000 0.88200  0.90550  0.52725  Biso   1.000  C
  H70      1.0000 0.83600  0.88030  0.50220  Biso   1.000  H
  C106     1.0000 0.98400  0.97940  0.52239  Biso   1.000  C
  C107     1.0000 0.04700  0.01230  0.56013  Biso   1.000  C
  H71      1.0000 0.11560  0.06220  0.55820  Biso   1.000  H
  C108     1.0000 0.01420  0.97520  0.60164  Biso   1.000  C
  H72      1.0000 0.05880  0.00080  0.62680  Biso   1.000  H
  Fe6      1.0000 0.69364  0.61714  0.71480  Biso   1.000  Fe
  N11      1.0000 0.80920  0.74890  0.69551  Biso   1.000  N
  N12      1.0000 0.88260  0.85920  0.64764  Biso   1.000  N
  O26      1.0000 0.78530  0.57742  0.14806  Biso   1.000  O
  O27      1.0000 0.72370  0.65100  0.78040  Biso   1.000  O
  O28      1.0000 0.49940  0.69220  0.80381  Biso   1.000  O
  O29      1.0000 0.83010  0.66730  0.98862  Biso   1.000  O
  O30      1.0000 0.60090  0.47534  0.72818  Biso   1.000  O
  C109     1.0000 0.13330  0.32610  0.68996  Biso   1.000  C
  C110     1.0000 0.19200  0.32120  0.64317  Biso   1.000  C
  C111     1.0000 0.33370  0.34940  0.63248  Biso   1.000  C
  H73      1.0000 0.39850  0.36750  0.65500  Biso   1.000  H
  C112     1.0000 0.38220  0.35150  0.58885  Biso   1.000  C
  H74      1.0000 0.47850  0.37020  0.58200  Biso   1.000  H
  C113     1.0000 0.28430  0.32510  0.55567  Biso   1.000  C
  C114     1.0000 0.14520  0.29390  0.56554  Biso   1.000  C
  H75      1.0000 0.08170  0.27420  0.54300  Biso   1.000  H
  C115     1.0000 0.09840  0.29150  0.60912  Biso   1.000  C
  H76      1.0000 0.00330  0.26990  0.61580  Biso   1.000  H
  C116     1.0000 0.28880  0.41740  0.48968  Biso   1.000  C
  C117     1.0000 0.29100  0.41690  0.44419  Biso   1.000  C
  H77      1.0000 0.31960  0.36150  0.42900  Biso   1.000  H
  C118     1.0000 0.34620  0.16930  0.78236  Biso   1.000  C
  H78      1.0000 0.33850  0.16090  0.75190  Biso   1.000  H
  C119     1.0000 0.39580  0.10180  0.81119  Biso   1.000  C
  H79      1.0000 0.43190  0.04080  0.80420  Biso   1.000  H
  C120     1.0000 0.33080  0.23000  0.84622  Biso   1.000  C
  H80      1.0000 0.31190  0.27280  0.86930  Biso   1.000  H
  C121     1.0000 0.41660  0.09880  0.89473  Biso   1.000  C
  C122     1.0000 0.34730  0.13170  0.93191  Biso   1.000  C
  H81      1.0000 0.27570  0.17970  0.92960  Biso   1.000  H
  C123     1.0000 0.38200  0.09450  0.97275  Biso   1.000  C
  H82      1.0000 0.33600  0.11970  0.99780  Biso   1.000  H
  C124     1.0000 0.48400  0.02060  0.97761  Biso   1.000  C
  C125     1.0000 0.54700  0.98770  0.93987  Biso   1.000  C
  H83      1.0000 0.61560  0.93780  0.94180  Biso   1.000  H
  C126     1.0000 0.51420  0.02480  0.89836  Biso   1.000  C
  H84      1.0000 0.55880  0.99920  0.87320  Biso   1.000  H
  Fe7      1.0000 0.19364  0.38286  0.78520  Biso   1.000  Fe
  N13      1.0000 0.30920  0.25110  0.80449  Biso   1.000  N
  N14      1.0000 0.38260  0.14080  0.85236  Biso   1.000  N
  O31      1.0000 0.28530  0.42258  0.35194  Biso   1.000  O
  O32      1.0000 0.22370  0.34900  0.71960  Biso   1.000  O
  O33      1.0000 0.99940  0.30780  0.69619  Biso   1.000  O
  O34      1.0000 0.33010  0.33270  0.51138  Biso   1.000  O
  O35      1.0000 0.10090  0.52466  0.77182  Biso   1.000  O
  C127     1.0000 0.36670  0.67390  0.68996  Biso   1.000  C
  C128     1.0000 0.30800  0.67880  0.64317  Biso   1.000  C
  C129     1.0000 0.16630  0.65060  0.63248  Biso   1.000  C
  H85      1.0000 0.10150  0.63250  0.65500  Biso   1.000  H
  C130     1.0000 0.11780  0.64850  0.58885  Biso   1.000  C
  H86      1.0000 0.02150  0.62980  0.58200  Biso   1.000  H
  C131     1.0000 0.21570  0.67490  0.55567  Biso   1.000  C
  C132     1.0000 0.35480  0.70610  0.56554  Biso   1.000  C
  H87      1.0000 0.41830  0.72580  0.54300  Biso   1.000  H
  C133     1.0000 0.40160  0.70850  0.60912  Biso   1.000  C
  H88      1.0000 0.49670  0.73010  0.61580  Biso   1.000  H
  C134     1.0000 0.21120  0.58260  0.48968  Biso   1.000  C
  C135     1.0000 0.20900  0.58310  0.44419  Biso   1.000  C
  H89      1.0000 0.18040  0.63850  0.42900  Biso   1.000  H
  C136     1.0000 0.15380  0.83070  0.78236  Biso   1.000  C
  H90      1.0000 0.16150  0.83910  0.75190  Biso   1.000  H
  C137     1.0000 0.10420  0.89820  0.81119  Biso   1.000  C
  H91      1.0000 0.06810  0.95920  0.80420  Biso   1.000  H
  C138     1.0000 0.16920  0.77000  0.84622  Biso   1.000  C
  H92      1.0000 0.18810  0.72720  0.86930  Biso   1.000  H
  C139     1.0000 0.08340  0.90120  0.89473  Biso   1.000  C
  C140     1.0000 0.15270  0.86830  0.93191  Biso   1.000  C
  H93      1.0000 0.22430  0.82030  0.92960  Biso   1.000  H
  C141     1.0000 0.11800  0.90550  0.97275  Biso   1.000  C
  H94      1.0000 0.16400  0.88030  0.99780  Biso   1.000  H
  C142     1.0000 0.01600  0.97940  0.97761  Biso   1.000  C
  C143     1.0000 0.95300  0.01230  0.93987  Biso   1.000  C
  H95      1.0000 0.88440  0.06220  0.94180  Biso   1.000  H
  C144     1.0000 0.98580  0.97520  0.89836  Biso   1.000  C
  H96      1.0000 0.94120  0.00080  0.87320  Biso   1.000  H
  Fe8      1.0000 0.30636  0.61714  0.78520  Biso   1.000  Fe
  N15      1.0000 0.19080  0.74890  0.80449  Biso   1.000  N
  N16      1.0000 0.11740  0.85920  0.85236  Biso   1.000  N
  O36      1.0000 0.21470  0.57742  0.35194  Biso   1.000  O
  O37      1.0000 0.27630  0.65100  0.71960  Biso   1.000  O
  O38      1.0000 0.50060  0.69220  0.69619  Biso   1.000  O
  O39      1.0000 0.16990  0.66730  0.51138  Biso   1.000  O
  O40      1.0000 0.39910  0.47534  0.77182  Biso   1.000  O
  C145     1.0000 0.00000  0.43570  0.25000  Biso   1.000  C
  H97      1.0000 0.00000  0.36850  0.25000  Biso   1.000  H
  C146     1.0000 0.50000  0.56430  0.25000  Biso   1.000  C
  H98      1.0000 0.50000  0.63150  0.25000  Biso   1.000  H
  C147     1.0000 0.00000  0.56430  0.75000  Biso   1.000  C
  H99      1.0000 0.00000  0.63150  0.75000  Biso   1.000  H
  C148     1.0000 0.50000  0.43570  0.75000  Biso   1.000  C
  H100     1.0000 0.50000  0.36850  0.75000  Biso   1.000  H
  C149     1.0000 0.25000  0.50000  0.01346  Biso   1.000  C
  H101     1.0000 0.25000  0.50000  0.04430  Biso   1.000  H
  C150     1.0000 0.25000  0.50000  0.87091  Biso   1.000  C
  C151     1.0000 0.25000  0.50000  0.92078  Biso   1.000  C
  C152     1.0000 0.75000  0.50000  0.48654  Biso   1.000  C
  H102     1.0000 0.75000  0.50000  0.45570  Biso   1.000  H
  C153     1.0000 0.75000  0.50000  0.62909  Biso   1.000  C
  C154     1.0000 0.75000  0.50000  0.57922  Biso   1.000  C
  C155     1.0000 0.75000  0.50000  0.98654  Biso   1.000  C
  H103     1.0000 0.75000  0.50000  0.95570  Biso   1.000  H
  C156     1.0000 0.75000  0.50000  0.12909  Biso   1.000  C
  C157     1.0000 0.75000  0.50000  0.07922  Biso   1.000  C
  C158     1.0000 0.25000  0.50000  0.51346  Biso   1.000  C
  H104     1.0000 0.25000  0.50000  0.54430  Biso   1.000  H
  C159     1.0000 0.25000  0.50000  0.37091  Biso   1.000  C
  C160     1.0000 0.25000  0.50000  0.42078  Biso   1.000  C
