data_DOKDEN_clean
_audit_creation_date              2014-07-02
_audit_creation_method            'Materials Studio'
_symmetry_space_group_name_H-M    'P1'
_symmetry_Int_Tables_number       1
_symmetry_cell_setting            triclinic
loop_
_symmetry_equiv_pos_as_xyz
  x,y,z
_cell_length_a                    9.8642
_cell_length_b                    24.0588
_cell_length_c                    24.0588
_cell_angle_alpha                 61.8369
_cell_angle_beta                  82.1450
_cell_angle_gamma                 97.8550
loop_
_atom_site_label
_atom_site_type_symbol
_atom_site_fract_x
_atom_site_fract_y
_atom_site_fract_z
_atom_site_U_iso_or_equiv
_atom_site_adp_type
_atom_site_occupancy
Cu1    Cu    0.56931   0.04045   0.51527   0.01267  Uiso   1.00
Cu2    Cu    0.08458   0.51527   0.44428   0.01267  Uiso   1.00
Cu3    Cu    0.52886   0.44428   0.04045   0.01267  Uiso   1.00
Cu4    Cu    0.43069   0.95955   0.48473   0.01267  Uiso   1.00
Cu5    Cu    0.91542   0.48473   0.55572   0.01267  Uiso   1.00
Cu6    Cu    0.47114   0.55572   0.95955   0.01267  Uiso   1.00
H1     H     0.78290   0.88480   0.44140   0.01267  Uiso   1.00
H2     H     0.99510   0.85740   0.42390   0.01267  Uiso   1.00
H3     H     0.19810   0.02510   0.40260   0.01267  Uiso   1.00
H4     H     0.98380   0.04710   0.42880   0.01267  Uiso   1.00
H5     H     0.24260   0.88800   0.38760   0.01267  Uiso   1.00
H6     H     0.32550   0.95670   0.36780   0.01267  Uiso   1.00
H7     H     0.22700   0.86400   0.50700   0.01267  Uiso   1.00
H8     H     0.46680   0.86890   0.42190   0.01267  Uiso   1.00
H9     H     0.44710   0.83710   0.49630   0.01267  Uiso   1.00
H10    H     0.18860   0.75440   0.55370   0.01267  Uiso   1.00
H11    H     0.06940   0.65490   0.56670   0.01267  Uiso   1.00
H12    H     0.30180   0.70650   0.39060   0.01267  Uiso   1.00
H13    H     0.41560   0.80410   0.37840   0.01267  Uiso   1.00
H14    H     0.22430   0.44140   0.67380   0.01267  Uiso   1.00
H15    H     0.41900   0.42390   0.71870   0.01267  Uiso   1.00
H16    H     0.60070   0.40260   0.57230   0.01267  Uiso   1.00
H17    H     0.41260   0.42880   0.52410   0.01267  Uiso   1.00
H18    H     0.63020   0.38760   0.72440   0.01267  Uiso   1.00
H19    H     0.69330   0.36780   0.67550   0.01267  Uiso   1.00
H20    H     0.73400   0.50700   0.62900   0.01267  Uiso   1.00
H21    H     0.88870   0.42190   0.70920   0.01267  Uiso   1.00
H22    H     0.94340   0.49630   0.66660   0.01267  Uiso   1.00
H23    H     0.74230   0.55370   0.69190   0.01267  Uiso   1.00
H24    H     0.63610   0.56670   0.77840   0.01267  Uiso   1.00
H25    H     0.69240   0.39060   0.90290   0.01267  Uiso   1.00
H26    H     0.79400   0.37840   0.81750   0.01267  Uiso   1.00
H27    H     0.89810   0.67380   0.88480   0.01267  Uiso   1.00
H28    H     0.13770   0.71870   0.85740   0.01267  Uiso   1.00
H29    H     0.17300   0.57230   0.02510   0.01267  Uiso   1.00
H30    H     0.93670   0.52410   0.04710   0.01267  Uiso   1.00
H31    H     0.35460   0.72440   0.88800   0.01267  Uiso   1.00
H32    H     0.36880   0.67550   0.95670   0.01267  Uiso   1.00
H33    H     0.36300   0.62900   0.86400   0.01267  Uiso   1.00
H34    H     0.59790   0.70920   0.86890   0.01267  Uiso   1.00
H35    H     0.61000   0.66660   0.83710   0.01267  Uiso   1.00
H36    H     0.43420   0.69190   0.75440   0.01267  Uiso   1.00
H37    H     0.41450   0.77840   0.65490   0.01267  Uiso   1.00
H38    H     0.59530   0.90290   0.70650   0.01267  Uiso   1.00
H39    H     0.61150   0.81750   0.80410   0.01267  Uiso   1.00
H40    H     0.21710   0.11520   0.55860   0.01267  Uiso   1.00
H41    H     0.00490   0.14260   0.57610   0.01267  Uiso   1.00
H42    H     0.80190   0.97490   0.59740   0.01267  Uiso   1.00
H43    H     0.01620   0.95290   0.57120   0.01267  Uiso   1.00
H44    H     0.75740   0.11200   0.61240   0.01267  Uiso   1.00
H45    H     0.67450   0.04330   0.63220   0.01267  Uiso   1.00
H46    H     0.77300   0.13600   0.49300   0.01267  Uiso   1.00
H47    H     0.53320   0.13110   0.57810   0.01267  Uiso   1.00
H48    H     0.55290   0.16290   0.50370   0.01267  Uiso   1.00
H49    H     0.81140   0.24560   0.44630   0.01267  Uiso   1.00
H50    H     0.93060   0.34510   0.43330   0.01267  Uiso   1.00
H51    H     0.69820   0.29350   0.60940   0.01267  Uiso   1.00
H52    H     0.58440   0.19590   0.62160   0.01267  Uiso   1.00
H53    H     0.77570   0.55860   0.32620   0.01267  Uiso   1.00
H54    H     0.58100   0.57610   0.28130   0.01267  Uiso   1.00
H55    H     0.39930   0.59740   0.42770   0.01267  Uiso   1.00
H56    H     0.58740   0.57120   0.47590   0.01267  Uiso   1.00
H57    H     0.36980   0.61240   0.27560   0.01267  Uiso   1.00
H58    H     0.30670   0.63220   0.32450   0.01267  Uiso   1.00
H59    H     0.26600   0.49300   0.37100   0.01267  Uiso   1.00
H60    H     0.11130   0.57810   0.29080   0.01267  Uiso   1.00
H61    H     0.05660   0.50370   0.33340   0.01267  Uiso   1.00
H62    H     0.25770   0.44630   0.30810   0.01267  Uiso   1.00
H63    H     0.36390   0.43330   0.22160   0.01267  Uiso   1.00
H64    H     0.30760   0.60940   0.09710   0.01267  Uiso   1.00
H65    H     0.20600   0.62160   0.18250   0.01267  Uiso   1.00
H66    H     0.10190   0.32620   0.11520   0.01267  Uiso   1.00
H67    H     0.86230   0.28130   0.14260   0.01267  Uiso   1.00
H68    H     0.82700   0.42770   0.97490   0.01267  Uiso   1.00
H69    H     0.06330   0.47590   0.95290   0.01267  Uiso   1.00
H70    H     0.64540   0.27560   0.11200   0.01267  Uiso   1.00
H71    H     0.63120   0.32450   0.04330   0.01267  Uiso   1.00
H72    H     0.63700   0.37100   0.13600   0.01267  Uiso   1.00
H73    H     0.40210   0.29080   0.13110   0.01267  Uiso   1.00
H74    H     0.39000   0.33340   0.16290   0.01267  Uiso   1.00
H75    H     0.56580   0.30810   0.24560   0.01267  Uiso   1.00
H76    H     0.58550   0.22160   0.34510   0.01267  Uiso   1.00
H77    H     0.40470   0.09710   0.29350   0.01267  Uiso   1.00
H78    H     0.38850   0.18250   0.19590   0.01267  Uiso   1.00
C1     C     0.72660   0.98160   0.45720   0.01267  Uiso   1.00
C2     C     0.86400   0.96750   0.43890   0.01267  Uiso   1.00
C3     C     0.86880   0.91220   0.43610   0.01267  Uiso   1.00
C4     C     0.99520   0.89750   0.42260   0.01267  Uiso   1.00
C5     C     0.11930   0.93820   0.41200   0.01267  Uiso   1.00
C6     C     0.11380   0.99460   0.41230   0.01267  Uiso   1.00
C7     C     0.98580   0.00880   0.42650   0.01267  Uiso   1.00
C8     C     0.25720   0.91960   0.40060   0.01267  Uiso   1.00
C9     C     0.39980   0.84700   0.46210   0.01267  Uiso   1.00
C10    C     0.31890   0.78530   0.46700   0.01267  Uiso   1.00
C11    C     0.21550   0.74360   0.52130   0.01267  Uiso   1.00
C12    C     0.13870   0.68460   0.52830   0.01267  Uiso   1.00
C13    C     0.17310   0.67230   0.47850   0.01267  Uiso   1.00
C14    C     0.27540   0.71640   0.42390   0.01267  Uiso   1.00
C15    C     0.34890   0.77350   0.41740   0.01267  Uiso   1.00
C16    C     0.10250   0.60910   0.48550   0.01267  Uiso   1.00
C17    C     0.18380   0.45720   0.56120   0.01267  Uiso   1.00
C18    C     0.30290   0.43890   0.59360   0.01267  Uiso   1.00
C19    C     0.30490   0.43610   0.65170   0.01267  Uiso   1.00
C20    C     0.41780   0.42260   0.67990   0.01267  Uiso   1.00
C21    C     0.53130   0.41200   0.64980   0.01267  Uiso   1.00
C22    C     0.52610   0.41230   0.59310   0.01267  Uiso   1.00
C23    C     0.41230   0.42650   0.56470   0.01267  Uiso   1.00
C24    C     0.65780   0.40060   0.67980   0.01267  Uiso   1.00
C25    C     0.86190   0.46210   0.69090   0.01267  Uiso   1.00
C26    C     0.78590   0.46700   0.74770   0.01267  Uiso   1.00
C27    C     0.73680   0.52130   0.73510   0.01267  Uiso   1.00
C28    C     0.66700   0.52830   0.78710   0.01267  Uiso   1.00
C29    C     0.65160   0.47850   0.84920   0.01267  Uiso   1.00
C30    C     0.69930   0.42390   0.85970   0.01267  Uiso   1.00
C31    C     0.76630   0.41740   0.80910   0.01267  Uiso   1.00
C32    C     0.58800   0.48550   0.90540   0.01267  Uiso   1.00
C33    C     0.74500   0.56120   0.98160   0.01267  Uiso   1.00
C34    C     0.89650   0.59360   0.96750   0.01267  Uiso   1.00
C35    C     0.95660   0.65170   0.91220   0.01267  Uiso   1.00
C36    C     0.09770   0.67990   0.89750   0.01267  Uiso   1.00
C37    C     0.18110   0.64980   0.93820   0.01267  Uiso   1.00
C38    C     0.11920   0.59310   0.99460   0.01267  Uiso   1.00
C39    C     0.97700   0.56470   0.00880   0.01267  Uiso   1.00
C40    C     0.33760   0.67980   0.91960   0.01267  Uiso   1.00
C41    C     0.55280   0.69090   0.84700   0.01267  Uiso   1.00
C42    C     0.53360   0.74770   0.78530   0.01267  Uiso   1.00
C43    C     0.47190   0.73510   0.74360   0.01267  Uiso   1.00
C44    C     0.45410   0.78710   0.68460   0.01267  Uiso   1.00
C45    C     0.50080   0.84920   0.67230   0.01267  Uiso   1.00
C46    C     0.55900   0.85970   0.71640   0.01267  Uiso   1.00
C47    C     0.57540   0.80910   0.77350   0.01267  Uiso   1.00
C48    C     0.49340   0.90540   0.60910   0.01267  Uiso   1.00
C49    C     0.27340   0.01840   0.54280   0.01267  Uiso   1.00
C50    C     0.13600   0.03250   0.56110   0.01267  Uiso   1.00
C51    C     0.13120   0.08780   0.56390   0.01267  Uiso   1.00
C52    C     0.00480   0.10250   0.57740   0.01267  Uiso   1.00
C53    C     0.88070   0.06180   0.58800   0.01267  Uiso   1.00
C54    C     0.88620   0.00540   0.58770   0.01267  Uiso   1.00
C55    C     0.01420   0.99120   0.57350   0.01267  Uiso   1.00
C56    C     0.74280   0.08040   0.59940   0.01267  Uiso   1.00
C57    C     0.60020   0.15300   0.53790   0.01267  Uiso   1.00
C58    C     0.68110   0.21470   0.53300   0.01267  Uiso   1.00
C59    C     0.78450   0.25640   0.47870   0.01267  Uiso   1.00
C60    C     0.86130   0.31540   0.47170   0.01267  Uiso   1.00
C61    C     0.82690   0.32770   0.52150   0.01267  Uiso   1.00
C62    C     0.72460   0.28360   0.57610   0.01267  Uiso   1.00
C63    C     0.65110   0.22650   0.58260   0.01267  Uiso   1.00
C64    C     0.89750   0.39090   0.51450   0.01267  Uiso   1.00
C65    C     0.81620   0.54280   0.43880   0.01267  Uiso   1.00
C66    C     0.69710   0.56110   0.40640   0.01267  Uiso   1.00
C67    C     0.69510   0.56390   0.34830   0.01267  Uiso   1.00
C68    C     0.58220   0.57740   0.32010   0.01267  Uiso   1.00
C69    C     0.46870   0.58800   0.35020   0.01267  Uiso   1.00
C70    C     0.47390   0.58770   0.40690   0.01267  Uiso   1.00
C71    C     0.58770   0.57350   0.43530   0.01267  Uiso   1.00
C72    C     0.34220   0.59940   0.32020   0.01267  Uiso   1.00
C73    C     0.13810   0.53790   0.30910   0.01267  Uiso   1.00
C74    C     0.21410   0.53300   0.25230   0.01267  Uiso   1.00
C75    C     0.26320   0.47870   0.26490   0.01267  Uiso   1.00
C76    C     0.33300   0.47170   0.21290   0.01267  Uiso   1.00
C77    C     0.34840   0.52150   0.15080   0.01267  Uiso   1.00
C78    C     0.30070   0.57610   0.14030   0.01267  Uiso   1.00
C79    C     0.23370   0.58260   0.19090   0.01267  Uiso   1.00
C80    C     0.41200   0.51450   0.09460   0.01267  Uiso   1.00
C81    C     0.25500   0.43880   0.01840   0.01267  Uiso   1.00
C82    C     0.10350   0.40640   0.03250   0.01267  Uiso   1.00
C83    C     0.04340   0.34830   0.08780   0.01267  Uiso   1.00
C84    C     0.90230   0.32010   0.10250   0.01267  Uiso   1.00
C85    C     0.81890   0.35020   0.06180   0.01267  Uiso   1.00
C86    C     0.88080   0.40690   0.00540   0.01267  Uiso   1.00
C87    C     0.02300   0.43530   0.99120   0.01267  Uiso   1.00
C88    C     0.66240   0.32020   0.08040   0.01267  Uiso   1.00
C89    C     0.44720   0.30910   0.15300   0.01267  Uiso   1.00
C90    C     0.46640   0.25230   0.21470   0.01267  Uiso   1.00
C91    C     0.52810   0.26490   0.25640   0.01267  Uiso   1.00
C92    C     0.54590   0.21290   0.31540   0.01267  Uiso   1.00
C93    C     0.49920   0.15080   0.32770   0.01267  Uiso   1.00
C94    C     0.44100   0.14030   0.28360   0.01267  Uiso   1.00
C95    C     0.42460   0.19090   0.22650   0.01267  Uiso   1.00
C96    C     0.50660   0.09460   0.39090   0.01267  Uiso   1.00
N1     N     0.30990   0.89170   0.46150   0.01267  Uiso   1.00
N2     N     0.77140   0.46150   0.64680   0.01267  Uiso   1.00
N3     N     0.41820   0.64680   0.89170   0.01267  Uiso   1.00
N4     N     0.69010   0.10830   0.53850   0.01267  Uiso   1.00
N5     N     0.22860   0.53850   0.35320   0.01267  Uiso   1.00
N6     N     0.58180   0.35320   0.10830   0.01267  Uiso   1.00
O1     O     0.73130   0.02210   0.47640   0.01267  Uiso   1.00
O2     O     0.61730   0.95120   0.45350   0.01267  Uiso   1.00
O3     O     0.00920   0.57150   0.53700   0.01267  Uiso   1.00
O4     O     0.14490   0.59730   0.44220   0.01267  Uiso   1.00
O5     O     0.20770   0.47640   0.50150   0.01267  Uiso   1.00
O6     O     0.07080   0.45350   0.59530   0.01267  Uiso   1.00
O7     O     0.54620   0.53700   0.89150   0.01267  Uiso   1.00
O8     O     0.58710   0.44220   0.96050   0.01267  Uiso   1.00
O9     O     0.70920   0.50150   0.02210   0.01267  Uiso   1.00
O10    O     0.66610   0.59530   0.95120   0.01267  Uiso   1.00
O11    O     0.43770   0.89150   0.57150   0.01267  Uiso   1.00
O12    O     0.54760   0.96050   0.59730   0.01267  Uiso   1.00
O13    O     0.26870   0.97790   0.52360   0.01267  Uiso   1.00
O14    O     0.38270   0.04880   0.54650   0.01267  Uiso   1.00
O15    O     0.99080   0.42850   0.46300   0.01267  Uiso   1.00
O16    O     0.85510   0.40270   0.55780   0.01267  Uiso   1.00
O17    O     0.79230   0.52360   0.49850   0.01267  Uiso   1.00
O18    O     0.92920   0.54650   0.40470   0.01267  Uiso   1.00
O19    O     0.45380   0.46300   0.10850   0.01267  Uiso   1.00
O20    O     0.41290   0.55780   0.03950   0.01267  Uiso   1.00
O21    O     0.29080   0.49850   0.97790   0.01267  Uiso   1.00
O22    O     0.33390   0.40470   0.04880   0.01267  Uiso   1.00
O23    O     0.56230   0.10850   0.42850   0.01267  Uiso   1.00
O24    O     0.45240   0.03950   0.40270   0.01267  Uiso   1.00
