data_image0
_cell_length_a       14.5
_cell_length_b       18.577
_cell_length_c       15.394
_cell_angle_alpha    90
_cell_angle_beta     103.97
_cell_angle_gamma    90

_symmetry_space_group_name_H-M    "P 1"
_symmetry_int_tables_number       1

loop_
  _symmetry_equiv_pos_as_xyz
  'x, y, z'

loop_
  _atom_site_label
  _atom_site_occupancy
  _atom_site_fract_x
  _atom_site_fract_y
  _atom_site_fract_z
  _atom_site_thermal_displace_type
  _atom_site_B_iso_or_equiv
  _atom_site_type_symbol
  Cd1      1.0000 0.61146  0.20923  0.11651  Biso   1.000  Cd
  Cd2      1.0000 0.41301  0.30600  0.32715  Biso   1.000  Cd
  O1       1.0000 0.43950  0.27040  0.19170  Biso   1.000  O
  O2       1.0000 0.48050  0.27840  0.06350  Biso   1.000  O
  O3       1.0000 0.02820  0.26490  0.03420  Biso   1.000  O
  O4       1.0000 0.04460  0.26170  0.89440  Biso   1.000  O
  O5       1.0000 0.25220  0.56370  0.00340  Biso   1.000  O
  O6       1.0000 0.26190  0.51060  0.87940  Biso   1.000  O
  N1       1.0000 0.71160  0.30820  0.10480  Biso   1.000  N
  N2       1.0000 0.01490  0.60550  0.10520  Biso   1.000  N
  N3       1.0000 0.32300  0.20280  0.32850  Biso   1.000  N
  N4       1.0000 0.01460  0.90240  0.32440  Biso   1.000  N
  C1       1.0000 0.42610  0.29090  0.11290  Biso   1.000  C
  C2       1.0000 0.33120  0.32900  0.06860  Biso   1.000  C
  C3       1.0000 0.24820  0.29020  0.04750  Biso   1.000  C
  C4       1.0000 0.24090  0.21060  0.07260  Biso   1.000  C
  H1       1.0000 0.17650  0.19450  0.05160  Biso   1.000  H
  H2       1.0000 0.26020  0.20540  0.13650  Biso   1.000  H
  H3       1.0000 0.28170  0.18210  0.04550  Biso   1.000  H
  C5       1.0000 0.16130  0.32470  0.00160  Biso   1.000  C
  C6       1.0000 0.06700  0.28170  0.97580  Biso   1.000  C
  C7       1.0000 0.16100  0.39680  0.97660  Biso   1.000  C
  C8       1.0000 0.07030  0.43440  0.92990  Biso   1.000  C
  H4       1.0000 0.08400  0.48350  0.91820  Biso   1.000  H
  H5       1.0000 0.02620  0.43320  0.96750  Biso   1.000  H
  H6       1.0000 0.04300  0.41040  0.87450  Biso   1.000  H
  C9       1.0000 0.24760  0.43400  0.99680  Biso   1.000  C
  C10      1.0000 0.25480  0.50810  0.95780  Biso   1.000  C
  C11      1.0000 0.33320  0.40090  0.04470  Biso   1.000  C
  C12      1.0000 0.42680  0.44400  0.06870  Biso   1.000  C
  H7       1.0000 0.41520  0.49250  0.04730  Biso   1.000  H
  H8       1.0000 0.47260  0.42190  0.04140  Biso   1.000  H
  H9       1.0000 0.45100  0.44460  0.13250  Biso   1.000  H
  C13      1.0000 0.67810  0.37610  0.09500  Biso   1.000  C
  H10      1.0000 0.61380  0.38390  0.09070  Biso   1.000  H
  C14      1.0000 0.73610  0.43450  0.09110  Biso   1.000  C
  H11      1.0000 0.71050  0.48070  0.08480  Biso   1.000  H
  C15      1.0000 0.83000  0.42490  0.09640  Biso   1.000  C
  C16      1.0000 0.86160  0.35530  0.10270  Biso   1.000  C
  H12      1.0000 0.92520  0.34640  0.10460  Biso   1.000  H
  C17      1.0000 0.80390  0.29960  0.10620  Biso   1.000  C
  H13      1.0000 0.82870  0.25320  0.10970  Biso   1.000  H
  C18      1.0000 0.89380  0.48690  0.09740  Biso   1.000  C
  C19      1.0000 0.87200  0.54510  0.04000  Biso   1.000  C
  H14      1.0000 0.81450  0.54590  0.99710  Biso   1.000  H
  C20      1.0000 0.93470  0.60250  0.04540  Biso   1.000  C
  H15      1.0000 0.91850  0.64020  0.00480  Biso   1.000  H
  C21      1.0000 0.04140  0.54920  0.16020  Biso   1.000  C
  H16      1.0000 0.09970  0.55070  0.20190  Biso   1.000  H
  C22      1.0000 0.98420  0.48890  0.15670  Biso   1.000  C
  H17      1.0000 0.00570  0.44980  0.19360  Biso   1.000  H
  C23      1.0000 0.33790  0.13930  0.29840  Biso   1.000  C
  H18      1.0000 0.39220  0.13570  0.27650  Biso   1.000  H
  C24      1.0000 0.28750  0.07880  0.29410  Biso   1.000  C
  H19      1.0000 0.30630  0.03620  0.27160  Biso   1.000  H
  C25      1.0000 0.20100  0.08320  0.32690  Biso   1.000  C
  C26      1.0000 0.18330  0.14940  0.36140  Biso   1.000  C
  H20      1.0000 0.13000  0.15400  0.38460  Biso   1.000  H
  C27      1.0000 0.23970  0.20750  0.36280  Biso   1.000  C
  H21      1.0000 0.22440  0.25080  0.38620  Biso   1.000  H
  C28      1.0000 0.13970  0.02060  0.32420  Biso   1.000  C
  C29      1.0000 0.16960  0.95040  0.31940  Biso   1.000  C
  H22      1.0000 0.23180  0.94110  0.31640  Biso   1.000  H
  C30      1.0000 0.10730  0.89360  0.31900  Biso   1.000  C
  H23      1.0000 0.12940  0.84700  0.31490  Biso   1.000  H
  C31      1.0000 0.98680  0.96920  0.32770  Biso   1.000  C
  H24      1.0000 0.92390  0.97740  0.32910  Biso   1.000  H
  C32      1.0000 0.04520  0.02880  0.32930  Biso   1.000  C
  H25      1.0000 0.02120  0.07470  0.33390  Biso   1.000  H
  Cd3      1.0000 0.11146  0.70923  0.11651  Biso   1.000  Cd
  Cd4      1.0000 0.91301  0.80600  0.32715  Biso   1.000  Cd
  O7       1.0000 0.93950  0.77040  0.19170  Biso   1.000  O
  O8       1.0000 0.98050  0.77840  0.06350  Biso   1.000  O
  O9       1.0000 0.52820  0.76490  0.03420  Biso   1.000  O
  O10      1.0000 0.54460  0.76170  0.89440  Biso   1.000  O
  O11      1.0000 0.75220  0.06370  0.00340  Biso   1.000  O
  O12      1.0000 0.76190  0.01060  0.87940  Biso   1.000  O
  N5       1.0000 0.21160  0.80820  0.10480  Biso   1.000  N
  N6       1.0000 0.51490  0.10550  0.10520  Biso   1.000  N
  N7       1.0000 0.82300  0.70280  0.32850  Biso   1.000  N
  N8       1.0000 0.51460  0.40240  0.32440  Biso   1.000  N
  C33      1.0000 0.92610  0.79090  0.11290  Biso   1.000  C
  C34      1.0000 0.83120  0.82900  0.06860  Biso   1.000  C
  C35      1.0000 0.74820  0.79020  0.04750  Biso   1.000  C
  C36      1.0000 0.74090  0.71060  0.07260  Biso   1.000  C
  H26      1.0000 0.67650  0.69450  0.05160  Biso   1.000  H
  H27      1.0000 0.76020  0.70540  0.13650  Biso   1.000  H
  H28      1.0000 0.78170  0.68210  0.04550  Biso   1.000  H
  C37      1.0000 0.66130  0.82470  0.00160  Biso   1.000  C
  C38      1.0000 0.56700  0.78170  0.97580  Biso   1.000  C
  C39      1.0000 0.66100  0.89680  0.97660  Biso   1.000  C
  C40      1.0000 0.57030  0.93440  0.92990  Biso   1.000  C
  H29      1.0000 0.58400  0.98350  0.91820  Biso   1.000  H
  H30      1.0000 0.52620  0.93320  0.96750  Biso   1.000  H
  H31      1.0000 0.54300  0.91040  0.87450  Biso   1.000  H
  C41      1.0000 0.74760  0.93400  0.99680  Biso   1.000  C
  C42      1.0000 0.75480  0.00810  0.95780  Biso   1.000  C
  C43      1.0000 0.83320  0.90090  0.04470  Biso   1.000  C
  C44      1.0000 0.92680  0.94400  0.06870  Biso   1.000  C
  H32      1.0000 0.91520  0.99250  0.04730  Biso   1.000  H
  H33      1.0000 0.97260  0.92190  0.04140  Biso   1.000  H
  H34      1.0000 0.95100  0.94460  0.13250  Biso   1.000  H
  C45      1.0000 0.17810  0.87610  0.09500  Biso   1.000  C
  H35      1.0000 0.11380  0.88390  0.09070  Biso   1.000  H
  C46      1.0000 0.23610  0.93450  0.09110  Biso   1.000  C
  H36      1.0000 0.21050  0.98070  0.08480  Biso   1.000  H
  C47      1.0000 0.33000  0.92490  0.09640  Biso   1.000  C
  C48      1.0000 0.36160  0.85530  0.10270  Biso   1.000  C
  H37      1.0000 0.42520  0.84640  0.10460  Biso   1.000  H
  C49      1.0000 0.30390  0.79960  0.10620  Biso   1.000  C
  H38      1.0000 0.32870  0.75320  0.10970  Biso   1.000  H
  C50      1.0000 0.39380  0.98690  0.09740  Biso   1.000  C
  C51      1.0000 0.37200  0.04510  0.04000  Biso   1.000  C
  H39      1.0000 0.31450  0.04590  0.99710  Biso   1.000  H
  C52      1.0000 0.43470  0.10250  0.04540  Biso   1.000  C
  H40      1.0000 0.41850  0.14020  0.00480  Biso   1.000  H
  C53      1.0000 0.54140  0.04920  0.16020  Biso   1.000  C
  H41      1.0000 0.59970  0.05070  0.20190  Biso   1.000  H
  C54      1.0000 0.48420  0.98890  0.15670  Biso   1.000  C
  H42      1.0000 0.50570  0.94980  0.19360  Biso   1.000  H
  C55      1.0000 0.83790  0.63930  0.29840  Biso   1.000  C
  H43      1.0000 0.89220  0.63570  0.27650  Biso   1.000  H
  C56      1.0000 0.78750  0.57880  0.29410  Biso   1.000  C
  H44      1.0000 0.80630  0.53620  0.27160  Biso   1.000  H
  C57      1.0000 0.70100  0.58320  0.32690  Biso   1.000  C
  C58      1.0000 0.68330  0.64940  0.36140  Biso   1.000  C
  H45      1.0000 0.63000  0.65400  0.38460  Biso   1.000  H
  C59      1.0000 0.73970  0.70750  0.36280  Biso   1.000  C
  H46      1.0000 0.72440  0.75080  0.38620  Biso   1.000  H
  C60      1.0000 0.63970  0.52060  0.32420  Biso   1.000  C
  C61      1.0000 0.66960  0.45040  0.31940  Biso   1.000  C
  H47      1.0000 0.73180  0.44110  0.31640  Biso   1.000  H
  C62      1.0000 0.60730  0.39360  0.31900  Biso   1.000  C
  H48      1.0000 0.62940  0.34700  0.31490  Biso   1.000  H
  C63      1.0000 0.48680  0.46920  0.32770  Biso   1.000  C
  H49      1.0000 0.42390  0.47740  0.32910  Biso   1.000  H
  C64      1.0000 0.54520  0.52880  0.32930  Biso   1.000  C
  H50      1.0000 0.52120  0.57470  0.33390  Biso   1.000  H
  Cd5      1.0000 0.61146  0.79077  0.61651  Biso   1.000  Cd
  Cd6      1.0000 0.41301  0.69400  0.82715  Biso   1.000  Cd
  O13      1.0000 0.43950  0.72960  0.69170  Biso   1.000  O
  O14      1.0000 0.48050  0.72160  0.56350  Biso   1.000  O
  O15      1.0000 0.02820  0.73510  0.53420  Biso   1.000  O
  O16      1.0000 0.04460  0.73830  0.39440  Biso   1.000  O
  O17      1.0000 0.25220  0.43630  0.50340  Biso   1.000  O
  O18      1.0000 0.26190  0.48940  0.37940  Biso   1.000  O
  N9       1.0000 0.71160  0.69180  0.60480  Biso   1.000  N
  N10      1.0000 0.01490  0.39450  0.60520  Biso   1.000  N
  N11      1.0000 0.32300  0.79720  0.82850  Biso   1.000  N
  N12      1.0000 0.01460  0.09760  0.82440  Biso   1.000  N
  C65      1.0000 0.42610  0.70910  0.61290  Biso   1.000  C
  C66      1.0000 0.33120  0.67100  0.56860  Biso   1.000  C
  C67      1.0000 0.24820  0.70980  0.54750  Biso   1.000  C
  C68      1.0000 0.24090  0.78940  0.57260  Biso   1.000  C
  H51      1.0000 0.17650  0.80550  0.55160  Biso   1.000  H
  H52      1.0000 0.26020  0.79460  0.63650  Biso   1.000  H
  H53      1.0000 0.28170  0.81790  0.54550  Biso   1.000  H
  C69      1.0000 0.16130  0.67530  0.50160  Biso   1.000  C
  C70      1.0000 0.06700  0.71830  0.47580  Biso   1.000  C
  C71      1.0000 0.16100  0.60320  0.47660  Biso   1.000  C
  C72      1.0000 0.07030  0.56560  0.42990  Biso   1.000  C
  H54      1.0000 0.08400  0.51650  0.41820  Biso   1.000  H
  H55      1.0000 0.02620  0.56680  0.46750  Biso   1.000  H
  H56      1.0000 0.04300  0.58960  0.37450  Biso   1.000  H
  C73      1.0000 0.24760  0.56600  0.49680  Biso   1.000  C
  C74      1.0000 0.25480  0.49190  0.45780  Biso   1.000  C
  C75      1.0000 0.33320  0.59910  0.54470  Biso   1.000  C
  C76      1.0000 0.42680  0.55600  0.56870  Biso   1.000  C
  H57      1.0000 0.41520  0.50750  0.54730  Biso   1.000  H
  H58      1.0000 0.47260  0.57810  0.54140  Biso   1.000  H
  H59      1.0000 0.45100  0.55540  0.63250  Biso   1.000  H
  C77      1.0000 0.67810  0.62390  0.59500  Biso   1.000  C
  H60      1.0000 0.61380  0.61610  0.59070  Biso   1.000  H
  C78      1.0000 0.73610  0.56550  0.59110  Biso   1.000  C
  H61      1.0000 0.71050  0.51930  0.58480  Biso   1.000  H
  C79      1.0000 0.83000  0.57510  0.59640  Biso   1.000  C
  C80      1.0000 0.86160  0.64470  0.60270  Biso   1.000  C
  H62      1.0000 0.92520  0.65360  0.60460  Biso   1.000  H
  C81      1.0000 0.80390  0.70040  0.60620  Biso   1.000  C
  H63      1.0000 0.82870  0.74680  0.60970  Biso   1.000  H
  C82      1.0000 0.89380  0.51310  0.59740  Biso   1.000  C
  C83      1.0000 0.87200  0.45490  0.54000  Biso   1.000  C
  H64      1.0000 0.81450  0.45410  0.49710  Biso   1.000  H
  C84      1.0000 0.93470  0.39750  0.54540  Biso   1.000  C
  H65      1.0000 0.91850  0.35980  0.50480  Biso   1.000  H
  C85      1.0000 0.04140  0.45080  0.66020  Biso   1.000  C
  H66      1.0000 0.09970  0.44930  0.70190  Biso   1.000  H
  C86      1.0000 0.98420  0.51110  0.65670  Biso   1.000  C
  H67      1.0000 0.00570  0.55020  0.69360  Biso   1.000  H
  C87      1.0000 0.33790  0.86070  0.79840  Biso   1.000  C
  H68      1.0000 0.39220  0.86430  0.77650  Biso   1.000  H
  C88      1.0000 0.28750  0.92120  0.79410  Biso   1.000  C
  H69      1.0000 0.30630  0.96380  0.77160  Biso   1.000  H
  C89      1.0000 0.20100  0.91680  0.82690  Biso   1.000  C
  C90      1.0000 0.18330  0.85060  0.86140  Biso   1.000  C
  H70      1.0000 0.13000  0.84600  0.88460  Biso   1.000  H
  C91      1.0000 0.23970  0.79250  0.86280  Biso   1.000  C
  H71      1.0000 0.22440  0.74920  0.88620  Biso   1.000  H
  C92      1.0000 0.13970  0.97940  0.82420  Biso   1.000  C
  C93      1.0000 0.16960  0.04960  0.81940  Biso   1.000  C
  H72      1.0000 0.23180  0.05890  0.81640  Biso   1.000  H
  C94      1.0000 0.10730  0.10640  0.81900  Biso   1.000  C
  H73      1.0000 0.12940  0.15300  0.81490  Biso   1.000  H
  C95      1.0000 0.98680  0.03080  0.82770  Biso   1.000  C
  H74      1.0000 0.92390  0.02260  0.82910  Biso   1.000  H
  C96      1.0000 0.04520  0.97120  0.82930  Biso   1.000  C
  H75      1.0000 0.02120  0.92530  0.83390  Biso   1.000  H
  Cd7      1.0000 0.11146  0.29077  0.61651  Biso   1.000  Cd
  Cd8      1.0000 0.91301  0.19400  0.82715  Biso   1.000  Cd
  O19      1.0000 0.93950  0.22960  0.69170  Biso   1.000  O
  O20      1.0000 0.98050  0.22160  0.56350  Biso   1.000  O
  O21      1.0000 0.52820  0.23510  0.53420  Biso   1.000  O
  O22      1.0000 0.54460  0.23830  0.39440  Biso   1.000  O
  O23      1.0000 0.75220  0.93630  0.50340  Biso   1.000  O
  O24      1.0000 0.76190  0.98940  0.37940  Biso   1.000  O
  N13      1.0000 0.21160  0.19180  0.60480  Biso   1.000  N
  N14      1.0000 0.51490  0.89450  0.60520  Biso   1.000  N
  N15      1.0000 0.82300  0.29720  0.82850  Biso   1.000  N
  N16      1.0000 0.51460  0.59760  0.82440  Biso   1.000  N
  C97      1.0000 0.92610  0.20910  0.61290  Biso   1.000  C
  C98      1.0000 0.83120  0.17100  0.56860  Biso   1.000  C
  C99      1.0000 0.74820  0.20980  0.54750  Biso   1.000  C
  C100     1.0000 0.74090  0.28940  0.57260  Biso   1.000  C
  H76      1.0000 0.67650  0.30550  0.55160  Biso   1.000  H
  H77      1.0000 0.76020  0.29460  0.63650  Biso   1.000  H
  H78      1.0000 0.78170  0.31790  0.54550  Biso   1.000  H
  C101     1.0000 0.66130  0.17530  0.50160  Biso   1.000  C
  C102     1.0000 0.56700  0.21830  0.47580  Biso   1.000  C
  C103     1.0000 0.66100  0.10320  0.47660  Biso   1.000  C
  C104     1.0000 0.57030  0.06560  0.42990  Biso   1.000  C
  H79      1.0000 0.58400  0.01650  0.41820  Biso   1.000  H
  H80      1.0000 0.52620  0.06680  0.46750  Biso   1.000  H
  H81      1.0000 0.54300  0.08960  0.37450  Biso   1.000  H
  C105     1.0000 0.74760  0.06600  0.49680  Biso   1.000  C
  C106     1.0000 0.75480  0.99190  0.45780  Biso   1.000  C
  C107     1.0000 0.83320  0.09910  0.54470  Biso   1.000  C
  C108     1.0000 0.92680  0.05600  0.56870  Biso   1.000  C
  H82      1.0000 0.91520  0.00750  0.54730  Biso   1.000  H
  H83      1.0000 0.97260  0.07810  0.54140  Biso   1.000  H
  H84      1.0000 0.95100  0.05540  0.63250  Biso   1.000  H
  C109     1.0000 0.17810  0.12390  0.59500  Biso   1.000  C
  H85      1.0000 0.11380  0.11610  0.59070  Biso   1.000  H
  C110     1.0000 0.23610  0.06550  0.59110  Biso   1.000  C
  H86      1.0000 0.21050  0.01930  0.58480  Biso   1.000  H
  C111     1.0000 0.33000  0.07510  0.59640  Biso   1.000  C
  C112     1.0000 0.36160  0.14470  0.60270  Biso   1.000  C
  H87      1.0000 0.42520  0.15360  0.60460  Biso   1.000  H
  C113     1.0000 0.30390  0.20040  0.60620  Biso   1.000  C
  H88      1.0000 0.32870  0.24680  0.60970  Biso   1.000  H
  C114     1.0000 0.39380  0.01310  0.59740  Biso   1.000  C
  C115     1.0000 0.37200  0.95490  0.54000  Biso   1.000  C
  H89      1.0000 0.31450  0.95410  0.49710  Biso   1.000  H
  C116     1.0000 0.43470  0.89750  0.54540  Biso   1.000  C
  H90      1.0000 0.41850  0.85980  0.50480  Biso   1.000  H
  C117     1.0000 0.54140  0.95080  0.66020  Biso   1.000  C
  H91      1.0000 0.59970  0.94930  0.70190  Biso   1.000  H
  C118     1.0000 0.48420  0.01110  0.65670  Biso   1.000  C
  H92      1.0000 0.50570  0.05020  0.69360  Biso   1.000  H
  C119     1.0000 0.83790  0.36070  0.79840  Biso   1.000  C
  H93      1.0000 0.89220  0.36430  0.77650  Biso   1.000  H
  C120     1.0000 0.78750  0.42120  0.79410  Biso   1.000  C
  H94      1.0000 0.80630  0.46380  0.77160  Biso   1.000  H
  C121     1.0000 0.70100  0.41680  0.82690  Biso   1.000  C
  C122     1.0000 0.68330  0.35060  0.86140  Biso   1.000  C
  H95      1.0000 0.63000  0.34600  0.88460  Biso   1.000  H
  C123     1.0000 0.73970  0.29250  0.86280  Biso   1.000  C
  H96      1.0000 0.72440  0.24920  0.88620  Biso   1.000  H
  C124     1.0000 0.63970  0.47940  0.82420  Biso   1.000  C
  C125     1.0000 0.66960  0.54960  0.81940  Biso   1.000  C
  H97      1.0000 0.73180  0.55890  0.81640  Biso   1.000  H
  C126     1.0000 0.60730  0.60640  0.81900  Biso   1.000  C
  H98      1.0000 0.62940  0.65300  0.81490  Biso   1.000  H
  C127     1.0000 0.48680  0.53080  0.82770  Biso   1.000  C
  H99      1.0000 0.42390  0.52260  0.82910  Biso   1.000  H
  C128     1.0000 0.54520  0.47120  0.82930  Biso   1.000  C
  H100     1.0000 0.52120  0.42530  0.83390  Biso   1.000  H
