data_image0
_cell_length_a       11.3593
_cell_length_b       22.5823
_cell_length_c       16.5923
_cell_angle_alpha    90
_cell_angle_beta     92.129
_cell_angle_gamma    90

_symmetry_space_group_name_H-M    "P 1"
_symmetry_int_tables_number       1

loop_
  _symmetry_equiv_pos_as_xyz
  'x, y, z'

loop_
  _atom_site_label
  _atom_site_occupancy
  _atom_site_fract_x
  _atom_site_fract_y
  _atom_site_fract_z
  _atom_site_thermal_displace_type
  _atom_site_B_iso_or_equiv
  _atom_site_type_symbol
  C1       1.0000 0.41400  0.11690  0.51510  Biso   1.000  C
  C2       1.0000 0.42060  0.05970  0.56470  Biso   1.000  C
  C3       1.0000 0.35380  0.01350  0.53840  Biso   1.000  C
  H1       1.0000 0.30870  0.01760  0.48940  Biso   1.000  H
  C4       1.0000 0.34870  0.96010  0.58040  Biso   1.000  C
  H2       1.0000 0.29860  0.92920  0.56080  Biso   1.000  H
  C5       1.0000 0.41490  0.95210  0.64930  Biso   1.000  C
  C6       1.0000 0.48930  0.99920  0.68070  Biso   1.000  C
  C7       1.0000 0.49250  0.05390  0.63750  Biso   1.000  C
  C8       1.0000 0.56740  0.09890  0.67040  Biso   1.000  C
  H3       1.0000 0.57380  0.13510  0.64180  Biso   1.000  H
  C9       1.0000 0.62910  0.09240  0.73990  Biso   1.000  C
  H4       1.0000 0.67730  0.12390  0.75990  Biso   1.000  H
  C10      1.0000 0.62300  0.03860  0.78400  Biso   1.000  C
  H5       1.0000 0.66610  0.03400  0.83370  Biso   1.000  H
  C11      1.0000 0.55400  0.99350  0.75370  Biso   1.000  C
  H6       1.0000 0.55010  0.95740  0.78290  Biso   1.000  H
  C12      1.0000 0.41180  0.89400  0.69230  Biso   1.000  C
  C13      1.0000 0.52850  0.37930  0.56060  Biso   1.000  C
  C14      1.0000 0.40290  0.46310  0.50750  Biso   1.000  C
  C15      1.0000 0.51390  0.44210  0.52910  Biso   1.000  C
  C16      1.0000 0.61090  0.47770  0.52330  Biso   1.000  C
  C17      1.0000 0.73240  0.45710  0.54190  Biso   1.000  C
  H7       1.0000 0.74220  0.41820  0.56290  Biso   1.000  H
  C18      1.0000 0.83600  0.49150  0.53050  Biso   1.000  C
  H8       1.0000 0.91020  0.47510  0.54760  Biso   1.000  H
  C19      1.0000 0.20860  0.23840  0.47770  Biso   1.000  C
  C20      1.0000 0.08610  0.24020  0.50950  Biso   1.000  C
  C21      1.0000 0.03130  0.29200  0.52070  Biso   1.000  C
  H9       1.0000 0.07320  0.32760  0.51130  Biso   1.000  H
  C22      1.0000 0.91490  0.29610  0.54540  Biso   1.000  C
  H10      1.0000 0.87900  0.33370  0.55160  Biso   1.000  H
  C23      1.0000 0.85300  0.24520  0.56080  Biso   1.000  C
  C24      1.0000 0.90640  0.18930  0.55230  Biso   1.000  C
  C25      1.0000 0.02540  0.18610  0.52640  Biso   1.000  C
  C26      1.0000 0.08040  0.12980  0.51940  Biso   1.000  C
  H11      1.0000 0.15850  0.12720  0.50120  Biso   1.000  H
  C27      1.0000 0.02090  0.07930  0.53880  Biso   1.000  C
  H12      1.0000 0.05820  0.04190  0.53400  Biso   1.000  H
  C28      1.0000 0.90420  0.08230  0.56590  Biso   1.000  C
  H13      1.0000 0.86460  0.04710  0.58050  Biso   1.000  H
  C29      1.0000 0.84860  0.13550  0.57120  Biso   1.000  C
  H14      1.0000 0.76950  0.13660  0.58780  Biso   1.000  H
  C30      1.0000 0.73010  0.25060  0.59110  Biso   1.000  C
  C31      1.0000 0.56200  0.26220  0.37280  Biso   1.000  C
  H15      1.0000 0.59840  0.29370  0.40240  Biso   1.000  H
  C32      1.0000 0.35560  0.24920  0.69500  Biso   1.000  C
  H16      1.0000 0.30490  0.22140  0.66820  Biso   1.000  H
  O1       1.0000 0.43340  0.16420  0.55220  Biso   1.000  O
  O2       1.0000 0.38450  0.11240  0.44290  Biso   1.000  O
  O3       1.0000 0.50800  0.86620  0.71010  Biso   1.000  O
  O4       1.0000 0.31490  0.87330  0.71350  Biso   1.000  O
  O5       1.0000 0.57810  0.37320  0.62780  Biso   1.000  O
  O6       1.0000 0.48650  0.33920  0.51640  Biso   1.000  O
  O7       1.0000 0.28570  0.26650  0.51780  Biso   1.000  O
  O8       1.0000 0.22240  0.21110  0.41420  Biso   1.000  O
  O9       1.0000 0.72430  0.26930  0.66250  Biso   1.000  O
  O10      1.0000 0.64530  0.23760  0.54550  Biso   1.000  O
  O11      1.0000 0.48270  0.23480  0.40770  Biso   1.000  O
  O12      1.0000 0.59920  0.25320  0.30390  Biso   1.000  O
  O13      1.0000 0.44710  0.26500  0.65830  Biso   1.000  O
  O14      1.0000 0.32710  0.26640  0.76110  Biso   1.000  O
  Mg1      1.0000 0.46410  0.25056  0.53215  Biso   1.000  Mg
  Mg2      1.0000 0.58570  0.30844  0.71407  Biso   1.000  Mg
  Mg3      1.0000 0.36020  0.17429  0.35431  Biso   1.000  Mg
  H17      1.0000 0.29750  0.39120  0.53720  Biso   1.000  H
  C33      1.0000 0.28840  0.43080  0.51870  Biso   1.000  C
  H18      1.0000 0.09660  0.42760  0.51920  Biso   1.000  H
  C34      1.0000 0.16420  0.44990  0.50590  Biso   1.000  C
  C35      1.0000 0.58600  0.61690  0.98490  Biso   1.000  C
  C36      1.0000 0.57940  0.55970  0.93530  Biso   1.000  C
  C37      1.0000 0.64620  0.51350  0.96160  Biso   1.000  C
  H19      1.0000 0.69130  0.51760  0.01060  Biso   1.000  H
  C38      1.0000 0.65130  0.46010  0.91960  Biso   1.000  C
  H20      1.0000 0.70140  0.42920  0.93920  Biso   1.000  H
  C39      1.0000 0.58510  0.45210  0.85070  Biso   1.000  C
  C40      1.0000 0.51070  0.49920  0.81930  Biso   1.000  C
  C41      1.0000 0.50750  0.55390  0.86250  Biso   1.000  C
  C42      1.0000 0.43260  0.59890  0.82960  Biso   1.000  C
  H21      1.0000 0.42620  0.63510  0.85820  Biso   1.000  H
  C43      1.0000 0.37090  0.59240  0.76010  Biso   1.000  C
  H22      1.0000 0.32270  0.62390  0.74010  Biso   1.000  H
  C44      1.0000 0.37700  0.53860  0.71600  Biso   1.000  C
  H23      1.0000 0.33390  0.53400  0.66630  Biso   1.000  H
  C45      1.0000 0.44600  0.49350  0.74630  Biso   1.000  C
  H24      1.0000 0.44990  0.45740  0.71710  Biso   1.000  H
  C46      1.0000 0.58820  0.39400  0.80770  Biso   1.000  C
  C47      1.0000 0.47150  0.87930  0.93940  Biso   1.000  C
  C48      1.0000 0.59710  0.96310  0.99250  Biso   1.000  C
  C49      1.0000 0.48610  0.94210  0.97090  Biso   1.000  C
  C50      1.0000 0.38910  0.97770  0.97670  Biso   1.000  C
  C51      1.0000 0.26760  0.95710  0.95810  Biso   1.000  C
  H25      1.0000 0.25780  0.91820  0.93710  Biso   1.000  H
  C52      1.0000 0.16400  0.99150  0.96950  Biso   1.000  C
  H26      1.0000 0.08980  0.97510  0.95240  Biso   1.000  H
  C53      1.0000 0.79140  0.73840  0.02230  Biso   1.000  C
  C54      1.0000 0.91390  0.74020  0.99050  Biso   1.000  C
  C55      1.0000 0.96870  0.79200  0.97930  Biso   1.000  C
  H27      1.0000 0.92680  0.82760  0.98870  Biso   1.000  H
  C56      1.0000 0.08510  0.79610  0.95460  Biso   1.000  C
  H28      1.0000 0.12100  0.83370  0.94840  Biso   1.000  H
  C57      1.0000 0.14700  0.74520  0.93920  Biso   1.000  C
  C58      1.0000 0.09360  0.68930  0.94770  Biso   1.000  C
  C59      1.0000 0.97460  0.68610  0.97360  Biso   1.000  C
  C60      1.0000 0.91960  0.62980  0.98060  Biso   1.000  C
  H29      1.0000 0.84150  0.62720  0.99880  Biso   1.000  H
  C61      1.0000 0.97910  0.57930  0.96120  Biso   1.000  C
  H30      1.0000 0.94180  0.54190  0.96600  Biso   1.000  H
  C62      1.0000 0.09580  0.58230  0.93410  Biso   1.000  C
  H31      1.0000 0.13540  0.54710  0.91950  Biso   1.000  H
  C63      1.0000 0.15140  0.63550  0.92880  Biso   1.000  C
  H32      1.0000 0.23050  0.63660  0.91220  Biso   1.000  H
  C64      1.0000 0.26990  0.75060  0.90890  Biso   1.000  C
  C65      1.0000 0.43800  0.76220  0.12720  Biso   1.000  C
  H33      1.0000 0.40160  0.79370  0.09760  Biso   1.000  H
  C66      1.0000 0.64440  0.74920  0.80500  Biso   1.000  C
  H34      1.0000 0.69510  0.72140  0.83180  Biso   1.000  H
  O15      1.0000 0.56660  0.66420  0.94780  Biso   1.000  O
  O16      1.0000 0.61550  0.61240  0.05710  Biso   1.000  O
  O17      1.0000 0.49200  0.36620  0.78990  Biso   1.000  O
  O18      1.0000 0.68510  0.37330  0.78650  Biso   1.000  O
  O19      1.0000 0.42190  0.87320  0.87220  Biso   1.000  O
  O20      1.0000 0.51350  0.83920  0.98360  Biso   1.000  O
  O21      1.0000 0.71430  0.76650  0.98220  Biso   1.000  O
  O22      1.0000 0.77760  0.71110  0.08580  Biso   1.000  O
  O23      1.0000 0.27570  0.76930  0.83750  Biso   1.000  O
  O24      1.0000 0.35470  0.73760  0.95450  Biso   1.000  O
  O25      1.0000 0.51730  0.73480  0.09230  Biso   1.000  O
  O26      1.0000 0.40080  0.75320  0.19610  Biso   1.000  O
  O27      1.0000 0.55290  0.76500  0.84170  Biso   1.000  O
  O28      1.0000 0.67290  0.76640  0.73890  Biso   1.000  O
  Mg4      1.0000 0.53590  0.75056  0.96785  Biso   1.000  Mg
  Mg5      1.0000 0.41430  0.80844  0.78593  Biso   1.000  Mg
  Mg6      1.0000 0.63980  0.67429  0.14569  Biso   1.000  Mg
  H35      1.0000 0.70250  0.89120  0.96280  Biso   1.000  H
  C67      1.0000 0.71160  0.93080  0.98130  Biso   1.000  C
  H36      1.0000 0.90340  0.92760  0.98080  Biso   1.000  H
  C68      1.0000 0.83580  0.94990  0.99410  Biso   1.000  C
  C69      1.0000 0.58600  0.88310  0.48490  Biso   1.000  C
  C70      1.0000 0.57940  0.94030  0.43530  Biso   1.000  C
  C71      1.0000 0.64620  0.98650  0.46160  Biso   1.000  C
  H37      1.0000 0.69130  0.98240  0.51060  Biso   1.000  H
  C72      1.0000 0.65130  0.03990  0.41960  Biso   1.000  C
  H38      1.0000 0.70140  0.07080  0.43920  Biso   1.000  H
  C73      1.0000 0.58510  0.04790  0.35070  Biso   1.000  C
  C74      1.0000 0.51070  0.00080  0.31930  Biso   1.000  C
  C75      1.0000 0.50750  0.94610  0.36250  Biso   1.000  C
  C76      1.0000 0.43260  0.90110  0.32960  Biso   1.000  C
  H39      1.0000 0.42620  0.86490  0.35820  Biso   1.000  H
  C77      1.0000 0.37090  0.90760  0.26010  Biso   1.000  C
  H40      1.0000 0.32270  0.87610  0.24010  Biso   1.000  H
  C78      1.0000 0.37700  0.96140  0.21600  Biso   1.000  C
  H41      1.0000 0.33390  0.96600  0.16630  Biso   1.000  H
  C79      1.0000 0.44600  0.00650  0.24630  Biso   1.000  C
  H42      1.0000 0.44990  0.04260  0.21710  Biso   1.000  H
  C80      1.0000 0.58820  0.10600  0.30770  Biso   1.000  C
  C81      1.0000 0.47150  0.62070  0.43940  Biso   1.000  C
  C82      1.0000 0.59710  0.53690  0.49250  Biso   1.000  C
  C83      1.0000 0.48610  0.55790  0.47090  Biso   1.000  C
  C84      1.0000 0.38910  0.52230  0.47670  Biso   1.000  C
  C85      1.0000 0.26760  0.54290  0.45810  Biso   1.000  C
  H43      1.0000 0.25780  0.58180  0.43710  Biso   1.000  H
  C86      1.0000 0.16400  0.50850  0.46950  Biso   1.000  C
  H44      1.0000 0.08980  0.52490  0.45240  Biso   1.000  H
  C87      1.0000 0.79140  0.76160  0.52230  Biso   1.000  C
  C88      1.0000 0.91390  0.75980  0.49050  Biso   1.000  C
  C89      1.0000 0.96870  0.70800  0.47930  Biso   1.000  C
  H45      1.0000 0.92680  0.67240  0.48870  Biso   1.000  H
  C90      1.0000 0.08510  0.70390  0.45460  Biso   1.000  C
  H46      1.0000 0.12100  0.66630  0.44840  Biso   1.000  H
  C91      1.0000 0.14700  0.75480  0.43920  Biso   1.000  C
  C92      1.0000 0.09360  0.81070  0.44770  Biso   1.000  C
  C93      1.0000 0.97460  0.81390  0.47360  Biso   1.000  C
  C94      1.0000 0.91960  0.87020  0.48060  Biso   1.000  C
  H47      1.0000 0.84150  0.87280  0.49880  Biso   1.000  H
  C95      1.0000 0.97910  0.92070  0.46120  Biso   1.000  C
  H48      1.0000 0.94180  0.95810  0.46600  Biso   1.000  H
  C96      1.0000 0.09580  0.91770  0.43410  Biso   1.000  C
  H49      1.0000 0.13540  0.95290  0.41950  Biso   1.000  H
  C97      1.0000 0.15140  0.86450  0.42880  Biso   1.000  C
  H50      1.0000 0.23050  0.86340  0.41220  Biso   1.000  H
  C98      1.0000 0.26990  0.74940  0.40890  Biso   1.000  C
  C99      1.0000 0.43800  0.73780  0.62720  Biso   1.000  C
  H51      1.0000 0.40160  0.70630  0.59760  Biso   1.000  H
  C100     1.0000 0.64440  0.75080  0.30500  Biso   1.000  C
  H52      1.0000 0.69510  0.77860  0.33180  Biso   1.000  H
  O29      1.0000 0.56660  0.83580  0.44780  Biso   1.000  O
  O30      1.0000 0.61550  0.88760  0.55710  Biso   1.000  O
  O31      1.0000 0.49200  0.13380  0.28990  Biso   1.000  O
  O32      1.0000 0.68510  0.12670  0.28650  Biso   1.000  O
  O33      1.0000 0.42190  0.62680  0.37220  Biso   1.000  O
  O34      1.0000 0.51350  0.66080  0.48360  Biso   1.000  O
  O35      1.0000 0.71430  0.73350  0.48220  Biso   1.000  O
  O36      1.0000 0.77760  0.78890  0.58580  Biso   1.000  O
  O37      1.0000 0.27570  0.73070  0.33750  Biso   1.000  O
  O38      1.0000 0.35470  0.76240  0.45450  Biso   1.000  O
  O39      1.0000 0.51730  0.76520  0.59230  Biso   1.000  O
  O40      1.0000 0.40080  0.74680  0.69610  Biso   1.000  O
  O41      1.0000 0.55290  0.73500  0.34170  Biso   1.000  O
  O42      1.0000 0.67290  0.73360  0.23890  Biso   1.000  O
  Mg7      1.0000 0.53590  0.74944  0.46785  Biso   1.000  Mg
  Mg8      1.0000 0.41430  0.69156  0.28593  Biso   1.000  Mg
  Mg9      1.0000 0.63980  0.82571  0.64569  Biso   1.000  Mg
  H53      1.0000 0.70250  0.60880  0.46280  Biso   1.000  H
  C101     1.0000 0.71160  0.56920  0.48130  Biso   1.000  C
  H54      1.0000 0.90340  0.57240  0.48080  Biso   1.000  H
  C102     1.0000 0.83580  0.55010  0.49410  Biso   1.000  C
  C103     1.0000 0.41400  0.38310  0.01510  Biso   1.000  C
  C104     1.0000 0.42060  0.44030  0.06470  Biso   1.000  C
  C105     1.0000 0.35380  0.48650  0.03840  Biso   1.000  C
  H55      1.0000 0.30870  0.48240  0.98940  Biso   1.000  H
  C106     1.0000 0.34870  0.53990  0.08040  Biso   1.000  C
  H56      1.0000 0.29860  0.57080  0.06080  Biso   1.000  H
  C107     1.0000 0.41490  0.54790  0.14930  Biso   1.000  C
  C108     1.0000 0.48930  0.50080  0.18070  Biso   1.000  C
  C109     1.0000 0.49250  0.44610  0.13750  Biso   1.000  C
  C110     1.0000 0.56740  0.40110  0.17040  Biso   1.000  C
  H57      1.0000 0.57380  0.36490  0.14180  Biso   1.000  H
  C111     1.0000 0.62910  0.40760  0.23990  Biso   1.000  C
  H58      1.0000 0.67730  0.37610  0.25990  Biso   1.000  H
  C112     1.0000 0.62300  0.46140  0.28400  Biso   1.000  C
  H59      1.0000 0.66610  0.46600  0.33370  Biso   1.000  H
  C113     1.0000 0.55400  0.50650  0.25370  Biso   1.000  C
  H60      1.0000 0.55010  0.54260  0.28290  Biso   1.000  H
  C114     1.0000 0.41180  0.60600  0.19230  Biso   1.000  C
  C115     1.0000 0.52850  0.12070  0.06060  Biso   1.000  C
  C116     1.0000 0.40290  0.03690  0.00750  Biso   1.000  C
  C117     1.0000 0.51390  0.05790  0.02910  Biso   1.000  C
  C118     1.0000 0.61090  0.02230  0.02330  Biso   1.000  C
  C119     1.0000 0.73240  0.04290  0.04190  Biso   1.000  C
  H61      1.0000 0.74220  0.08180  0.06290  Biso   1.000  H
  C120     1.0000 0.83600  0.00850  0.03050  Biso   1.000  C
  H62      1.0000 0.91020  0.02490  0.04760  Biso   1.000  H
  C121     1.0000 0.20860  0.26160  0.97770  Biso   1.000  C
  C122     1.0000 0.08610  0.25980  0.00950  Biso   1.000  C
  C123     1.0000 0.03130  0.20800  0.02070  Biso   1.000  C
  H63      1.0000 0.07320  0.17240  0.01130  Biso   1.000  H
  C124     1.0000 0.91490  0.20390  0.04540  Biso   1.000  C
  H64      1.0000 0.87900  0.16630  0.05160  Biso   1.000  H
  C125     1.0000 0.85300  0.25480  0.06080  Biso   1.000  C
  C126     1.0000 0.90640  0.31070  0.05230  Biso   1.000  C
  C127     1.0000 0.02540  0.31390  0.02640  Biso   1.000  C
  C128     1.0000 0.08040  0.37020  0.01940  Biso   1.000  C
  H65      1.0000 0.15850  0.37280  0.00120  Biso   1.000  H
  C129     1.0000 0.02090  0.42070  0.03880  Biso   1.000  C
  H66      1.0000 0.05820  0.45810  0.03400  Biso   1.000  H
  C130     1.0000 0.90420  0.41770  0.06590  Biso   1.000  C
  H67      1.0000 0.86460  0.45290  0.08050  Biso   1.000  H
  C131     1.0000 0.84860  0.36450  0.07120  Biso   1.000  C
  H68      1.0000 0.76950  0.36340  0.08780  Biso   1.000  H
  C132     1.0000 0.73010  0.24940  0.09110  Biso   1.000  C
  C133     1.0000 0.56200  0.23780  0.87280  Biso   1.000  C
  H69      1.0000 0.59840  0.20630  0.90240  Biso   1.000  H
  C134     1.0000 0.35560  0.25080  0.19500  Biso   1.000  C
  H70      1.0000 0.30490  0.27860  0.16820  Biso   1.000  H
  O43      1.0000 0.43340  0.33580  0.05220  Biso   1.000  O
  O44      1.0000 0.38450  0.38760  0.94290  Biso   1.000  O
  O45      1.0000 0.50800  0.63380  0.21010  Biso   1.000  O
  O46      1.0000 0.31490  0.62670  0.21350  Biso   1.000  O
  O47      1.0000 0.57810  0.12680  0.12780  Biso   1.000  O
  O48      1.0000 0.48650  0.16080  0.01640  Biso   1.000  O
  O49      1.0000 0.28570  0.23350  0.01780  Biso   1.000  O
  O50      1.0000 0.22240  0.28890  0.91420  Biso   1.000  O
  O51      1.0000 0.72430  0.23070  0.16250  Biso   1.000  O
  O52      1.0000 0.64530  0.26240  0.04550  Biso   1.000  O
  O53      1.0000 0.48270  0.26520  0.90770  Biso   1.000  O
  O54      1.0000 0.59920  0.24680  0.80390  Biso   1.000  O
  O55      1.0000 0.44710  0.23500  0.15830  Biso   1.000  O
  O56      1.0000 0.32710  0.23360  0.26110  Biso   1.000  O
  Mg10     1.0000 0.46410  0.24944  0.03215  Biso   1.000  Mg
  Mg11     1.0000 0.58570  0.19156  0.21407  Biso   1.000  Mg
  Mg12     1.0000 0.36020  0.32571  0.85431  Biso   1.000  Mg
  H71      1.0000 0.29750  0.10880  0.03720  Biso   1.000  H
  C135     1.0000 0.28840  0.06920  0.01870  Biso   1.000  C
  H72      1.0000 0.09660  0.07240  0.01920  Biso   1.000  H
  C136     1.0000 0.16420  0.05010  0.00590  Biso   1.000  C
