data_DOLXOR01_clean
_audit_creation_date              2014-07-02
_audit_creation_method            'Materials Studio'
_symmetry_space_group_name_H-M    'P1'
_symmetry_Int_Tables_number       1
_symmetry_cell_setting            triclinic
loop_
_symmetry_equiv_pos_as_xyz
  x,y,z
_cell_length_a                    9.4366
_cell_length_b                    9.4366
_cell_length_c                    16.4240
_cell_angle_alpha                 88.5049
_cell_angle_beta                  88.5049
_cell_angle_gamma                 83.7416
loop_
_atom_site_label
_atom_site_type_symbol
_atom_site_fract_x
_atom_site_fract_y
_atom_site_fract_z
_atom_site_U_iso_or_equiv
_atom_site_adp_type
_atom_site_occupancy
Cu1    Cu    0.49224   0.13618   0.50256   0.01267  Uiso   1.00
Cu2    Cu    0.86382   0.50776   0.99744   0.01267  Uiso   1.00
Cu3    Cu    0.50776   0.86382   0.49744   0.01267  Uiso   1.00
Cu4    Cu    0.13618   0.49224   0.00256   0.01267  Uiso   1.00
Cu5    Cu    0.00000   0.00000   0.50000   0.01267  Uiso   1.00
Cu6    Cu    0.00000   0.00000   0.00000   0.01267  Uiso   1.00
Cu7    Cu    0.63662   0.36338   0.75000   0.01267  Uiso   1.00
Cu8    Cu    0.36338   0.63662   0.25000   0.01267  Uiso   1.00
Cu9    Cu    0.60220   0.39780   0.25000   0.01267  Uiso   1.00
Cu10   Cu    0.39780   0.60220   0.75000   0.01267  Uiso   1.00
C1     C     0.31660   0.04060   0.51080   0.01267  Uiso   1.00
C2     C     0.57150   0.28290   0.66140   0.01267  Uiso   1.00
C3     C     0.53800   0.30640   0.33990   0.01267  Uiso   1.00
C4     C     0.95940   0.68340   0.98920   0.01267  Uiso   1.00
C5     C     0.71710   0.42850   0.83860   0.01267  Uiso   1.00
C6     C     0.69360   0.46200   0.16010   0.01267  Uiso   1.00
C7     C     0.68340   0.95940   0.48920   0.01267  Uiso   1.00
C8     C     0.42850   0.71710   0.33860   0.01267  Uiso   1.00
C9     C     0.46200   0.69360   0.66010   0.01267  Uiso   1.00
C10    C     0.04060   0.31660   0.01080   0.01267  Uiso   1.00
C11    C     0.28290   0.57150   0.16140   0.01267  Uiso   1.00
C12    C     0.30640   0.53800   0.83990   0.01267  Uiso   1.00
N1     N     0.19890   0.02530   0.51340   0.01267  Uiso   1.00
N2     N     0.54220   0.22920   0.60340   0.01267  Uiso   1.00
N3     N     0.51580   0.24480   0.39830   0.01267  Uiso   1.00
N4     N     0.97470   0.80110   0.98660   0.01267  Uiso   1.00
N5     N     0.77080   0.45780   0.89660   0.01267  Uiso   1.00
N6     N     0.75520   0.48420   0.10170   0.01267  Uiso   1.00
N7     N     0.80110   0.97470   0.48660   0.01267  Uiso   1.00
N8     N     0.45780   0.77080   0.39660   0.01267  Uiso   1.00
N9     N     0.48420   0.75520   0.60170   0.01267  Uiso   1.00
N10    N     0.02530   0.19890   0.01340   0.01267  Uiso   1.00
N11    N     0.22920   0.54220   0.10340   0.01267  Uiso   1.00
N12    N     0.24480   0.51580   0.89830   0.01267  Uiso   1.00
