data_DOLXOR02_clean
_audit_creation_date              2014-07-02
_audit_creation_method            'Materials Studio'
_symmetry_space_group_name_H-M    'P1'
_symmetry_Int_Tables_number       1
_symmetry_cell_setting            triclinic
loop_
_symmetry_equiv_pos_as_xyz
  x,y,z
_cell_length_a                    9.4505
_cell_length_b                    9.4505
_cell_length_c                    16.4367
_cell_angle_alpha                 88.5107
_cell_angle_beta                  88.5107
_cell_angle_gamma                 83.7963
loop_
_atom_site_label
_atom_site_type_symbol
_atom_site_fract_x
_atom_site_fract_y
_atom_site_fract_z
_atom_site_U_iso_or_equiv
_atom_site_adp_type
_atom_site_occupancy
Cu1    Cu    0.13606   0.49229   0.50266   0.01267  Uiso   1.00
Cu2    Cu    0.50771   0.86394   0.99734   0.01267  Uiso   1.00
Cu3    Cu    0.86394   0.50771   0.49734   0.01267  Uiso   1.00
Cu4    Cu    0.49229   0.13606   0.00266   0.01267  Uiso   1.00
Cu5    Cu    0.39772   0.60228   0.25000   0.01267  Uiso   1.00
Cu6    Cu    0.60228   0.39772   0.75000   0.01267  Uiso   1.00
Cu7    Cu    0.36382   0.63618   0.75000   0.01267  Uiso   1.00
Cu8    Cu    0.63618   0.36382   0.25000   0.01267  Uiso   1.00
Cu9    Cu    0.00000   0.00000   0.50000   0.01267  Uiso   1.00
Cu10   Cu    0.00000   0.00000   0.00000   0.01267  Uiso   1.00
C1     C     0.04076   0.31660   0.51073   0.01267  Uiso   1.00
C2     C     0.30552   0.53774   0.34091   0.01267  Uiso   1.00
C3     C     0.28171   0.57115   0.66021   0.01267  Uiso   1.00
C4     C     0.68340   0.95924   0.98927   0.01267  Uiso   1.00
C5     C     0.46226   0.69448   0.15909   0.01267  Uiso   1.00
C6     C     0.42885   0.71829   0.83979   0.01267  Uiso   1.00
C7     C     0.95924   0.68340   0.48927   0.01267  Uiso   1.00
C8     C     0.69448   0.46226   0.65909   0.01267  Uiso   1.00
C9     C     0.71829   0.42885   0.33979   0.01267  Uiso   1.00
C10    C     0.31660   0.04076   0.01073   0.01267  Uiso   1.00
C11    C     0.53774   0.30552   0.84091   0.01267  Uiso   1.00
C12    C     0.57115   0.28171   0.16021   0.01267  Uiso   1.00
N1     N     0.02604   0.19884   0.51328   0.01267  Uiso   1.00
N2     N     0.24326   0.51612   0.39964   0.01267  Uiso   1.00
N3     N     0.22839   0.54171   0.60249   0.01267  Uiso   1.00
N4     N     0.80116   0.97396   0.98672   0.01267  Uiso   1.00
N5     N     0.48388   0.75674   0.10036   0.01267  Uiso   1.00
N6     N     0.45829   0.77161   0.89751   0.01267  Uiso   1.00
N7     N     0.97396   0.80116   0.48672   0.01267  Uiso   1.00
N8     N     0.75674   0.48388   0.60036   0.01267  Uiso   1.00
N9     N     0.77161   0.45829   0.39751   0.01267  Uiso   1.00
N10    N     0.19884   0.02604   0.01328   0.01267  Uiso   1.00
N11    N     0.51612   0.24326   0.89964   0.01267  Uiso   1.00
N12    N     0.54171   0.22839   0.10249   0.01267  Uiso   1.00
