data_DOMGET_clean
_audit_creation_date              2015-10-16
_audit_creation_method            'Materials Studio'
_symmetry_space_group_name_H-M    'P1'
_symmetry_Int_Tables_number       1
_symmetry_cell_setting            triclinic
loop_
_symmetry_equiv_pos_as_xyz
  x,y,z
_cell_length_a                    11.4924
_cell_length_b                    23.9282
_cell_length_c                    23.9282
_cell_angle_alpha                 93.5557
_cell_angle_beta                  103.3660
_cell_angle_gamma                 103.3660
loop_
_atom_site_label
_atom_site_type_symbol
_atom_site_fract_x
_atom_site_fract_y
_atom_site_fract_z
_atom_site_U_iso_or_equiv
_atom_site_adp_type
_atom_site_occupancy
Na1    Na    0.98739   0.32528   0.17066   0.01267  Uiso   1.00
Na2    Na    0.49117   0.26674   0.26674   0.01267  Uiso   1.00
Na3    Na    0.00731   0.82388   0.82388   0.01267  Uiso   1.00
Na4    Na    0.01261   0.82934   0.67472   0.01267  Uiso   1.00
Na5    Na    0.98739   0.17066   0.32528   0.01267  Uiso   1.00
Na6    Na    0.50883   0.73326   0.73326   0.01267  Uiso   1.00
Na7    Na    0.99269   0.17612   0.17612   0.01267  Uiso   1.00
Na8    Na    0.01261   0.67472   0.82934   0.01267  Uiso   1.00
Dy1    Dy    0.23206   0.76283   0.76283   0.01267  Uiso   1.00
Dy2    Dy    0.79491   0.70769   0.70769   0.01267  Uiso   1.00
Dy3    Dy    0.76794   0.23717   0.23717   0.01267  Uiso   1.00
Dy4    Dy    0.20509   0.29231   0.29231   0.01267  Uiso   1.00
Zn1    Zn    0.29527   0.79764   0.27484   0.01267  Uiso   1.00
Zn2    Zn    0.70473   0.72516   0.20236   0.01267  Uiso   1.00
Zn3    Zn    0.70473   0.20236   0.72516   0.01267  Uiso   1.00
Zn4    Zn    0.29527   0.27484   0.79764   0.01267  Uiso   1.00
H1     H     0.85120   0.43340   0.17080   0.01267  Uiso   1.00
H2     H     0.27220   0.90230   0.09210   0.01267  Uiso   1.00
H3     H     0.70390   0.30890   0.54550   0.01267  Uiso   1.00
H4     H     0.12170   0.79130   0.04570   0.01267  Uiso   1.00
H5     H     0.87830   0.95430   0.20870   0.01267  Uiso   1.00
H6     H     0.55110   0.69250   0.85870   0.01267  Uiso   1.00
H7     H     0.37950   0.92330   0.47110   0.01267  Uiso   1.00
H8     H     0.47840   0.04840   0.30700   0.01267  Uiso   1.00
H9     H     0.44890   0.14130   0.30750   0.01267  Uiso   1.00
H10    H     0.46480   0.77700   0.61140   0.01267  Uiso   1.00
H11    H     0.87740   0.79770   0.53110   0.01267  Uiso   1.00
H12    H     0.72780   0.09770   0.90790   0.01267  Uiso   1.00
H13    H     0.46330   0.32910   0.59590   0.01267  Uiso   1.00
H14    H     0.12170   0.04570   0.79130   0.01267  Uiso   1.00
H15    H     0.53520   0.38860   0.22300   0.01267  Uiso   1.00
H16    H     0.12260   0.46890   0.20230   0.01267  Uiso   1.00
H17    H     0.48150   0.79610   0.07210   0.01267  Uiso   1.00
H18    H     0.71590   0.62310   0.38430   0.01267  Uiso   1.00
H19    H     0.46030   0.79040   0.97220   0.01267  Uiso   1.00
H20    H     0.63470   0.60030   0.00690   0.01267  Uiso   1.00
H21    H     0.37950   0.47110   0.92330   0.01267  Uiso   1.00
H22    H     0.46330   0.59590   0.32910   0.01267  Uiso   1.00
H23    H     0.14880   0.82920   0.56660   0.01267  Uiso   1.00
H24    H     0.72790   0.02260   0.83120   0.01267  Uiso   1.00
H25    H     0.88790   0.01830   0.73610   0.01267  Uiso   1.00
H26    H     0.10160   0.94670   0.78830   0.01267  Uiso   1.00
H27    H     0.91810   0.92580   0.73740   0.01267  Uiso   1.00
H28    H     0.56450   0.50380   0.67060   0.01267  Uiso   1.00
H29    H     0.48150   0.07210   0.79610   0.01267  Uiso   1.00
H30    H     0.29610   0.45450   0.69110   0.01267  Uiso   1.00
H31    H     0.62050   0.52890   0.07670   0.01267  Uiso   1.00
H32    H     0.36750   0.62110   0.16530   0.01267  Uiso   1.00
H33    H     0.63250   0.37890   0.83470   0.01267  Uiso   1.00
H34    H     0.08190   0.26260   0.07420   0.01267  Uiso   1.00
H35    H     0.63250   0.83470   0.37890   0.01267  Uiso   1.00
H36    H     0.87740   0.53110   0.79770   0.01267  Uiso   1.00
H37    H     0.11210   0.98170   0.26390   0.01267  Uiso   1.00
H38    H     0.53520   0.22300   0.38860   0.01267  Uiso   1.00
H39    H     0.27210   0.16880   0.97740   0.01267  Uiso   1.00
H40    H     0.28410   0.37690   0.61570   0.01267  Uiso   1.00
H41    H     0.85120   0.17080   0.43340   0.01267  Uiso   1.00
H42    H     0.51470   0.48300   0.21900   0.01267  Uiso   1.00
H43    H     0.36950   0.09540   0.69300   0.01267  Uiso   1.00
H44    H     0.36950   0.69300   0.09540   0.01267  Uiso   1.00
H45    H     0.71590   0.38430   0.62310   0.01267  Uiso   1.00
H46    H     0.48530   0.51700   0.78100   0.01267  Uiso   1.00
H47    H     0.17050   0.83470   0.47310   0.01267  Uiso   1.00
H48    H     0.72780   0.90790   0.09770   0.01267  Uiso   1.00
H49    H     0.46480   0.61140   0.77700   0.01267  Uiso   1.00
H50    H     0.63050   0.90460   0.30700   0.01267  Uiso   1.00
H51    H     0.63470   0.00690   0.60030   0.01267  Uiso   1.00
H52    H     0.51850   0.92790   0.20390   0.01267  Uiso   1.00
H53    H     0.15200   0.20050   0.56850   0.01267  Uiso   1.00
H54    H     0.89840   0.21170   0.05330   0.01267  Uiso   1.00
H55    H     0.82950   0.52690   0.16530   0.01267  Uiso   1.00
H56    H     0.51470   0.21900   0.48300   0.01267  Uiso   1.00
H57    H     0.87830   0.20870   0.95430   0.01267  Uiso   1.00
H58    H     0.53670   0.40410   0.67090   0.01267  Uiso   1.00
H59    H     0.10160   0.78830   0.94670   0.01267  Uiso   1.00
H60    H     0.47840   0.30700   0.04840   0.01267  Uiso   1.00
H61    H     0.44890   0.30750   0.14130   0.01267  Uiso   1.00
H62    H     0.84800   0.79950   0.43150   0.01267  Uiso   1.00
H63    H     0.27210   0.97740   0.16880   0.01267  Uiso   1.00
H64    H     0.12260   0.20230   0.46890   0.01267  Uiso   1.00
H65    H     0.88790   0.73610   0.01830   0.01267  Uiso   1.00
H66    H     0.82950   0.16530   0.52690   0.01267  Uiso   1.00
H67    H     0.15200   0.56850   0.20050   0.01267  Uiso   1.00
H68    H     0.08190   0.07420   0.26260   0.01267  Uiso   1.00
H69    H     0.72790   0.83120   0.02260   0.01267  Uiso   1.00
H70    H     0.91810   0.73740   0.92580   0.01267  Uiso   1.00
H71    H     0.55110   0.85870   0.69250   0.01267  Uiso   1.00
H72    H     0.52160   0.95160   0.69300   0.01267  Uiso   1.00
H73    H     0.43550   0.32940   0.49620   0.01267  Uiso   1.00
H74    H     0.52160   0.69300   0.95160   0.01267  Uiso   1.00
H75    H     0.63050   0.30700   0.90460   0.01267  Uiso   1.00
H76    H     0.27220   0.09210   0.90230   0.01267  Uiso   1.00
H77    H     0.62050   0.07670   0.52890   0.01267  Uiso   1.00
H78    H     0.17050   0.47310   0.83470   0.01267  Uiso   1.00
H79    H     0.36530   0.39970   0.99310   0.01267  Uiso   1.00
H80    H     0.48530   0.78100   0.51700   0.01267  Uiso   1.00
H81    H     0.29610   0.69110   0.45450   0.01267  Uiso   1.00
H82    H     0.51850   0.20390   0.92790   0.01267  Uiso   1.00
H83    H     0.36750   0.16530   0.62110   0.01267  Uiso   1.00
H84    H     0.84800   0.43150   0.79950   0.01267  Uiso   1.00
H85    H     0.56450   0.67060   0.50380   0.01267  Uiso   1.00
H86    H     0.46030   0.97220   0.79040   0.01267  Uiso   1.00
H87    H     0.11210   0.26390   0.98170   0.01267  Uiso   1.00
H88    H     0.70390   0.54550   0.30890   0.01267  Uiso   1.00
H89    H     0.43550   0.49620   0.32940   0.01267  Uiso   1.00
H90    H     0.14880   0.56660   0.82920   0.01267  Uiso   1.00
H91    H     0.28410   0.61570   0.37690   0.01267  Uiso   1.00
H92    H     0.53670   0.67090   0.40410   0.01267  Uiso   1.00
H93    H     0.53970   0.20960   0.02780   0.01267  Uiso   1.00
H94    H     0.53970   0.02780   0.20960   0.01267  Uiso   1.00
H95    H     0.89840   0.05330   0.21170   0.01267  Uiso   1.00
H96    H     0.36530   0.99310   0.39970   0.01267  Uiso   1.00
C1     C     0.36410   0.91472   0.43036   0.01267  Uiso   1.00
C2     C     0.74660   0.59053   0.72839   0.01267  Uiso   1.00
C3     C     0.20830   0.55422   0.22804   0.01267  Uiso   1.00
C4     C     0.79170   0.44578   0.77196   0.01267  Uiso   1.00
C5     C     0.35570   0.65884   0.17106   0.01267  Uiso   1.00
C6     C     0.29790   0.00501   0.28387   0.01267  Uiso   1.00
C7     C     0.30050   0.84805   0.16021   0.01267  Uiso   1.00
C8     C     0.31960   0.27132   0.65676   0.01267  Uiso   1.00
C9     C     0.28160   0.17405   0.93953   0.01267  Uiso   1.00
C10    C     0.40310   0.79366   0.04678   0.01267  Uiso   1.00
C11    C     0.66520   0.57709   0.19417   0.01267  Uiso   1.00
C12    C     0.27840   0.78560   0.94946   0.01267  Uiso   1.00
C13    C     0.20830   0.22804   0.55422   0.01267  Uiso   1.00
C14    C     0.83640   0.93074   0.72832   0.01267  Uiso   1.00
C15    C     0.16360   0.27168   0.06926   0.01267  Uiso   1.00
C16    C     0.37920   0.29785   0.10887   0.01267  Uiso   1.00
C17    C     0.60770   0.42966   0.69620   0.01267  Uiso   1.00
C18    C     0.60330   0.70247   0.94673   0.01267  Uiso   1.00
C19    C     0.60330   0.94673   0.70247   0.01267  Uiso   1.00
C20    C     0.81820   0.72794   0.98598   0.01267  Uiso   1.00
C21    C     0.71790   0.10146   0.86794   0.01267  Uiso   1.00
C22    C     0.77050   0.17798   0.49926   0.01267  Uiso   1.00
C23    C     0.64320   0.86698   0.30210   0.01267  Uiso   1.00
C24    C     0.62400   0.69600   0.48926   0.01267  Uiso   1.00
C25    C     0.24120   0.17627   0.28375   0.01267  Uiso   1.00
C26    C     0.69310   0.40695   0.73259   0.01267  Uiso   1.00
C27    C     0.36410   0.43036   0.91472   0.01267  Uiso   1.00
C28    C     0.30290   0.06907   0.79377   0.01267  Uiso   1.00
C29    C     0.71850   0.20669   0.34335   0.01267  Uiso   1.00
C30    C     0.39230   0.30380   0.57034   0.01267  Uiso   1.00
C31    C     0.31500   0.13295   0.79721   0.01267  Uiso   1.00
C32    C     0.69950   0.15195   0.83979   0.01267  Uiso   1.00
C33    C     0.71840   0.82595   0.06047   0.01267  Uiso   1.00
C34    C     0.30400   0.41653   0.69693   0.01267  Uiso   1.00
C35    C     0.63590   0.56964   0.08528   0.01267  Uiso   1.00
C36    C     0.75880   0.82373   0.71625   0.01267  Uiso   1.00
C37    C     0.82130   0.21164   0.02816   0.01267  Uiso   1.00
C38    C     0.66640   0.77783   0.31529   0.01267  Uiso   1.00
C39    C     0.73710   0.88284   0.71556   0.01267  Uiso   1.00
C40    C     0.26290   0.28444   0.11716   0.01267  Uiso   1.00
C41    C     0.31530   0.68407   0.32431   0.01267  Uiso   1.00
C42    C     0.69860   0.19977   0.40231   0.01267  Uiso   1.00
C43    C     0.58390   0.47318   0.20954   0.01267  Uiso   1.00
C44    C     0.26170   0.88559   0.77955   0.01267  Uiso   1.00
C45    C     0.19170   0.03099   0.79117   0.01267  Uiso   1.00
C46    C     0.69710   0.20623   0.93093   0.01267  Uiso   1.00
C47    C     0.29770   0.65603   0.37435   0.01267  Uiso   1.00
C48    C     0.33480   0.16026   0.74888   0.01267  Uiso   1.00
C49    C     0.28210   0.13206   0.89854   0.01267  Uiso   1.00
C50    C     0.40360   0.78759   0.58299   0.01267  Uiso   1.00
C51    C     0.29810   0.91481   0.22783   0.01267  Uiso   1.00
C52    C     0.63590   0.08528   0.56964   0.01267  Uiso   1.00
C53    C     0.68700   0.71755   0.05561   0.01267  Uiso   1.00
C54    C     0.74660   0.72839   0.59053   0.01267  Uiso   1.00
C55    C     0.73830   0.11441   0.22045   0.01267  Uiso   1.00
C56    C     0.33480   0.74888   0.16026   0.01267  Uiso   1.00
C57    C     0.62080   0.70215   0.89113   0.01267  Uiso   1.00
C58    C     0.72540   0.52694   0.73236   0.01267  Uiso   1.00
C59    C     0.70230   0.34397   0.62565   0.01267  Uiso   1.00
C60    C     0.33520   0.33530   0.92112   0.01267  Uiso   1.00
C61    C     0.30140   0.59769   0.80023   0.01267  Uiso   1.00
C62    C     0.73710   0.71556   0.88284   0.01267  Uiso   1.00
C63    C     0.22950   0.82202   0.50074   0.01267  Uiso   1.00
C64    C     0.80830   0.20883   0.96901   0.01267  Uiso   1.00
C65    C     0.78330   0.18131   0.44361   0.01267  Uiso   1.00
C66    C     0.60990   0.21007   0.01307   0.01267  Uiso   1.00
C67    C     0.24120   0.28375   0.17627   0.01267  Uiso   1.00
C68    C     0.37600   0.51074   0.30400   0.01267  Uiso   1.00
C69    C     0.40360   0.58299   0.78759   0.01267  Uiso   1.00
C70    C     0.67110   0.19308   0.51530   0.01267  Uiso   1.00
C71    C     0.28210   0.89854   0.13206   0.01267  Uiso   1.00
C72    C     0.32530   0.75194   0.39320   0.01267  Uiso   1.00
C73    C     0.64320   0.30210   0.86698   0.01267  Uiso   1.00
C74    C     0.17870   0.78836   0.97184   0.01267  Uiso   1.00
C75    C     0.26290   0.11716   0.28444   0.01267  Uiso   1.00
C76    C     0.71840   0.06047   0.82595   0.01267  Uiso   1.00
C77    C     0.33360   0.22217   0.68471   0.01267  Uiso   1.00
C78    C     0.22950   0.50074   0.82202   0.01267  Uiso   1.00
C79    C     0.31960   0.65676   0.27132   0.01267  Uiso   1.00
C80    C     0.19140   0.49479   0.22863   0.01267  Uiso   1.00
C81    C     0.29770   0.37435   0.65603   0.01267  Uiso   1.00
C82    C     0.62400   0.48926   0.69600   0.01267  Uiso   1.00
C83    C     0.59640   0.21241   0.41701   0.01267  Uiso   1.00
C84    C     0.78330   0.44361   0.18131   0.01267  Uiso   1.00
C85    C     0.68500   0.86705   0.20279   0.01267  Uiso   1.00
C86    C     0.72160   0.05054   0.21440   0.01267  Uiso   1.00
C87    C     0.25340   0.40947   0.27161   0.01267  Uiso   1.00
C88    C     0.67110   0.51530   0.19308   0.01267  Uiso   1.00
C89    C     0.60990   0.01307   0.21007   0.01267  Uiso   1.00
C90    C     0.39670   0.29753   0.05327   0.01267  Uiso   1.00
C91    C     0.30400   0.69693   0.41653   0.01267  Uiso   1.00
C92    C     0.28160   0.93953   0.17405   0.01267  Uiso   1.00
C93    C     0.39010   0.78993   0.98693   0.01267  Uiso   1.00
C94    C     0.21670   0.81869   0.55639   0.01267  Uiso   1.00
C95    C     0.69310   0.73259   0.40695   0.01267  Uiso   1.00
C96    C     0.33480   0.80583   0.42291   0.01267  Uiso   1.00
C97    C     0.39670   0.05327   0.29753   0.01267  Uiso   1.00
C98    C     0.35680   0.69790   0.13302   0.01267  Uiso   1.00
C99    C     0.21670   0.55639   0.81869   0.01267  Uiso   1.00
C100   C     0.80860   0.77137   0.50521   0.01267  Uiso   1.00
C101   C     0.59640   0.41701   0.21241   0.01267  Uiso   1.00
C102   C     0.39010   0.98693   0.78993   0.01267  Uiso   1.00
C103   C     0.18180   0.27206   0.01402   0.01267  Uiso   1.00
C104   C     0.33360   0.68471   0.22217   0.01267  Uiso   1.00
C105   C     0.69860   0.40231   0.19977   0.01267  Uiso   1.00
C106   C     0.30050   0.16021   0.84805   0.01267  Uiso   1.00
C107   C     0.28150   0.79331   0.65665   0.01267  Uiso   1.00
C108   C     0.73830   0.22045   0.11441   0.01267  Uiso   1.00
C109   C     0.66520   0.83974   0.25112   0.01267  Uiso   1.00
C110   C     0.18180   0.01402   0.27206   0.01267  Uiso   1.00
C111   C     0.59690   0.20634   0.95322   0.01267  Uiso   1.00
C112   C     0.16360   0.06926   0.27168   0.01267  Uiso   1.00
C113   C     0.30140   0.80023   0.59769   0.01267  Uiso   1.00
C114   C     0.64280   0.60841   0.04713   0.01267  Uiso   1.00
C115   C     0.29810   0.22783   0.91481   0.01267  Uiso   1.00
C116   C     0.68700   0.05561   0.71755   0.01267  Uiso   1.00
C117   C     0.72160   0.21440   0.05054   0.01267  Uiso   1.00
C118   C     0.30290   0.79377   0.06907   0.01267  Uiso   1.00
C119   C     0.80860   0.50521   0.77137   0.01267  Uiso   1.00
C120   C     0.77050   0.49926   0.17798   0.01267  Uiso   1.00
C121   C     0.35720   0.39159   0.95287   0.01267  Uiso   1.00
C122   C     0.65600   0.14163   0.60123   0.01267  Uiso   1.00
C123   C     0.66640   0.31529   0.77783   0.01267  Uiso   1.00
C124   C     0.27460   0.26764   0.47306   0.01267  Uiso   1.00
C125   C     0.35720   0.95287   0.39159   0.01267  Uiso   1.00
C126   C     0.75880   0.71625   0.82373   0.01267  Uiso   1.00
C127   C     0.41610   0.52682   0.79046   0.01267  Uiso   1.00
C128   C     0.66480   0.66470   0.07888   0.01267  Uiso   1.00
C129   C     0.58390   0.20954   0.47318   0.01267  Uiso   1.00
C130   C     0.32530   0.39320   0.75194   0.01267  Uiso   1.00
C131   C     0.68500   0.20279   0.86705   0.01267  Uiso   1.00
C132   C     0.66480   0.07888   0.66470   0.01267  Uiso   1.00
C133   C     0.71790   0.86794   0.10146   0.01267  Uiso   1.00
C134   C     0.68470   0.31593   0.67569   0.01267  Uiso   1.00
C135   C     0.31300   0.28245   0.94439   0.01267  Uiso   1.00
C136   C     0.68040   0.34324   0.72868   0.01267  Uiso   1.00
C137   C     0.33520   0.92112   0.33530   0.01267  Uiso   1.00
C138   C     0.41610   0.79046   0.52682   0.01267  Uiso   1.00
C139   C     0.66520   0.25112   0.83974   0.01267  Uiso   1.00
C140   C     0.00000   0.76480   0.23520   0.01267  Uiso   1.00
C141   C     0.79170   0.77196   0.44578   0.01267  Uiso   1.00
C142   C     0.30690   0.59305   0.26741   0.01267  Uiso   1.00
C143   C     0.70210   0.99499   0.71613   0.01267  Uiso   1.00
C144   C     0.27460   0.47306   0.26764   0.01267  Uiso   1.00
C145   C     0.65600   0.60123   0.14163   0.01267  Uiso   1.00
C146   C     0.64280   0.04713   0.60841   0.01267  Uiso   1.00
C147   C     0.69710   0.93093   0.20623   0.01267  Uiso   1.00
C148   C     0.70190   0.08519   0.77217   0.01267  Uiso   1.00
C149   C     0.39230   0.57034   0.30380   0.01267  Uiso   1.00
C150   C     0.83640   0.72832   0.93074   0.01267  Uiso   1.00
C151   C     0.67470   0.24806   0.60680   0.01267  Uiso   1.00
C152   C     0.19140   0.22863   0.49479   0.01267  Uiso   1.00
C153   C     0.31530   0.32431   0.68407   0.01267  Uiso   1.00
C154   C     0.37920   0.10887   0.29785   0.01267  Uiso   1.00
C155   C     0.34400   0.39877   0.85837   0.01267  Uiso   1.00
C156   C     0.29790   0.28387   0.00501   0.01267  Uiso   1.00
C157   C     0.72540   0.73236   0.52694   0.01267  Uiso   1.00
C158   C     0.25340   0.27161   0.40947   0.01267  Uiso   1.00
C159   C     0.64430   0.34116   0.82894   0.01267  Uiso   1.00
C160   C     0.35680   0.13302   0.69790   0.01267  Uiso   1.00
C161   C     0.17870   0.97184   0.78836   0.01267  Uiso   1.00
C162   C     0.32890   0.80692   0.48470   0.01267  Uiso   1.00
C163   C     0.82130   0.02816   0.21164   0.01267  Uiso   1.00
C164   C     0.68470   0.67569   0.31593   0.01267  Uiso   1.00
C165   C     0.81820   0.98598   0.72794   0.01267  Uiso   1.00
C166   C     0.40310   0.04678   0.79366   0.01267  Uiso   1.00
C167   C     0.66520   0.19417   0.57709   0.01267  Uiso   1.00
C168   C     0.27840   0.94946   0.78560   0.01267  Uiso   1.00
C169   C     0.70210   0.71613   0.99499   0.01267  Uiso   1.00
C170   C     0.30690   0.26741   0.59305   0.01267  Uiso   1.00
C171   C     0.71850   0.34335   0.20669   0.01267  Uiso   1.00
C172   C     0.80830   0.96901   0.20883   0.01267  Uiso   1.00
C173   C     0.70190   0.77217   0.08519   0.01267  Uiso   1.00
C174   C     0.67470   0.60680   0.24806   0.01267  Uiso   1.00
C175   C     0.35570   0.17106   0.65884   0.01267  Uiso   1.00
C176   C     0.59690   0.95322   0.20634   0.01267  Uiso   1.00
C177   C     0.69600   0.58347   0.30307   0.01267  Uiso   1.00
C178   C     0.31500   0.79721   0.13295   0.01267  Uiso   1.00
C179   C     0.69600   0.30307   0.58347   0.01267  Uiso   1.00
C180   C     0.69950   0.83979   0.15195   0.01267  Uiso   1.00
C181   C     0.33480   0.42291   0.80583   0.01267  Uiso   1.00
C182   C     0.19170   0.79117   0.03099   0.01267  Uiso   1.00
C183   C     0.26170   0.77955   0.88559   0.01267  Uiso   1.00
C184   C     0.64430   0.82894   0.34116   0.01267  Uiso   1.00
C185   C     0.68040   0.72868   0.34324   0.01267  Uiso   1.00
C186   C     0.37600   0.30400   0.51074   0.01267  Uiso   1.00
C187   C     0.62080   0.89113   0.70215   0.01267  Uiso   1.00
C188   C     0.31300   0.94439   0.28245   0.01267  Uiso   1.00
C189   C     0.34400   0.85837   0.39877   0.01267  Uiso   1.00
C190   C     0.32890   0.48470   0.80692   0.01267  Uiso   1.00
C191   C     0.70230   0.62565   0.34397   0.01267  Uiso   1.00
C192   C     0.60770   0.69620   0.42966   0.01267  Uiso   1.00
C193   C     0.00000   0.23520   0.76480   0.01267  Uiso   1.00
C194   C     0.28150   0.65665   0.79331   0.01267  Uiso   1.00
N1     N     0.32710   0.21536   0.74016   0.01267  Uiso   1.00
N2     N     0.67290   0.25984   0.78464   0.01267  Uiso   1.00
N3     N     0.69150   0.14120   0.78178   0.01267  Uiso   1.00
N4     N     0.98290   0.31085   0.31085   0.01267  Uiso   1.00
N5     N     0.32710   0.74016   0.21536   0.01267  Uiso   1.00
N6     N     0.33070   0.34122   0.86414   0.01267  Uiso   1.00
N7     N     0.66990   0.66324   0.25750   0.01267  Uiso   1.00
N8     N     0.33010   0.74250   0.33676   0.01267  Uiso   1.00
N9     N     0.66990   0.25750   0.66324   0.01267  Uiso   1.00
N10    N     0.30850   0.21822   0.85880   0.01267  Uiso   1.00
N11    N     0.30850   0.85880   0.21822   0.01267  Uiso   1.00
N12    N     0.67290   0.78464   0.25984   0.01267  Uiso   1.00
N13    N     0.01710   0.68915   0.68915   0.01267  Uiso   1.00
N14    N     0.66930   0.13586   0.65878   0.01267  Uiso   1.00
N15    N     0.33070   0.86414   0.34122   0.01267  Uiso   1.00
N16    N     0.66930   0.65878   0.13586   0.01267  Uiso   1.00
N17    N     0.69150   0.78178   0.14120   0.01267  Uiso   1.00
N18    N     0.33010   0.33676   0.74250   0.01267  Uiso   1.00
O1     O     0.35340   0.86491   0.78203   0.01267  Uiso   1.00
O2     O     0.81220   0.19570   0.33126   0.01267  Uiso   1.00
O3     O     0.89670   0.74255   0.23061   0.01267  Uiso   1.00
O4     O     0.86810   0.73470   0.81836   0.01267  Uiso   1.00
O5     O     0.15370   0.77139   0.85263   0.01267  Uiso   1.00
O6     O     0.81220   0.33126   0.19570   0.01267  Uiso   1.00
O7     O     0.67250   0.69005   0.60835   0.01267  Uiso   1.00
O8     O     0.66900   0.77977   0.69771   0.01267  Uiso   1.00
O9     O     0.91190   0.65855   0.65855   0.01267  Uiso   1.00
O10    O     0.64150   0.22515   0.30649   0.01267  Uiso   1.00
O11    O     0.64660   0.21797   0.13509   0.01267  Uiso   1.00
O12    O     0.10330   0.76939   0.25745   0.01267  Uiso   1.00
O13    O     0.84630   0.14737   0.22861   0.01267  Uiso   1.00
O14    O     0.67250   0.60835   0.69005   0.01267  Uiso   1.00
O15    O     0.15980   0.23880   0.37442   0.01267  Uiso   1.00
O16    O     0.13190   0.18164   0.26530   0.01267  Uiso   1.00
O17    O     0.01300   0.72932   0.72932   0.01267  Uiso   1.00
O18    O     0.64150   0.30649   0.22515   0.01267  Uiso   1.00
O19    O     0.84020   0.76120   0.62558   0.01267  Uiso   1.00
O20    O     0.89670   0.23061   0.74255   0.01267  Uiso   1.00
O21    O     0.64660   0.13509   0.21797   0.01267  Uiso   1.00
O22    O     0.18780   0.80430   0.66874   0.01267  Uiso   1.00
O23    O     0.12160   0.68495   0.68495   0.01267  Uiso   1.00
O24    O     0.35340   0.78203   0.86491   0.01267  Uiso   1.00
O25    O     0.10330   0.25745   0.76939   0.01267  Uiso   1.00
O26    O     0.08810   0.34145   0.34145   0.01267  Uiso   1.00
O27    O     0.15370   0.85263   0.77139   0.01267  Uiso   1.00
O28    O     0.32750   0.30995   0.39165   0.01267  Uiso   1.00
O29    O     0.33100   0.22023   0.30229   0.01267  Uiso   1.00
O30    O     0.32750   0.39165   0.30995   0.01267  Uiso   1.00
O31    O     0.33100   0.30229   0.22023   0.01267  Uiso   1.00
O32    O     0.87840   0.31505   0.31505   0.01267  Uiso   1.00
O33    O     0.18780   0.66874   0.80430   0.01267  Uiso   1.00
O34    O     0.66900   0.69771   0.77977   0.01267  Uiso   1.00
O35    O     0.35850   0.77485   0.69351   0.01267  Uiso   1.00
O36    O     0.86810   0.81836   0.73470   0.01267  Uiso   1.00
O37    O     0.13190   0.26530   0.18164   0.01267  Uiso   1.00
O38    O     0.84630   0.22861   0.14737   0.01267  Uiso   1.00
O39    O     0.84020   0.62558   0.76120   0.01267  Uiso   1.00
O40    O     0.98700   0.27068   0.27068   0.01267  Uiso   1.00
O41    O     0.15980   0.37442   0.23880   0.01267  Uiso   1.00
O42    O     0.35850   0.69351   0.77485   0.01267  Uiso   1.00
