data_image0
_cell_length_a       6.4059
_cell_length_b       16.3502
_cell_length_c       17.8196
_cell_angle_alpha    98.109
_cell_angle_beta     94.056
_cell_angle_gamma    95.651

_symmetry_space_group_name_H-M    "P 1"
_symmetry_int_tables_number       1

loop_
  _symmetry_equiv_pos_as_xyz
  'x, y, z'

loop_
  _atom_site_label
  _atom_site_occupancy
  _atom_site_fract_x
  _atom_site_fract_y
  _atom_site_fract_z
  _atom_site_thermal_displace_type
  _atom_site_B_iso_or_equiv
  _atom_site_type_symbol
  Na1      1.0000 0.57075  0.39640  0.51929  Biso   1.000  Na
  Na2      1.0000 0.87431  0.50879  0.41351  Biso   1.000  Na
  Na3      1.0000 0.84960  0.41205  0.72859  Biso   1.000  Na
  Na4      1.0000 0.27340  0.31100  0.64102  Biso   1.000  Na
  O1       1.0000 0.21930  0.51455  0.37420  Biso   1.000  O
  O2       1.0000 0.51230  0.46547  0.41404  Biso   1.000  O
  O3       1.0000 0.90610  0.39056  0.46913  Biso   1.000  O
  O4       1.0000 0.20110  0.35814  0.52434  Biso   1.000  O
  O5       1.0000 0.19560  0.45561  0.70761  Biso   1.000  O
  O6       1.0000 0.49100  0.40385  0.73876  Biso   1.000  O
  O7       1.0000 0.92020  0.27910  0.67965  Biso   1.000  O
  O8       1.0000 0.14850  0.18940  0.69730  Biso   1.000  O
  O9       1.0000 0.57820  0.27503  0.57860  Biso   1.000  O
  H1       1.0000 0.69210  0.27980  0.61210  Biso   1.000  H
  H2       1.0000 0.54560  0.22710  0.54660  Biso   1.000  H
  N1       1.0000 0.13330  0.95369  0.90141  Biso   1.000  N
  H3       1.0000 0.07570  0.97370  0.94270  Biso   1.000  H
  N2       1.0000 0.23460  0.09506  0.02316  Biso   1.000  N
  C1       1.0000 0.34370  0.45905  0.37258  Biso   1.000  C
  C2       1.0000 0.28690  0.38064  0.31548  Biso   1.000  C
  C3       1.0000 0.03600  0.34001  0.47952  Biso   1.000  C
  C4       1.0000 0.42490  0.32026  0.30693  Biso   1.000  C
  H4       1.0000 0.55340  0.32700  0.33830  Biso   1.000  H
  C5       1.0000 0.04690  0.29840  0.21680  Biso   1.000  C
  H5       1.0000 0.91590  0.29070  0.18680  Biso   1.000  H
  C6       1.0000 0.18700  0.23890  0.20640  Biso   1.000  C
  C7       1.0000 0.29820  0.99520  0.87190  Biso   1.000  C
  C8       1.0000 0.09680  0.36930  0.27090  Biso   1.000  C
  H6       1.0000 0.00050  0.40980  0.27730  Biso   1.000  H
  C9       1.0000 0.36400  0.45690  0.74890  Biso   1.000  C
  C10      1.0000 0.38950  0.11370  0.97700  Biso   1.000  C
  C11      1.0000 0.41810  0.06870  0.90630  Biso   1.000  C
  C12      1.0000 0.04580  0.88770  0.84840  Biso   1.000  C
  C13      1.0000 0.13380  0.16570  0.14510  Biso   1.000  C
  C14      1.0000 0.37560  0.25030  0.25280  Biso   1.000  C
  H7       1.0000 0.47130  0.20940  0.24720  Biso   1.000  H
  C15      1.0000 0.16500  0.88630  0.78400  Biso   1.000  C
  H8       1.0000 0.14150  0.84660  0.73900  Biso   1.000  H
  C16      1.0000 0.26430  0.15720  0.08470  Biso   1.000  C
  C17      1.0000 0.57240  0.10770  0.85850  Biso   1.000  C
  C18      1.0000 0.31910  0.95180  0.79770  Biso   1.000  C
  H9       1.0000 0.42130  0.96590  0.76420  Biso   1.000  H
  C19      1.0000 0.98030  0.21870  0.70930  Biso   1.000  C
  C20      1.0000 0.84010  0.17990  0.76230  Biso   1.000  C
  C21      1.0000 0.52110  0.18780  0.01090  Biso   1.000  C
  H10      1.0000 0.64030  0.21270  0.99040  Biso   1.000  H
  C22      1.0000 0.44440  0.21530  0.07680  Biso   1.000  C
  H11      1.0000 0.49800  0.26350  0.11160  Biso   1.000  H
  C23      1.0000 0.99470  0.25350  0.43580  Biso   1.000  C
  H12      1.0000 0.84420  0.23440  0.43330  Biso   1.000  H
  H13      1.0000 0.07530  0.21590  0.46150  Biso   1.000  H
  H14      1.0000 0.03790  0.25370  0.38410  Biso   1.000  H
  C24      1.0000 0.41140  0.52670  0.81540  Biso   1.000  C
  H15      1.0000 0.32290  0.51550  0.85620  Biso   1.000  H
  H16      1.0000 0.38200  0.57930  0.79870  Biso   1.000  H
  H17      1.0000 0.56010  0.53040  0.83420  Biso   1.000  H
  C25      1.0000 0.76370  0.07780  0.84460  Biso   1.000  C
  H18      1.0000 0.80420  0.03230  0.86780  Biso   1.000  H
  C26      1.0000 0.89590  0.11370  0.79710  Biso   1.000  C
  H19      1.0000 0.02640  0.09260  0.78830  Biso   1.000  H
  C27      1.0000 0.65160  0.21130  0.77790  Biso   1.000  C
  H20      1.0000 0.61300  0.25820  0.75640  Biso   1.000  H
  C28      1.0000 0.52020  0.17450  0.82470  Biso   1.000  C
  H21      1.0000 0.39010  0.19590  0.83380  Biso   1.000  H
  Na5      1.0000 0.42925  0.60360  0.48071  Biso   1.000  Na
  Na6      1.0000 0.12569  0.49121  0.58649  Biso   1.000  Na
  Na7      1.0000 0.15040  0.58795  0.27141  Biso   1.000  Na
  Na8      1.0000 0.72660  0.68900  0.35898  Biso   1.000  Na
  O10      1.0000 0.78070  0.48545  0.62580  Biso   1.000  O
  O11      1.0000 0.48770  0.53453  0.58596  Biso   1.000  O
  O12      1.0000 0.09390  0.60944  0.53087  Biso   1.000  O
  O13      1.0000 0.79890  0.64186  0.47566  Biso   1.000  O
  O14      1.0000 0.80440  0.54439  0.29239  Biso   1.000  O
  O15      1.0000 0.50900  0.59615  0.26124  Biso   1.000  O
  O16      1.0000 0.07980  0.72090  0.32035  Biso   1.000  O
  O17      1.0000 0.85150  0.81060  0.30270  Biso   1.000  O
  O18      1.0000 0.42180  0.72497  0.42140  Biso   1.000  O
  H22      1.0000 0.30790  0.72020  0.38790  Biso   1.000  H
  H23      1.0000 0.45440  0.77290  0.45340  Biso   1.000  H
  N3       1.0000 0.86670  0.04631  0.09859  Biso   1.000  N
  H24      1.0000 0.92430  0.02630  0.05730  Biso   1.000  H
  N4       1.0000 0.76540  0.90494  0.97684  Biso   1.000  N
  C29      1.0000 0.65630  0.54095  0.62742  Biso   1.000  C
  C30      1.0000 0.71310  0.61936  0.68452  Biso   1.000  C
  C31      1.0000 0.96400  0.65999  0.52048  Biso   1.000  C
  C32      1.0000 0.57510  0.67974  0.69307  Biso   1.000  C
  H25      1.0000 0.44660  0.67300  0.66170  Biso   1.000  H
  C33      1.0000 0.95310  0.70160  0.78320  Biso   1.000  C
  H26      1.0000 0.08410  0.70930  0.81320  Biso   1.000  H
  C34      1.0000 0.81300  0.76110  0.79360  Biso   1.000  C
  C35      1.0000 0.70180  0.00480  0.12810  Biso   1.000  C
  C36      1.0000 0.90320  0.63070  0.72910  Biso   1.000  C
  H27      1.0000 0.99950  0.59020  0.72270  Biso   1.000  H
  C37      1.0000 0.63600  0.54310  0.25110  Biso   1.000  C
  C38      1.0000 0.61050  0.88630  0.02300  Biso   1.000  C
  C39      1.0000 0.58190  0.93130  0.09370  Biso   1.000  C
  C40      1.0000 0.95420  0.11230  0.15160  Biso   1.000  C
  C41      1.0000 0.86620  0.83430  0.85490  Biso   1.000  C
  C42      1.0000 0.62440  0.74970  0.74720  Biso   1.000  C
  H28      1.0000 0.52870  0.79060  0.75280  Biso   1.000  H
  C43      1.0000 0.83500  0.11370  0.21600  Biso   1.000  C
  H29      1.0000 0.85850  0.15340  0.26100  Biso   1.000  H
  C44      1.0000 0.73570  0.84280  0.91530  Biso   1.000  C
  C45      1.0000 0.42760  0.89230  0.14150  Biso   1.000  C
  C46      1.0000 0.68090  0.04820  0.20230  Biso   1.000  C
  H30      1.0000 0.57870  0.03410  0.23580  Biso   1.000  H
  C47      1.0000 0.01970  0.78130  0.29070  Biso   1.000  C
  C48      1.0000 0.15990  0.82010  0.23770  Biso   1.000  C
  C49      1.0000 0.47890  0.81220  0.98910  Biso   1.000  C
  H31      1.0000 0.35970  0.78730  0.00960  Biso   1.000  H
  C50      1.0000 0.55560  0.78470  0.92320  Biso   1.000  C
  H32      1.0000 0.50200  0.73650  0.88840  Biso   1.000  H
  C51      1.0000 0.00530  0.74650  0.56420  Biso   1.000  C
  H33      1.0000 0.15580  0.76560  0.56670  Biso   1.000  H
  H34      1.0000 0.92470  0.78410  0.53850  Biso   1.000  H
  H35      1.0000 0.96210  0.74630  0.61590  Biso   1.000  H
  C52      1.0000 0.58860  0.47330  0.18460  Biso   1.000  C
  H36      1.0000 0.67710  0.48450  0.14380  Biso   1.000  H
  H37      1.0000 0.61800  0.42070  0.20130  Biso   1.000  H
  H38      1.0000 0.43990  0.46960  0.16580  Biso   1.000  H
  C53      1.0000 0.23630  0.92220  0.15540  Biso   1.000  C
  H39      1.0000 0.19580  0.96770  0.13220  Biso   1.000  H
  C54      1.0000 0.10410  0.88630  0.20290  Biso   1.000  C
  H40      1.0000 0.97360  0.90740  0.21170  Biso   1.000  H
  C55      1.0000 0.34840  0.78870  0.22210  Biso   1.000  C
  H41      1.0000 0.38700  0.74180  0.24360  Biso   1.000  H
  C56      1.0000 0.47980  0.82550  0.17530  Biso   1.000  C
  H42      1.0000 0.60990  0.80410  0.16620  Biso   1.000  H
