data_image0
_cell_length_a       16.719
_cell_length_b       16.719
_cell_length_c       24.598
_cell_angle_alpha    90
_cell_angle_beta     90
_cell_angle_gamma    120

_symmetry_space_group_name_H-M    "P 1"
_symmetry_int_tables_number       1

loop_
  _symmetry_equiv_pos_as_xyz
  'x, y, z'

loop_
  _atom_site_label
  _atom_site_occupancy
  _atom_site_fract_x
  _atom_site_fract_y
  _atom_site_fract_z
  _atom_site_thermal_displace_type
  _atom_site_B_iso_or_equiv
  _atom_site_type_symbol
  Ni1      1.0000 0.40810  0.68558  0.75050  Biso   1.000  Ni
  Ni2      1.0000 0.49459  0.25632  0.46877  Biso   1.000  Ni
  C1       1.0000 0.04620  0.82920  0.55990  Biso   1.000  C
  H1       1.0000 0.10070  0.83310  0.54450  Biso   1.000  H
  H2       1.0000 0.05170  0.83310  0.59880  Biso   1.000  H
  H3       1.0000 0.03890  0.87910  0.54650  Biso   1.000  H
  C2       1.0000 0.96210  0.73740  0.54400  Biso   1.000  C
  H4       1.0000 0.97060  0.68840  0.55980  Biso   1.000  H
  C3       1.0000 0.87260  0.72590  0.56710  Biso   1.000  C
  C4       1.0000 0.78770  0.64160  0.55830  Biso   1.000  C
  C5       1.0000 0.70520  0.62610  0.57930  Biso   1.000  C
  H5       1.0000 0.65140  0.56990  0.57360  Biso   1.000  H
  C6       1.0000 0.70310  0.69610  0.60950  Biso   1.000  C
  C7       1.0000 0.78320  0.78170  0.61690  Biso   1.000  C
  C8       1.0000 0.86510  0.79170  0.59600  Biso   1.000  C
  H6       1.0000 0.91900  0.84750  0.60220  Biso   1.000  H
  C9       1.0000 0.73060  0.53040  0.48740  Biso   1.000  C
  H7       1.0000 0.76300  0.53480  0.45380  Biso   1.000  H
  H8       1.0000 0.69600  0.56220  0.48200  Biso   1.000  H
  C10      1.0000 0.66400  0.42990  0.49970  Biso   1.000  C
  C11      1.0000 0.54450  0.59660  0.63260  Biso   1.000  C
  H9       1.0000 0.56110  0.55180  0.64520  Biso   1.000  H
  H10      1.0000 0.52160  0.58050  0.59570  Biso   1.000  H
  C12      1.0000 0.46870  0.59270  0.66890  Biso   1.000  C
  C13      1.0000 0.77870  0.86020  0.64550  Biso   1.000  C
  H11      1.0000 0.73410  0.83210  0.67520  Biso   1.000  H
  C14      1.0000 0.86900  0.93060  0.67140  Biso   1.000  C
  H12      1.0000 0.86130  0.97780  0.68860  Biso   1.000  H
  H13      1.0000 0.91580  0.95790  0.64390  Biso   1.000  H
  H14      1.0000 0.88710  0.90070  0.69800  Biso   1.000  H
  C15      1.0000 0.74160  0.90740  0.60830  Biso   1.000  C
  C16      1.0000 0.69810  0.95030  0.62970  Biso   1.000  C
  C17      1.0000 0.66740  0.99830  0.59770  Biso   1.000  C
  H15      1.0000 0.63880  0.02770  0.61380  Biso   1.000  H
  C18      1.0000 0.67940  0.00240  0.54190  Biso   1.000  C
  C19      1.0000 0.72400  0.95690  0.51790  Biso   1.000  C
  C20      1.0000 0.75300  0.91180  0.55190  Biso   1.000  C
  H16      1.0000 0.78220  0.88230  0.53660  Biso   1.000  H
  C21      1.0000 0.59840  0.88200  0.70230  Biso   1.000  C
  H17      1.0000 0.58370  0.82440  0.68460  Biso   1.000  H
  H18      1.0000 0.55260  0.89830  0.69150  Biso   1.000  H
  C22      1.0000 0.59650  0.87010  0.76440  Biso   1.000  C
  C23      1.0000 0.60900  0.09340  0.53040  Biso   1.000  C
  H19      1.0000 0.64920  0.13450  0.55860  Biso   1.000  H
  H20      1.0000 0.55110  0.04920  0.54740  Biso   1.000  H
  C24      1.0000 0.59130  0.14830  0.48900  Biso   1.000  C
  O1       1.0000 0.79600  0.57500  0.52940  Biso   1.000  O
  O2       1.0000 0.67390  0.39960  0.54410  Biso   1.000  O
  O3       1.0000 0.60410  0.38710  0.46300  Biso   1.000  O
  O4       1.0000 0.62440  0.68640  0.63300  Biso   1.000  O
  O5       1.0000 0.38940  0.52590  0.66210  Biso   1.000  O
  O6       1.0000 0.49070  0.65440  0.70510  Biso   1.000  O
  O7       1.0000 0.68600  0.95130  0.68646  Biso   1.000  O
  O8       1.0000 0.65620  0.92860  0.79190  Biso   1.000  O
  O9       1.0000 0.52430  0.80070  0.78392  Biso   1.000  O
  O10      1.0000 0.65040  0.04580  0.50690  Biso   1.000  O
  O11      1.0000 0.59590  0.13540  0.44030  Biso   1.000  O
  O12      1.0000 0.56980  0.20460  0.50804  Biso   1.000  O
  Ni3      1.0000 0.31442  0.72252  0.08383  Biso   1.000  Ni
  Ni4      1.0000 0.74368  0.23827  0.80210  Biso   1.000  Ni
  C25      1.0000 0.17080  0.21700  0.89323  Biso   1.000  C
  H21      1.0000 0.16690  0.26760  0.87783  Biso   1.000  H
  H22      1.0000 0.16690  0.21860  0.93213  Biso   1.000  H
  H23      1.0000 0.12090  0.15980  0.87983  Biso   1.000  H
  C26      1.0000 0.26260  0.22470  0.87733  Biso   1.000  C
  H24      1.0000 0.31160  0.28220  0.89313  Biso   1.000  H
  C27      1.0000 0.27410  0.14670  0.90043  Biso   1.000  C
  C28      1.0000 0.35840  0.14610  0.89163  Biso   1.000  C
  C29      1.0000 0.37390  0.07910  0.91263  Biso   1.000  C
  H25      1.0000 0.43010  0.08150  0.90693  Biso   1.000  H
  C30      1.0000 0.30390  0.00700  0.94283  Biso   1.000  C
  C31      1.0000 0.21830  0.00150  0.95023  Biso   1.000  C
  C32      1.0000 0.20830  0.07340  0.92933  Biso   1.000  C
  H26      1.0000 0.15250  0.07150  0.93553  Biso   1.000  H
  C33      1.0000 0.46960  0.20020  0.82073  Biso   1.000  C
  H27      1.0000 0.46520  0.22820  0.78713  Biso   1.000  H
  H28      1.0000 0.43780  0.13380  0.81533  Biso   1.000  H
  C34      1.0000 0.57010  0.23410  0.83303  Biso   1.000  C
  C35      1.0000 0.40340  0.94790  0.96593  Biso   1.000  C
  H29      1.0000 0.44820  0.00930  0.97853  Biso   1.000  H
  H30      1.0000 0.41950  0.94110  0.92903  Biso   1.000  H
  C36      1.0000 0.40730  0.87600  0.00223  Biso   1.000  C
  C37      1.0000 0.13980  0.91850  0.97883  Biso   1.000  C
  H31      1.0000 0.16790  0.90200  0.00853  Biso   1.000  H
  C38      1.0000 0.06940  0.93840  0.00473  Biso   1.000  C
  H32      1.0000 0.02220  0.88350  0.02193  Biso   1.000  H
  H33      1.0000 0.04210  0.95790  0.97723  Biso   1.000  H
  H34      1.0000 0.09930  0.98640  0.03133  Biso   1.000  H
  C39      1.0000 0.09260  0.83420  0.94163  Biso   1.000  C
  C40      1.0000 0.04970  0.74780  0.96303  Biso   1.000  C
  C41      1.0000 0.00170  0.66910  0.93103  Biso   1.000  C
  H35      1.0000 0.97230  0.61110  0.94713  Biso   1.000  H
  C42      1.0000 0.99760  0.67700  0.87523  Biso   1.000  C
  C43      1.0000 0.04310  0.76710  0.85123  Biso   1.000  C
  C44      1.0000 0.08820  0.84120  0.88523  Biso   1.000  C
  H36      1.0000 0.11770  0.89990  0.86993  Biso   1.000  H
  C45      1.0000 0.11800  0.71640  0.03563  Biso   1.000  C
  H37      1.0000 0.17560  0.75930  0.01793  Biso   1.000  H
  H38      1.0000 0.10170  0.65430  0.02483  Biso   1.000  H
  C46      1.0000 0.12990  0.72640  0.09773  Biso   1.000  C
  C47      1.0000 0.90660  0.51560  0.86373  Biso   1.000  C
  H39      1.0000 0.86550  0.51470  0.89193  Biso   1.000  H
  H40      1.0000 0.95080  0.50190  0.88073  Biso   1.000  H
  C48      1.0000 0.85170  0.44300  0.82233  Biso   1.000  C
  O13      1.0000 0.42500  0.22100  0.86273  Biso   1.000  O
  O14      1.0000 0.60040  0.27430  0.87743  Biso   1.000  O
  O15      1.0000 0.61290  0.21700  0.79633  Biso   1.000  O
  O16      1.0000 0.31360  0.93800  0.96633  Biso   1.000  O
  O17      1.0000 0.47410  0.86350  0.99543  Biso   1.000  O
  O18      1.0000 0.34560  0.83630  0.03843  Biso   1.000  O
  O19      1.0000 0.04870  0.73470  0.01979  Biso   1.000  O
  O20      1.0000 0.07140  0.72760  0.12523  Biso   1.000  O
  O21      1.0000 0.19930  0.72360  0.11725  Biso   1.000  O
  O22      1.0000 0.95420  0.60460  0.84023  Biso   1.000  O
  O23      1.0000 0.86460  0.46050  0.77363  Biso   1.000  O
  O24      1.0000 0.79540  0.36520  0.84137  Biso   1.000  O
  Ni5      1.0000 0.27748  0.59190  0.41717  Biso   1.000  Ni
  Ni6      1.0000 0.76173  0.50541  0.13544  Biso   1.000  Ni
  C49      1.0000 0.78300  0.95380  0.22657  Biso   1.000  C
  H41      1.0000 0.73240  0.89930  0.21117  Biso   1.000  H
  H42      1.0000 0.78140  0.94830  0.26547  Biso   1.000  H
  H43      1.0000 0.84020  0.96110  0.21317  Biso   1.000  H
  C50      1.0000 0.77530  0.03790  0.21067  Biso   1.000  C
  H44      1.0000 0.71780  0.02940  0.22647  Biso   1.000  H
  C51      1.0000 0.85330  0.12740  0.23377  Biso   1.000  C
  C52      1.0000 0.85390  0.21230  0.22497  Biso   1.000  C
  C53      1.0000 0.92090  0.29480  0.24597  Biso   1.000  C
  H45      1.0000 0.91850  0.34860  0.24027  Biso   1.000  H
  C54      1.0000 0.99300  0.29690  0.27617  Biso   1.000  C
  C55      1.0000 0.99850  0.21680  0.28357  Biso   1.000  C
  C56      1.0000 0.92660  0.13490  0.26267  Biso   1.000  C
  H46      1.0000 0.92850  0.08100  0.26887  Biso   1.000  H
  C57      1.0000 0.79980  0.26940  0.15407  Biso   1.000  C
  H47      1.0000 0.77180  0.23700  0.12047  Biso   1.000  H
  H48      1.0000 0.86620  0.30400  0.14867  Biso   1.000  H
  C58      1.0000 0.76590  0.33600  0.16637  Biso   1.000  C
  C59      1.0000 0.05210  0.45550  0.29927  Biso   1.000  C
  H49      1.0000 0.99070  0.43890  0.31187  Biso   1.000  H
  H50      1.0000 0.05890  0.47840  0.26237  Biso   1.000  H
  C60      1.0000 0.12400  0.53130  0.33557  Biso   1.000  C
  C61      1.0000 0.08150  0.22130  0.31217  Biso   1.000  C
  H51      1.0000 0.09800  0.26590  0.34187  Biso   1.000  H
  C62      1.0000 0.06160  0.13100  0.33807  Biso   1.000  C
  H52      1.0000 0.11650  0.13870  0.35527  Biso   1.000  H
  H53      1.0000 0.04210  0.08420  0.31057  Biso   1.000  H
  H54      1.0000 0.01360  0.11290  0.36467  Biso   1.000  H
  C63      1.0000 0.16580  0.25840  0.27497  Biso   1.000  C
  C64      1.0000 0.25220  0.30190  0.29637  Biso   1.000  C
  C65      1.0000 0.33090  0.33260  0.26437  Biso   1.000  C
  H55      1.0000 0.38890  0.36120  0.28047  Biso   1.000  H
  C66      1.0000 0.32300  0.32060  0.20857  Biso   1.000  C
  C67      1.0000 0.23290  0.27600  0.18457  Biso   1.000  C
  C68      1.0000 0.15880  0.24700  0.21857  Biso   1.000  C
  H56      1.0000 0.10010  0.21780  0.20327  Biso   1.000  H
  C69      1.0000 0.28360  0.40160  0.36897  Biso   1.000  C
  H57      1.0000 0.24070  0.41630  0.35127  Biso   1.000  H
  H58      1.0000 0.34570  0.44740  0.35817  Biso   1.000  H
  C70      1.0000 0.27360  0.40350  0.43107  Biso   1.000  C
  C71      1.0000 0.48440  0.39100  0.19707  Biso   1.000  C
  H59      1.0000 0.48530  0.35080  0.22527  Biso   1.000  H
  H60      1.0000 0.49810  0.44890  0.21407  Biso   1.000  H
  C72      1.0000 0.55700  0.40870  0.15567  Biso   1.000  C
  O25      1.0000 0.77900  0.20400  0.19607  Biso   1.000  O
  O26      1.0000 0.72570  0.32610  0.21077  Biso   1.000  O
  O27      1.0000 0.78300  0.39590  0.12967  Biso   1.000  O
  O28      1.0000 0.06200  0.37560  0.29967  Biso   1.000  O
  O29      1.0000 0.13650  0.61060  0.32877  Biso   1.000  O
  O30      1.0000 0.16370  0.50930  0.37177  Biso   1.000  O
  O31      1.0000 0.26530  0.31400  0.35313  Biso   1.000  O
  O32      1.0000 0.27240  0.34380  0.45857  Biso   1.000  O
  O33      1.0000 0.27640  0.47570  0.45059  Biso   1.000  O
  O34      1.0000 0.39540  0.34960  0.17357  Biso   1.000  O
  O35      1.0000 0.53950  0.40410  0.10697  Biso   1.000  O
  O36      1.0000 0.63480  0.43020  0.17471  Biso   1.000  O
  Ni7      1.0000 0.68558  0.40810  0.24950  Biso   1.000  Ni
  Ni8      1.0000 0.25632  0.49459  0.53123  Biso   1.000  Ni
  C73      1.0000 0.82920  0.04620  0.44010  Biso   1.000  C
  H61      1.0000 0.83310  0.10070  0.45550  Biso   1.000  H
  H62      1.0000 0.83310  0.05170  0.40120  Biso   1.000  H
  H63      1.0000 0.87910  0.03890  0.45350  Biso   1.000  H
  C74      1.0000 0.73740  0.96210  0.45600  Biso   1.000  C
  H64      1.0000 0.68840  0.97060  0.44020  Biso   1.000  H
  C75      1.0000 0.72590  0.87260  0.43290  Biso   1.000  C
  C76      1.0000 0.64160  0.78770  0.44170  Biso   1.000  C
  C77      1.0000 0.62610  0.70520  0.42070  Biso   1.000  C
  H65      1.0000 0.56990  0.65140  0.42640  Biso   1.000  H
  C78      1.0000 0.69610  0.70310  0.39050  Biso   1.000  C
  C79      1.0000 0.78170  0.78320  0.38310  Biso   1.000  C
  C80      1.0000 0.79170  0.86510  0.40400  Biso   1.000  C
  H66      1.0000 0.84750  0.91900  0.39780  Biso   1.000  H
  C81      1.0000 0.53040  0.73060  0.51260  Biso   1.000  C
  H67      1.0000 0.53480  0.76300  0.54620  Biso   1.000  H
  H68      1.0000 0.56220  0.69600  0.51800  Biso   1.000  H
  C82      1.0000 0.42990  0.66400  0.50030  Biso   1.000  C
  C83      1.0000 0.59660  0.54450  0.36740  Biso   1.000  C
  H69      1.0000 0.55180  0.56110  0.35480  Biso   1.000  H
  H70      1.0000 0.58050  0.52160  0.40430  Biso   1.000  H
  C84      1.0000 0.59270  0.46870  0.33110  Biso   1.000  C
  C85      1.0000 0.86020  0.77870  0.35450  Biso   1.000  C
  H71      1.0000 0.83210  0.73410  0.32480  Biso   1.000  H
  C86      1.0000 0.93060  0.86900  0.32860  Biso   1.000  C
  H72      1.0000 0.97780  0.86130  0.31140  Biso   1.000  H
  H73      1.0000 0.95790  0.91580  0.35610  Biso   1.000  H
  H74      1.0000 0.90070  0.88710  0.30200  Biso   1.000  H
  C87      1.0000 0.90740  0.74160  0.39170  Biso   1.000  C
  C88      1.0000 0.95030  0.69810  0.37030  Biso   1.000  C
  C89      1.0000 0.99830  0.66740  0.40230  Biso   1.000  C
  H75      1.0000 0.02770  0.63880  0.38620  Biso   1.000  H
  C90      1.0000 0.00240  0.67940  0.45810  Biso   1.000  C
  C91      1.0000 0.95690  0.72400  0.48210  Biso   1.000  C
  C92      1.0000 0.91180  0.75300  0.44810  Biso   1.000  C
  H76      1.0000 0.88230  0.78220  0.46340  Biso   1.000  H
  C93      1.0000 0.88200  0.59840  0.29770  Biso   1.000  C
  H77      1.0000 0.82440  0.58370  0.31540  Biso   1.000  H
  H78      1.0000 0.89830  0.55260  0.30850  Biso   1.000  H
  C94      1.0000 0.87010  0.59650  0.23560  Biso   1.000  C
  C95      1.0000 0.09340  0.60900  0.46960  Biso   1.000  C
  H79      1.0000 0.13450  0.64920  0.44140  Biso   1.000  H
  H80      1.0000 0.04920  0.55110  0.45260  Biso   1.000  H
  C96      1.0000 0.14830  0.59130  0.51100  Biso   1.000  C
  O37      1.0000 0.57500  0.79600  0.47060  Biso   1.000  O
  O38      1.0000 0.39960  0.67390  0.45590  Biso   1.000  O
  O39      1.0000 0.38710  0.60410  0.53700  Biso   1.000  O
  O40      1.0000 0.68640  0.62440  0.36700  Biso   1.000  O
  O41      1.0000 0.52590  0.38940  0.33790  Biso   1.000  O
  O42      1.0000 0.65440  0.49070  0.29490  Biso   1.000  O
  O43      1.0000 0.95130  0.68600  0.31354  Biso   1.000  O
  O44      1.0000 0.92860  0.65620  0.20810  Biso   1.000  O
  O45      1.0000 0.80070  0.52430  0.21608  Biso   1.000  O
  O46      1.0000 0.04580  0.65040  0.49310  Biso   1.000  O
  O47      1.0000 0.13540  0.59590  0.55970  Biso   1.000  O
  O48      1.0000 0.20460  0.56980  0.49196  Biso   1.000  O
  Ni9      1.0000 0.72252  0.31442  0.91617  Biso   1.000  Ni
  Ni10     1.0000 0.23827  0.74368  0.19790  Biso   1.000  Ni
  C97      1.0000 0.21700  0.17080  0.10677  Biso   1.000  C
  H81      1.0000 0.26760  0.16690  0.12217  Biso   1.000  H
  H82      1.0000 0.21860  0.16690  0.06787  Biso   1.000  H
  H83      1.0000 0.15980  0.12090  0.12017  Biso   1.000  H
  C98      1.0000 0.22470  0.26260  0.12267  Biso   1.000  C
  H84      1.0000 0.28220  0.31160  0.10687  Biso   1.000  H
  C99      1.0000 0.14670  0.27410  0.09957  Biso   1.000  C
  C100     1.0000 0.14610  0.35840  0.10837  Biso   1.000  C
  C101     1.0000 0.07910  0.37390  0.08737  Biso   1.000  C
  H85      1.0000 0.08150  0.43010  0.09307  Biso   1.000  H
  C102     1.0000 0.00700  0.30390  0.05717  Biso   1.000  C
  C103     1.0000 0.00150  0.21830  0.04977  Biso   1.000  C
  C104     1.0000 0.07340  0.20830  0.07067  Biso   1.000  C
  H86      1.0000 0.07150  0.15250  0.06447  Biso   1.000  H
  C105     1.0000 0.20020  0.46960  0.17927  Biso   1.000  C
  H87      1.0000 0.22820  0.46520  0.21287  Biso   1.000  H
  H88      1.0000 0.13380  0.43780  0.18467  Biso   1.000  H
  C106     1.0000 0.23410  0.57010  0.16697  Biso   1.000  C
  C107     1.0000 0.94790  0.40340  0.03407  Biso   1.000  C
  H89      1.0000 0.00930  0.44820  0.02147  Biso   1.000  H
  H90      1.0000 0.94110  0.41950  0.07097  Biso   1.000  H
  C108     1.0000 0.87600  0.40730  0.99777  Biso   1.000  C
  C109     1.0000 0.91850  0.13980  0.02117  Biso   1.000  C
  H91      1.0000 0.90200  0.16790  0.99147  Biso   1.000  H
  C110     1.0000 0.93840  0.06940  0.99527  Biso   1.000  C
  H92      1.0000 0.88350  0.02220  0.97807  Biso   1.000  H
  H93      1.0000 0.95790  0.04210  0.02277  Biso   1.000  H
  H94      1.0000 0.98640  0.09930  0.96867  Biso   1.000  H
  C111     1.0000 0.83420  0.09260  0.05837  Biso   1.000  C
  C112     1.0000 0.74780  0.04970  0.03697  Biso   1.000  C
  C113     1.0000 0.66910  0.00170  0.06897  Biso   1.000  C
  H95      1.0000 0.61110  0.97230  0.05287  Biso   1.000  H
  C114     1.0000 0.67700  0.99760  0.12477  Biso   1.000  C
  C115     1.0000 0.76710  0.04310  0.14877  Biso   1.000  C
  C116     1.0000 0.84120  0.08820  0.11477  Biso   1.000  C
  H96      1.0000 0.89990  0.11770  0.13007  Biso   1.000  H
  C117     1.0000 0.71640  0.11800  0.96437  Biso   1.000  C
  H97      1.0000 0.75930  0.17560  0.98207  Biso   1.000  H
  H98      1.0000 0.65430  0.10170  0.97517  Biso   1.000  H
  C118     1.0000 0.72640  0.12990  0.90227  Biso   1.000  C
  C119     1.0000 0.51560  0.90660  0.13627  Biso   1.000  C
  H99      1.0000 0.51470  0.86550  0.10807  Biso   1.000  H
  H100     1.0000 0.50190  0.95080  0.11927  Biso   1.000  H
  C120     1.0000 0.44300  0.85170  0.17767  Biso   1.000  C
  O49      1.0000 0.22100  0.42500  0.13727  Biso   1.000  O
  O50      1.0000 0.27430  0.60040  0.12257  Biso   1.000  O
  O51      1.0000 0.21700  0.61290  0.20367  Biso   1.000  O
  O52      1.0000 0.93800  0.31360  0.03367  Biso   1.000  O
  O53      1.0000 0.86350  0.47410  0.00457  Biso   1.000  O
  O54      1.0000 0.83630  0.34560  0.96157  Biso   1.000  O
  O55      1.0000 0.73470  0.04870  0.98021  Biso   1.000  O
  O56      1.0000 0.72760  0.07140  0.87477  Biso   1.000  O
  O57      1.0000 0.72360  0.19930  0.88275  Biso   1.000  O
  O58      1.0000 0.60460  0.95420  0.15977  Biso   1.000  O
  O59      1.0000 0.46050  0.86460  0.22637  Biso   1.000  O
  O60      1.0000 0.36520  0.79540  0.15863  Biso   1.000  O
  Ni11     1.0000 0.59190  0.27748  0.58283  Biso   1.000  Ni
  Ni12     1.0000 0.50541  0.76173  0.86456  Biso   1.000  Ni
  C121     1.0000 0.95380  0.78300  0.77343  Biso   1.000  C
  H101     1.0000 0.89930  0.73240  0.78883  Biso   1.000  H
  H102     1.0000 0.94830  0.78140  0.73453  Biso   1.000  H
  H103     1.0000 0.96110  0.84020  0.78683  Biso   1.000  H
  C122     1.0000 0.03790  0.77530  0.78933  Biso   1.000  C
  H104     1.0000 0.02940  0.71780  0.77353  Biso   1.000  H
  C123     1.0000 0.12740  0.85330  0.76623  Biso   1.000  C
  C124     1.0000 0.21230  0.85390  0.77503  Biso   1.000  C
  C125     1.0000 0.29480  0.92090  0.75403  Biso   1.000  C
  H105     1.0000 0.34860  0.91850  0.75973  Biso   1.000  H
  C126     1.0000 0.29690  0.99300  0.72383  Biso   1.000  C
  C127     1.0000 0.21680  0.99850  0.71643  Biso   1.000  C
  C128     1.0000 0.13490  0.92660  0.73733  Biso   1.000  C
  H106     1.0000 0.08100  0.92850  0.73113  Biso   1.000  H
  C129     1.0000 0.26940  0.79980  0.84593  Biso   1.000  C
  H107     1.0000 0.23700  0.77180  0.87953  Biso   1.000  H
  H108     1.0000 0.30400  0.86620  0.85133  Biso   1.000  H
  C130     1.0000 0.33600  0.76590  0.83363  Biso   1.000  C
  C131     1.0000 0.45550  0.05210  0.70073  Biso   1.000  C
  H109     1.0000 0.43890  0.99070  0.68813  Biso   1.000  H
  H110     1.0000 0.47840  0.05890  0.73763  Biso   1.000  H
  C132     1.0000 0.53130  0.12400  0.66443  Biso   1.000  C
  C133     1.0000 0.22130  0.08150  0.68783  Biso   1.000  C
  H111     1.0000 0.26590  0.09800  0.65813  Biso   1.000  H
  C134     1.0000 0.13100  0.06160  0.66193  Biso   1.000  C
  H112     1.0000 0.13870  0.11650  0.64473  Biso   1.000  H
  H113     1.0000 0.08420  0.04210  0.68943  Biso   1.000  H
  H114     1.0000 0.11290  0.01360  0.63533  Biso   1.000  H
  C135     1.0000 0.25840  0.16580  0.72503  Biso   1.000  C
  C136     1.0000 0.30190  0.25220  0.70363  Biso   1.000  C
  C137     1.0000 0.33260  0.33090  0.73563  Biso   1.000  C
  H115     1.0000 0.36120  0.38890  0.71953  Biso   1.000  H
  C138     1.0000 0.32060  0.32300  0.79143  Biso   1.000  C
  C139     1.0000 0.27600  0.23290  0.81543  Biso   1.000  C
  C140     1.0000 0.24700  0.15880  0.78143  Biso   1.000  C
  H116     1.0000 0.21780  0.10010  0.79673  Biso   1.000  H
  C141     1.0000 0.40160  0.28360  0.63103  Biso   1.000  C
  H117     1.0000 0.41630  0.24070  0.64873  Biso   1.000  H
  H118     1.0000 0.44740  0.34570  0.64183  Biso   1.000  H
  C142     1.0000 0.40350  0.27360  0.56893  Biso   1.000  C
  C143     1.0000 0.39100  0.48440  0.80293  Biso   1.000  C
  H119     1.0000 0.35080  0.48530  0.77473  Biso   1.000  H
  H120     1.0000 0.44890  0.49810  0.78593  Biso   1.000  H
  C144     1.0000 0.40870  0.55700  0.84433  Biso   1.000  C
  O61      1.0000 0.20400  0.77900  0.80393  Biso   1.000  O
  O62      1.0000 0.32610  0.72570  0.78923  Biso   1.000  O
  O63      1.0000 0.39590  0.78300  0.87033  Biso   1.000  O
  O64      1.0000 0.37560  0.06200  0.70033  Biso   1.000  O
  O65      1.0000 0.61060  0.13650  0.67123  Biso   1.000  O
  O66      1.0000 0.50930  0.16370  0.62823  Biso   1.000  O
  O67      1.0000 0.31400  0.26530  0.64687  Biso   1.000  O
  O68      1.0000 0.34380  0.27240  0.54143  Biso   1.000  O
  O69      1.0000 0.47570  0.27640  0.54941  Biso   1.000  O
  O70      1.0000 0.34960  0.39540  0.82643  Biso   1.000  O
  O71      1.0000 0.40410  0.53950  0.89303  Biso   1.000  O
  O72      1.0000 0.43020  0.63480  0.82529  Biso   1.000  O
