data_image0
_cell_length_a       16.719
_cell_length_b       16.719
_cell_length_c       24.598
_cell_angle_alpha    90
_cell_angle_beta     90
_cell_angle_gamma    120

_symmetry_space_group_name_H-M    "P 1"
_symmetry_int_tables_number       1

loop_
  _symmetry_equiv_pos_as_xyz
  'x, y, z'

loop_
  _atom_site_label
  _atom_site_occupancy
  _atom_site_fract_x
  _atom_site_fract_y
  _atom_site_fract_z
  _atom_site_thermal_displace_type
  _atom_site_B_iso_or_equiv
  _atom_site_type_symbol
  Co1      1.0000 0.40788  0.68402  0.74945  Biso   1.000  Co
  Co2      1.0000 0.49182  0.25482  0.46862  Biso   1.000  Co
  C1       1.0000 0.04560  0.82840  0.55950  Biso   1.000  C
  H1       1.0000 0.09980  0.83170  0.54400  Biso   1.000  H
  H2       1.0000 0.05130  0.83230  0.59840  Biso   1.000  H
  H3       1.0000 0.03880  0.87860  0.54610  Biso   1.000  H
  C2       1.0000 0.96060  0.73660  0.54360  Biso   1.000  C
  H4       1.0000 0.96870  0.68730  0.55940  Biso   1.000  H
  C3       1.0000 0.87210  0.72540  0.56620  Biso   1.000  C
  C4       1.0000 0.86420  0.79150  0.59514  Biso   1.000  C
  H5       1.0000 0.91770  0.84770  0.60120  Biso   1.000  H
  C5       1.0000 0.78210  0.78010  0.61600  Biso   1.000  C
  C6       1.0000 0.70270  0.69530  0.60845  Biso   1.000  C
  C7       1.0000 0.70550  0.62550  0.57830  Biso   1.000  C
  H6       1.0000 0.65190  0.56920  0.57250  Biso   1.000  H
  C8       1.0000 0.78810  0.64160  0.55750  Biso   1.000  C
  C9       1.0000 0.73000  0.52980  0.48710  Biso   1.000  C
  H7       1.0000 0.76200  0.53340  0.45360  Biso   1.000  H
  H8       1.0000 0.69580  0.56200  0.48150  Biso   1.000  H
  C10      1.0000 0.66280  0.42980  0.49970  Biso   1.000  C
  C11      1.0000 0.54350  0.59580  0.63170  Biso   1.000  C
  H9       1.0000 0.55990  0.55040  0.64350  Biso   1.000  H
  H10      1.0000 0.52000  0.58040  0.59480  Biso   1.000  H
  C12      1.0000 0.46890  0.59080  0.66817  Biso   1.000  C
  C13      1.0000 0.77780  0.85840  0.64570  Biso   1.000  C
  H11      1.0000 0.73270  0.83010  0.67510  Biso   1.000  H
  C14      1.0000 0.86780  0.92850  0.67130  Biso   1.000  C
  H12      1.0000 0.85990  0.97510  0.68920  Biso   1.000  H
  H13      1.0000 0.91420  0.95670  0.64360  Biso   1.000  H
  H14      1.0000 0.88670  0.89840  0.69730  Biso   1.000  H
  C15      1.0000 0.74200  0.90670  0.60780  Biso   1.000  C
  C16      1.0000 0.69810  0.95050  0.62930  Biso   1.000  C
  C17      1.0000 0.66810  0.99860  0.59770  Biso   1.000  C
  H15      1.0000 0.64000  0.02870  0.61360  Biso   1.000  H
  C18      1.0000 0.68040  0.00160  0.54220  Biso   1.000  C
  C19      1.0000 0.72410  0.95670  0.51820  Biso   1.000  C
  C20      1.0000 0.75370  0.91110  0.55190  Biso   1.000  C
  H16      1.0000 0.78300  0.88180  0.53640  Biso   1.000  H
  C21      1.0000 0.59810  0.88170  0.70180  Biso   1.000  C
  H17      1.0000 0.58270  0.82370  0.68430  Biso   1.000  H
  H18      1.0000 0.55280  0.89860  0.69080  Biso   1.000  H
  C22      1.0000 0.59650  0.87080  0.76360  Biso   1.000  C
  C23      1.0000 0.60950  0.09200  0.53120  Biso   1.000  C
  H19      1.0000 0.64960  0.13360  0.55920  Biso   1.000  H
  H20      1.0000 0.55190  0.04730  0.54820  Biso   1.000  H
  C24      1.0000 0.59110  0.14590  0.48920  Biso   1.000  C
  O1       1.0000 0.79620  0.57510  0.52905  Biso   1.000  O
  O2       1.0000 0.60350  0.38720  0.46352  Biso   1.000  O
  O3       1.0000 0.67260  0.39880  0.54392  Biso   1.000  O
  O4       1.0000 0.62380  0.68470  0.63200  Biso   1.000  O
  O5       1.0000 0.49070  0.65240  0.70354  Biso   1.000  O
  O6       1.0000 0.39060  0.52270  0.66184  Biso   1.000  O
  O7       1.0000 0.68700  0.95090  0.68565  Biso   1.000  O
  O8       1.0000 0.65580  0.93070  0.79056  Biso   1.000  O
  O9       1.0000 0.52640  0.80080  0.78277  Biso   1.000  O
  O10      1.0000 0.65170  0.04590  0.50711  Biso   1.000  O
  O11      1.0000 0.56900  0.20310  0.50852  Biso   1.000  O
  O12      1.0000 0.59630  0.13400  0.44070  Biso   1.000  O
  Co3      1.0000 0.31598  0.72386  0.08278  Biso   1.000  Co
  Co4      1.0000 0.74518  0.23700  0.80195  Biso   1.000  Co
  C25      1.0000 0.17160  0.21720  0.89283  Biso   1.000  C
  H21      1.0000 0.16830  0.26810  0.87733  Biso   1.000  H
  H22      1.0000 0.16770  0.21900  0.93173  Biso   1.000  H
  H23      1.0000 0.12140  0.16020  0.87943  Biso   1.000  H
  C26      1.0000 0.26340  0.22400  0.87693  Biso   1.000  C
  H24      1.0000 0.31270  0.28140  0.89273  Biso   1.000  H
  C27      1.0000 0.27460  0.14670  0.89953  Biso   1.000  C
  C28      1.0000 0.20850  0.07270  0.92847  Biso   1.000  C
  H25      1.0000 0.15230  0.07000  0.93453  Biso   1.000  H
  C29      1.0000 0.21990  0.00200  0.94933  Biso   1.000  C
  C30      1.0000 0.30470  0.00740  0.94178  Biso   1.000  C
  C31      1.0000 0.37450  0.08000  0.91163  Biso   1.000  C
  H26      1.0000 0.43080  0.08270  0.90583  Biso   1.000  H
  C32      1.0000 0.35840  0.14650  0.89083  Biso   1.000  C
  C33      1.0000 0.47020  0.20020  0.82043  Biso   1.000  C
  H27      1.0000 0.46660  0.22860  0.78693  Biso   1.000  H
  H28      1.0000 0.43800  0.13380  0.81483  Biso   1.000  H
  C34      1.0000 0.57020  0.23300  0.83303  Biso   1.000  C
  C35      1.0000 0.40420  0.94770  0.96503  Biso   1.000  C
  H29      1.0000 0.44960  0.00950  0.97683  Biso   1.000  H
  H30      1.0000 0.41960  0.93960  0.92813  Biso   1.000  H
  C36      1.0000 0.40920  0.87810  0.00150  Biso   1.000  C
  C37      1.0000 0.14160  0.91940  0.97903  Biso   1.000  C
  H31      1.0000 0.16990  0.90260  0.00843  Biso   1.000  H
  C38      1.0000 0.07150  0.93930  0.00463  Biso   1.000  C
  H32      1.0000 0.02490  0.88480  0.02253  Biso   1.000  H
  H33      1.0000 0.04330  0.95750  0.97693  Biso   1.000  H
  H34      1.0000 0.10160  0.98830  0.03063  Biso   1.000  H
  C39      1.0000 0.09330  0.83530  0.94113  Biso   1.000  C
  C40      1.0000 0.04950  0.74760  0.96263  Biso   1.000  C
  C41      1.0000 0.00140  0.66950  0.93103  Biso   1.000  C
  H35      1.0000 0.97130  0.61130  0.94693  Biso   1.000  H
  C42      1.0000 0.99840  0.67880  0.87553  Biso   1.000  C
  C43      1.0000 0.04330  0.76740  0.85153  Biso   1.000  C
  C44      1.0000 0.08890  0.84260  0.88523  Biso   1.000  C
  H36      1.0000 0.11820  0.90120  0.86973  Biso   1.000  H
  C45      1.0000 0.11830  0.71640  0.03513  Biso   1.000  C
  H37      1.0000 0.17630  0.75900  0.01763  Biso   1.000  H
  H38      1.0000 0.10140  0.65420  0.02413  Biso   1.000  H
  C46      1.0000 0.12920  0.72570  0.09693  Biso   1.000  C
  C47      1.0000 0.90800  0.51750  0.86453  Biso   1.000  C
  H39      1.0000 0.86640  0.51600  0.89253  Biso   1.000  H
  H40      1.0000 0.95270  0.50460  0.88153  Biso   1.000  H
  C48      1.0000 0.85410  0.44520  0.82253  Biso   1.000  C
  O13      1.0000 0.42490  0.22110  0.86238  Biso   1.000  O
  O14      1.0000 0.61280  0.21630  0.79685  Biso   1.000  O
  O15      1.0000 0.60120  0.27380  0.87725  Biso   1.000  O
  O16      1.0000 0.31530  0.93910  0.96533  Biso   1.000  O
  O17      1.0000 0.34760  0.83830  0.03687  Biso   1.000  O
  O18      1.0000 0.47730  0.86790  0.99517  Biso   1.000  O
  O19      1.0000 0.04910  0.73610  0.01898  Biso   1.000  O
  O20      1.0000 0.06930  0.72510  0.12389  Biso   1.000  O
  O21      1.0000 0.19920  0.72560  0.11610  Biso   1.000  O
  O22      1.0000 0.95410  0.60580  0.84044  Biso   1.000  O
  O23      1.0000 0.79690  0.36590  0.84185  Biso   1.000  O
  O24      1.0000 0.86600  0.46230  0.77403  Biso   1.000  O
  Co5      1.0000 0.27614  0.59212  0.41612  Biso   1.000  Co
  Co6      1.0000 0.76300  0.50818  0.13529  Biso   1.000  Co
  C49      1.0000 0.78280  0.95440  0.22617  Biso   1.000  C
  H41      1.0000 0.73190  0.90020  0.21067  Biso   1.000  H
  H42      1.0000 0.78100  0.94870  0.26507  Biso   1.000  H
  H43      1.0000 0.83980  0.96120  0.21277  Biso   1.000  H
  C50      1.0000 0.77600  0.03940  0.21027  Biso   1.000  C
  H44      1.0000 0.71860  0.03130  0.22607  Biso   1.000  H
  C51      1.0000 0.85330  0.12790  0.23287  Biso   1.000  C
  C52      1.0000 0.92730  0.13580  0.26181  Biso   1.000  C
  H45      1.0000 0.93000  0.08230  0.26787  Biso   1.000  H
  C53      1.0000 0.99800  0.21790  0.28267  Biso   1.000  C
  C54      1.0000 0.99260  0.29730  0.27512  Biso   1.000  C
  C55      1.0000 0.92000  0.29450  0.24497  Biso   1.000  C
  H46      1.0000 0.91730  0.34810  0.23917  Biso   1.000  H
  C56      1.0000 0.85350  0.21190  0.22417  Biso   1.000  C
  C57      1.0000 0.79980  0.27000  0.15377  Biso   1.000  C
  H47      1.0000 0.77140  0.23800  0.12027  Biso   1.000  H
  H48      1.0000 0.86620  0.30420  0.14817  Biso   1.000  H
  C58      1.0000 0.76700  0.33720  0.16637  Biso   1.000  C
  C59      1.0000 0.05230  0.45650  0.29837  Biso   1.000  C
  H49      1.0000 0.99050  0.44010  0.31017  Biso   1.000  H
  H50      1.0000 0.06040  0.48000  0.26147  Biso   1.000  H
  C60      1.0000 0.12190  0.53110  0.33484  Biso   1.000  C
  C61      1.0000 0.08060  0.22220  0.31237  Biso   1.000  C
  H51      1.0000 0.09740  0.26730  0.34177  Biso   1.000  H
  C62      1.0000 0.06070  0.13220  0.33797  Biso   1.000  C
  H52      1.0000 0.11520  0.14010  0.35587  Biso   1.000  H
  H53      1.0000 0.04250  0.08580  0.31027  Biso   1.000  H
  H54      1.0000 0.01170  0.11330  0.36397  Biso   1.000  H
  C63      1.0000 0.16470  0.25800  0.27447  Biso   1.000  C
  C64      1.0000 0.25240  0.30190  0.29597  Biso   1.000  C
  C65      1.0000 0.33050  0.33190  0.26437  Biso   1.000  C
  H55      1.0000 0.38870  0.36000  0.28027  Biso   1.000  H
  C66      1.0000 0.32120  0.31960  0.20887  Biso   1.000  C
  C67      1.0000 0.23260  0.27590  0.18487  Biso   1.000  C
  C68      1.0000 0.15740  0.24630  0.21857  Biso   1.000  C
  H56      1.0000 0.09880  0.21700  0.20307  Biso   1.000  H
  C69      1.0000 0.28360  0.40190  0.36847  Biso   1.000  C
  H57      1.0000 0.24100  0.41730  0.35097  Biso   1.000  H
  H58      1.0000 0.34580  0.44720  0.35747  Biso   1.000  H
  C70      1.0000 0.27430  0.40350  0.43027  Biso   1.000  C
  C71      1.0000 0.48250  0.39050  0.19787  Biso   1.000  C
  H59      1.0000 0.48400  0.35040  0.22587  Biso   1.000  H
  H60      1.0000 0.49540  0.44810  0.21487  Biso   1.000  H
  C72      1.0000 0.55480  0.40890  0.15587  Biso   1.000  C
  O25      1.0000 0.77890  0.20380  0.19572  Biso   1.000  O
  O26      1.0000 0.78370  0.39650  0.13019  Biso   1.000  O
  O27      1.0000 0.72620  0.32740  0.21059  Biso   1.000  O
  O28      1.0000 0.06090  0.37620  0.29867  Biso   1.000  O
  O29      1.0000 0.16170  0.50930  0.37021  Biso   1.000  O
  O30      1.0000 0.13210  0.60940  0.32851  Biso   1.000  O
  O31      1.0000 0.26390  0.31300  0.35232  Biso   1.000  O
  O32      1.0000 0.27490  0.34420  0.45723  Biso   1.000  O
  O33      1.0000 0.27440  0.47360  0.44944  Biso   1.000  O
  O34      1.0000 0.39420  0.34830  0.17378  Biso   1.000  O
  O35      1.0000 0.63410  0.43100  0.17519  Biso   1.000  O
  O36      1.0000 0.53770  0.40370  0.10737  Biso   1.000  O
  Co7      1.0000 0.68402  0.40788  0.25055  Biso   1.000  Co
  Co8      1.0000 0.25482  0.49182  0.53138  Biso   1.000  Co
  C73      1.0000 0.82840  0.04560  0.44050  Biso   1.000  C
  H61      1.0000 0.83170  0.09980  0.45600  Biso   1.000  H
  H62      1.0000 0.83230  0.05130  0.40160  Biso   1.000  H
  H63      1.0000 0.87860  0.03880  0.45390  Biso   1.000  H
  C74      1.0000 0.73660  0.96060  0.45640  Biso   1.000  C
  H64      1.0000 0.68730  0.96870  0.44060  Biso   1.000  H
  C75      1.0000 0.72540  0.87210  0.43380  Biso   1.000  C
  C76      1.0000 0.79150  0.86420  0.40486  Biso   1.000  C
  H65      1.0000 0.84770  0.91770  0.39880  Biso   1.000  H
  C77      1.0000 0.78010  0.78210  0.38400  Biso   1.000  C
  C78      1.0000 0.69530  0.70270  0.39155  Biso   1.000  C
  C79      1.0000 0.62550  0.70550  0.42170  Biso   1.000  C
  H66      1.0000 0.56920  0.65190  0.42750  Biso   1.000  H
  C80      1.0000 0.64160  0.78810  0.44250  Biso   1.000  C
  C81      1.0000 0.52980  0.73000  0.51290  Biso   1.000  C
  H67      1.0000 0.53340  0.76200  0.54640  Biso   1.000  H
  H68      1.0000 0.56200  0.69580  0.51850  Biso   1.000  H
  C82      1.0000 0.42980  0.66280  0.50030  Biso   1.000  C
  C83      1.0000 0.59580  0.54350  0.36830  Biso   1.000  C
  H69      1.0000 0.55040  0.55990  0.35650  Biso   1.000  H
  H70      1.0000 0.58040  0.52000  0.40520  Biso   1.000  H
  C84      1.0000 0.59080  0.46890  0.33183  Biso   1.000  C
  C85      1.0000 0.85840  0.77780  0.35430  Biso   1.000  C
  H71      1.0000 0.83010  0.73270  0.32490  Biso   1.000  H
  C86      1.0000 0.92850  0.86780  0.32870  Biso   1.000  C
  H72      1.0000 0.97510  0.85990  0.31080  Biso   1.000  H
  H73      1.0000 0.95670  0.91420  0.35640  Biso   1.000  H
  H74      1.0000 0.89840  0.88670  0.30270  Biso   1.000  H
  C87      1.0000 0.90670  0.74200  0.39220  Biso   1.000  C
  C88      1.0000 0.95050  0.69810  0.37070  Biso   1.000  C
  C89      1.0000 0.99860  0.66810  0.40230  Biso   1.000  C
  H75      1.0000 0.02870  0.64000  0.38640  Biso   1.000  H
  C90      1.0000 0.00160  0.68040  0.45780  Biso   1.000  C
  C91      1.0000 0.95670  0.72410  0.48180  Biso   1.000  C
  C92      1.0000 0.91110  0.75370  0.44810  Biso   1.000  C
  H76      1.0000 0.88180  0.78300  0.46360  Biso   1.000  H
  C93      1.0000 0.88170  0.59810  0.29820  Biso   1.000  C
  H77      1.0000 0.82370  0.58270  0.31570  Biso   1.000  H
  H78      1.0000 0.89860  0.55280  0.30920  Biso   1.000  H
  C94      1.0000 0.87080  0.59650  0.23640  Biso   1.000  C
  C95      1.0000 0.09200  0.60950  0.46880  Biso   1.000  C
  H79      1.0000 0.13360  0.64960  0.44080  Biso   1.000  H
  H80      1.0000 0.04730  0.55190  0.45180  Biso   1.000  H
  C96      1.0000 0.14590  0.59110  0.51080  Biso   1.000  C
  O37      1.0000 0.57510  0.79620  0.47095  Biso   1.000  O
  O38      1.0000 0.38720  0.60350  0.53648  Biso   1.000  O
  O39      1.0000 0.39880  0.67260  0.45608  Biso   1.000  O
  O40      1.0000 0.68470  0.62380  0.36800  Biso   1.000  O
  O41      1.0000 0.65240  0.49070  0.29646  Biso   1.000  O
  O42      1.0000 0.52270  0.39060  0.33816  Biso   1.000  O
  O43      1.0000 0.95090  0.68700  0.31435  Biso   1.000  O
  O44      1.0000 0.93070  0.65580  0.20944  Biso   1.000  O
  O45      1.0000 0.80080  0.52640  0.21723  Biso   1.000  O
  O46      1.0000 0.04590  0.65170  0.49289  Biso   1.000  O
  O47      1.0000 0.20310  0.56900  0.49148  Biso   1.000  O
  O48      1.0000 0.13400  0.59630  0.55930  Biso   1.000  O
  Co9      1.0000 0.72386  0.31598  0.91722  Biso   1.000  Co
  Co10     1.0000 0.23700  0.74518  0.19805  Biso   1.000  Co
  C97      1.0000 0.21720  0.17160  0.10717  Biso   1.000  C
  H81      1.0000 0.26810  0.16830  0.12267  Biso   1.000  H
  H82      1.0000 0.21900  0.16770  0.06827  Biso   1.000  H
  H83      1.0000 0.16020  0.12140  0.12057  Biso   1.000  H
  C98      1.0000 0.22400  0.26340  0.12307  Biso   1.000  C
  H84      1.0000 0.28140  0.31270  0.10727  Biso   1.000  H
  C99      1.0000 0.14670  0.27460  0.10047  Biso   1.000  C
  C100     1.0000 0.07270  0.20850  0.07153  Biso   1.000  C
  H85      1.0000 0.07000  0.15230  0.06547  Biso   1.000  H
  C101     1.0000 0.00200  0.21990  0.05067  Biso   1.000  C
  C102     1.0000 0.00740  0.30470  0.05822  Biso   1.000  C
  C103     1.0000 0.08000  0.37450  0.08837  Biso   1.000  C
  H86      1.0000 0.08270  0.43080  0.09417  Biso   1.000  H
  C104     1.0000 0.14650  0.35840  0.10917  Biso   1.000  C
  C105     1.0000 0.20020  0.47020  0.17957  Biso   1.000  C
  H87      1.0000 0.22860  0.46660  0.21307  Biso   1.000  H
  H88      1.0000 0.13380  0.43800  0.18517  Biso   1.000  H
  C106     1.0000 0.23300  0.57020  0.16697  Biso   1.000  C
  C107     1.0000 0.94770  0.40420  0.03497  Biso   1.000  C
  H89      1.0000 0.00950  0.44960  0.02317  Biso   1.000  H
  H90      1.0000 0.93960  0.41960  0.07187  Biso   1.000  H
  C108     1.0000 0.87810  0.40920  0.99850  Biso   1.000  C
  C109     1.0000 0.91940  0.14160  0.02097  Biso   1.000  C
  H91      1.0000 0.90260  0.16990  0.99157  Biso   1.000  H
  C110     1.0000 0.93930  0.07150  0.99537  Biso   1.000  C
  H92      1.0000 0.88480  0.02490  0.97747  Biso   1.000  H
  H93      1.0000 0.95750  0.04330  0.02307  Biso   1.000  H
  H94      1.0000 0.98830  0.10160  0.96937  Biso   1.000  H
  C111     1.0000 0.83530  0.09330  0.05887  Biso   1.000  C
  C112     1.0000 0.74760  0.04950  0.03737  Biso   1.000  C
  C113     1.0000 0.66950  0.00140  0.06897  Biso   1.000  C
  H95      1.0000 0.61130  0.97130  0.05307  Biso   1.000  H
  C114     1.0000 0.67880  0.99840  0.12447  Biso   1.000  C
  C115     1.0000 0.76740  0.04330  0.14847  Biso   1.000  C
  C116     1.0000 0.84260  0.08890  0.11477  Biso   1.000  C
  H96      1.0000 0.90120  0.11820  0.13027  Biso   1.000  H
  C117     1.0000 0.71640  0.11830  0.96487  Biso   1.000  C
  H97      1.0000 0.75900  0.17630  0.98237  Biso   1.000  H
  H98      1.0000 0.65420  0.10140  0.97587  Biso   1.000  H
  C118     1.0000 0.72570  0.12920  0.90307  Biso   1.000  C
  C119     1.0000 0.51750  0.90800  0.13547  Biso   1.000  C
  H99      1.0000 0.51600  0.86640  0.10747  Biso   1.000  H
  H100     1.0000 0.50460  0.95270  0.11847  Biso   1.000  H
  C120     1.0000 0.44520  0.85410  0.17747  Biso   1.000  C
  O49      1.0000 0.22110  0.42490  0.13762  Biso   1.000  O
  O50      1.0000 0.21630  0.61280  0.20315  Biso   1.000  O
  O51      1.0000 0.27380  0.60120  0.12275  Biso   1.000  O
  O52      1.0000 0.93910  0.31530  0.03467  Biso   1.000  O
  O53      1.0000 0.83830  0.34760  0.96313  Biso   1.000  O
  O54      1.0000 0.86790  0.47730  0.00483  Biso   1.000  O
  O55      1.0000 0.73610  0.04910  0.98102  Biso   1.000  O
  O56      1.0000 0.72510  0.06930  0.87611  Biso   1.000  O
  O57      1.0000 0.72560  0.19920  0.88390  Biso   1.000  O
  O58      1.0000 0.60580  0.95410  0.15956  Biso   1.000  O
  O59      1.0000 0.36590  0.79690  0.15815  Biso   1.000  O
  O60      1.0000 0.46230  0.86600  0.22597  Biso   1.000  O
  Co11     1.0000 0.59212  0.27614  0.58388  Biso   1.000  Co
  Co12     1.0000 0.50818  0.76300  0.86471  Biso   1.000  Co
  C121     1.0000 0.95440  0.78280  0.77383  Biso   1.000  C
  H101     1.0000 0.90020  0.73190  0.78933  Biso   1.000  H
  H102     1.0000 0.94870  0.78100  0.73493  Biso   1.000  H
  H103     1.0000 0.96120  0.83980  0.78723  Biso   1.000  H
  C122     1.0000 0.03940  0.77600  0.78973  Biso   1.000  C
  H104     1.0000 0.03130  0.71860  0.77393  Biso   1.000  H
  C123     1.0000 0.12790  0.85330  0.76713  Biso   1.000  C
  C124     1.0000 0.13580  0.92730  0.73819  Biso   1.000  C
  H105     1.0000 0.08230  0.93000  0.73213  Biso   1.000  H
  C125     1.0000 0.21790  0.99800  0.71733  Biso   1.000  C
  C126     1.0000 0.29730  0.99260  0.72488  Biso   1.000  C
  C127     1.0000 0.29450  0.92000  0.75503  Biso   1.000  C
  H106     1.0000 0.34810  0.91730  0.76083  Biso   1.000  H
  C128     1.0000 0.21190  0.85350  0.77583  Biso   1.000  C
  C129     1.0000 0.27000  0.79980  0.84623  Biso   1.000  C
  H107     1.0000 0.23800  0.77140  0.87973  Biso   1.000  H
  H108     1.0000 0.30420  0.86620  0.85183  Biso   1.000  H
  C130     1.0000 0.33720  0.76700  0.83363  Biso   1.000  C
  C131     1.0000 0.45650  0.05230  0.70163  Biso   1.000  C
  H109     1.0000 0.44010  0.99050  0.68983  Biso   1.000  H
  H110     1.0000 0.48000  0.06040  0.73853  Biso   1.000  H
  C132     1.0000 0.53110  0.12190  0.66516  Biso   1.000  C
  C133     1.0000 0.22220  0.08060  0.68763  Biso   1.000  C
  H111     1.0000 0.26730  0.09740  0.65823  Biso   1.000  H
  C134     1.0000 0.13220  0.06070  0.66203  Biso   1.000  C
  H112     1.0000 0.14010  0.11520  0.64413  Biso   1.000  H
  H113     1.0000 0.08580  0.04250  0.68973  Biso   1.000  H
  H114     1.0000 0.11330  0.01170  0.63603  Biso   1.000  H
  C135     1.0000 0.25800  0.16470  0.72553  Biso   1.000  C
  C136     1.0000 0.30190  0.25240  0.70403  Biso   1.000  C
  C137     1.0000 0.33190  0.33050  0.73563  Biso   1.000  C
  H115     1.0000 0.36000  0.38870  0.71973  Biso   1.000  H
  C138     1.0000 0.31960  0.32120  0.79113  Biso   1.000  C
  C139     1.0000 0.27590  0.23260  0.81513  Biso   1.000  C
  C140     1.0000 0.24630  0.15740  0.78143  Biso   1.000  C
  H116     1.0000 0.21700  0.09880  0.79693  Biso   1.000  H
  C141     1.0000 0.40190  0.28360  0.63153  Biso   1.000  C
  H117     1.0000 0.41730  0.24100  0.64903  Biso   1.000  H
  H118     1.0000 0.44720  0.34580  0.64253  Biso   1.000  H
  C142     1.0000 0.40350  0.27430  0.56973  Biso   1.000  C
  C143     1.0000 0.39050  0.48250  0.80213  Biso   1.000  C
  H119     1.0000 0.35040  0.48400  0.77413  Biso   1.000  H
  H120     1.0000 0.44810  0.49540  0.78513  Biso   1.000  H
  C144     1.0000 0.40890  0.55480  0.84413  Biso   1.000  C
  O61      1.0000 0.20380  0.77890  0.80428  Biso   1.000  O
  O62      1.0000 0.39650  0.78370  0.86981  Biso   1.000  O
  O63      1.0000 0.32740  0.72620  0.78941  Biso   1.000  O
  O64      1.0000 0.37620  0.06090  0.70133  Biso   1.000  O
  O65      1.0000 0.50930  0.16170  0.62979  Biso   1.000  O
  O66      1.0000 0.60940  0.13210  0.67149  Biso   1.000  O
  O67      1.0000 0.31300  0.26390  0.64768  Biso   1.000  O
  O68      1.0000 0.34420  0.27490  0.54277  Biso   1.000  O
  O69      1.0000 0.47360  0.27440  0.55056  Biso   1.000  O
  O70      1.0000 0.34830  0.39420  0.82622  Biso   1.000  O
  O71      1.0000 0.43100  0.63410  0.82481  Biso   1.000  O
  O72      1.0000 0.40370  0.53770  0.89263  Biso   1.000  O
