data_image0
_cell_length_a       12.3029
_cell_length_b       17.4336
_cell_length_c       17.492
_cell_angle_alpha    67.67
_cell_angle_beta     76.2
_cell_angle_gamma    71.884

_symmetry_space_group_name_H-M    "P 1"
_symmetry_int_tables_number       1

loop_
  _symmetry_equiv_pos_as_xyz
  'x, y, z'

loop_
  _atom_site_label
  _atom_site_occupancy
  _atom_site_fract_x
  _atom_site_fract_y
  _atom_site_fract_z
  _atom_site_thermal_displace_type
  _atom_site_B_iso_or_equiv
  _atom_site_type_symbol
  Mn1      1.0000 0.86946  0.20046  0.64551  Biso   1.000  Mn
  Mn2      1.0000 0.85702  0.43505  0.47037  Biso   1.000  Mn
  C1       1.0000 0.05170  0.54160  0.26520  Biso   1.000  C
  H1       1.0000 0.02700  0.57320  0.30140  Biso   1.000  H
  C2       1.0000 0.16340  0.53100  0.22500  Biso   1.000  C
  C3       1.0000 0.20180  0.48500  0.17080  Biso   1.000  C
  C4       1.0000 0.12400  0.45000  0.15960  Biso   1.000  C
  H2       1.0000 0.14900  0.41830  0.12350  Biso   1.000  H
  C5       1.0000 0.01110  0.45820  0.19780  Biso   1.000  C
  C6       1.0000 0.97660  0.50500  0.25140  Biso   1.000  C
  C7       1.0000 0.20490  0.63220  0.26840  Biso   1.000  C
  H3       1.0000 0.13270  0.66830  0.24830  Biso   1.000  H
  H4       1.0000 0.26080  0.66680  0.24770  Biso   1.000  H
  C8       1.0000 0.18610  0.60370  0.36310  Biso   1.000  C
  C9       1.0000 0.79920  0.59470  0.28780  Biso   1.000  C
  H5       1.0000 0.72100  0.59890  0.28160  Biso   1.000  H
  H6       1.0000 0.83010  0.63490  0.23790  Biso   1.000  H
  C10      1.0000 0.79450  0.62100  0.36160  Biso   1.000  C
  C11      1.0000 0.32310  0.47600  0.12410  Biso   1.000  C
  H7       1.0000 0.37240  0.47650  0.16030  Biso   1.000  H
  C12      1.0000 0.32780  0.55430  0.04540  Biso   1.000  C
  H8       1.0000 0.29730  0.60540  0.06020  Biso   1.000  H
  H9       1.0000 0.28270  0.55510  0.00720  Biso   1.000  H
  H10      1.0000 0.40650  0.55160  0.01950  Biso   1.000  H
  C13      1.0000 0.36840  0.39160  0.10930  Biso   1.000  C
  C14      1.0000 0.38550  0.31700  0.17660  Biso   1.000  C
  C15      1.0000 0.41950  0.23740  0.16720  Biso   1.000  C
  H11      1.0000 0.42830  0.18810  0.21380  Biso   1.000  H
  C16      1.0000 0.44060  0.23140  0.08740  Biso   1.000  C
  C17      1.0000 0.42690  0.30500  0.01760  Biso   1.000  C
  C18      1.0000 0.39160  0.38260  0.03090  Biso   1.000  C
  H12      1.0000 0.38270  0.43210  0.98460  Biso   1.000  H
  C19      1.0000 0.44260  0.08480  0.13780  Biso   1.000  C
  H13      1.0000 0.43540  0.04570  0.11320  Biso   1.000  H
  H14      1.0000 0.36730  0.10490  0.16640  Biso   1.000  H
  C20      1.0000 0.52550  0.03700  0.20090  Biso   1.000  C
  C21      1.0000 0.30910  0.27360  0.32010  Biso   1.000  C
  H15      1.0000 0.25760  0.25740  0.29810  Biso   1.000  H
  H16      1.0000 0.26190  0.30630  0.35570  Biso   1.000  H
  C22      1.0000 0.38370  0.19480  0.37140  Biso   1.000  C
  C23      1.0000 0.45160  0.29440  0.93320  Biso   1.000  C
  H17      1.0000 0.52740  0.25420  0.93080  Biso   1.000  H
  C24      1.0000 0.46090  0.37680  0.86140  Biso   1.000  C
  H18      1.0000 0.47640  0.36620  0.80940  Biso   1.000  H
  H19      1.0000 0.52260  0.39680  0.86630  Biso   1.000  H
  H20      1.0000 0.38970  0.41940  0.86330  Biso   1.000  H
  C25      1.0000 0.36640  0.25460  0.92070  Biso   1.000  C
  C26      1.0000 0.25660  0.25760  0.96520  Biso   1.000  C
  H21      1.0000 0.23490  0.28360  0.00590  Biso   1.000  H
  C27      1.0000 0.17740  0.22350  0.95200  Biso   1.000  C
  C28      1.0000 0.21110  0.18660  0.89050  Biso   1.000  C
  C29      1.0000 0.32160  0.17950  0.84700  Biso   1.000  C
  H22      1.0000 0.34420  0.15160  0.80770  Biso   1.000  H
  C30      1.0000 0.39700  0.21310  0.86180  Biso   1.000  C
  C31      1.0000 0.53140  0.19750  0.74290  Biso   1.000  C
  H23      1.0000 0.47970  0.24270  0.70590  Biso   1.000  H
  H24      1.0000 0.51950  0.14310  0.74850  Biso   1.000  H
  C32      1.0000 0.65340  0.20050  0.70730  Biso   1.000  C
  C33      1.0000 0.13590  0.16370  0.79150  Biso   1.000  C
  H25      1.0000 0.19560  0.11740  0.77800  Biso   1.000  H
  H26      1.0000 0.15580  0.21700  0.75610  Biso   1.000  H
  C34      1.0000 0.02230  0.16340  0.77380  Biso   1.000  C
  C35      1.0000 0.05540  0.23110  0.99820  Biso   1.000  C
  H27      1.0000 0.03670  0.17640  0.01100  Biso   1.000  H
  C36      1.0000 0.97110  0.29890  0.94130  Biso   1.000  C
  H28      1.0000 0.98170  0.28690  0.89050  Biso   1.000  H
  H29      1.0000 0.98460  0.35400  0.92890  Biso   1.000  H
  H30      1.0000 0.89350  0.29870  0.96860  Biso   1.000  H
  C37      1.0000 0.04270  0.24470  0.08050  Biso   1.000  C
  C38      1.0000 0.07810  0.17530  0.15100  Biso   1.000  C
  C39      1.0000 0.06730  0.18620  0.22630  Biso   1.000  C
  H31      1.0000 0.09290  0.14010  0.27230  Biso   1.000  H
  C40      1.0000 0.01720  0.26750  0.23290  Biso   1.000  C
  C41      1.0000 0.98060  0.33810  0.16550  Biso   1.000  C
  C42      1.0000 0.99580  0.32400  0.09080  Biso   1.000  C
  H32      1.0000 0.97320  0.37080  0.04440  Biso   1.000  H
  C43      1.0000 0.92660  0.42390  0.17790  Biso   1.000  C
  H33      1.0000 0.86720  0.41480  0.22680  Biso   1.000  H
  C44      1.0000 0.86580  0.49170  0.10550  Biso   1.000  C
  H34      1.0000 0.81170  0.46980  0.09330  Biso   1.000  H
  H35      1.0000 0.92190  0.50600  0.05720  Biso   1.000  H
  H36      1.0000 0.82560  0.54190  0.12040  Biso   1.000  H
  C45      1.0000 0.00630  0.21690  0.38240  Biso   1.000  C
  H37      1.0000 0.08620  0.18990  0.39130  Biso   1.000  H
  H38      1.0000 0.97120  0.17410  0.38260  Biso   1.000  H
  C46      1.0000 0.94150  0.25460  0.45140  Biso   1.000  C
  C47      1.0000 0.14850  0.02540  0.20890  Biso   1.000  C
  H39      1.0000 0.19210  0.03660  0.24130  Biso   1.000  H
  H40      1.0000 0.19780  0.97880  0.18980  Biso   1.000  H
  C48      1.0000 0.04700  0.99680  0.26460  Biso   1.000  C
  O1       1.0000 0.47600  0.15560  0.07330  Biso   1.000  O
  O2       1.0000 0.62280  0.04740  0.18540  Biso   1.000  O
  O3       1.0000 0.48510  0.98770  0.26670  Biso   1.000  O
  H41      1.0000 0.53400  0.96360  0.29850  Biso   1.000  H
  O4       1.0000 0.37150  0.32650  0.25290  Biso   1.000  O
  O5       1.0000 0.32830  0.14660  0.43040  Biso   1.000  O
  O6       1.0000 0.50780  0.20810  0.82150  Biso   1.000  O
  O7       1.0000 0.68230  0.20910  0.63070  Biso   1.000  O
  O8       1.0000 0.72470  0.19360  0.75110  Biso   1.000  O
  O9       1.0000 0.13220  0.15430  0.87560  Biso   1.000  O
  O10      1.0000 0.00880  0.19560  0.69830  Biso   1.000  O
  O11      1.0000 0.95410  0.13220  0.83010  Biso   1.000  O
  O12      1.0000 0.12400  0.09830  0.13890  Biso   1.000  O
  O13      1.0000 0.07050  0.93470  0.33100  Biso   1.000  O
  O14      1.0000 0.94800  0.03410  0.24600  Biso   1.000  O
  O15      1.0000 0.00030  0.28430  0.30600  Biso   1.000  O
  O16      1.0000 0.94590  0.20310  0.52330  Biso   1.000  O
  O17      1.0000 0.88790  0.33060  0.43110  Biso   1.000  O
  O18      1.0000 0.86510  0.51250  0.29310  Biso   1.000  O
  O19      1.0000 0.84850  0.56760  0.42030  Biso   1.000  O
  O20      1.0000 0.73550  0.69340  0.35920  Biso   1.000  O
  O21      1.0000 0.24360  0.56540  0.23450  Biso   1.000  O
  O22      1.0000 0.18750  0.53040  0.40620  Biso   1.000  O
  O23      1.0000 0.16880  0.66090  0.39450  Biso   1.000  O
  O24      1.0000 0.48910  0.18020  0.35480  Biso   1.000  O
  Mn3      1.0000 0.13054  0.79954  0.35449  Biso   1.000  Mn
  Mn4      1.0000 0.14298  0.56495  0.52963  Biso   1.000  Mn
  C49      1.0000 0.94830  0.45840  0.73480  Biso   1.000  C
  H42      1.0000 0.97300  0.42680  0.69860  Biso   1.000  H
  C50      1.0000 0.83660  0.46900  0.77500  Biso   1.000  C
  C51      1.0000 0.79820  0.51500  0.82920  Biso   1.000  C
  C52      1.0000 0.87600  0.55000  0.84040  Biso   1.000  C
  H43      1.0000 0.85100  0.58170  0.87650  Biso   1.000  H
  C53      1.0000 0.98890  0.54180  0.80220  Biso   1.000  C
  C54      1.0000 0.02340  0.49500  0.74860  Biso   1.000  C
  C55      1.0000 0.79510  0.36780  0.73160  Biso   1.000  C
  H44      1.0000 0.86730  0.33170  0.75170  Biso   1.000  H
  H45      1.0000 0.73920  0.33320  0.75230  Biso   1.000  H
  C56      1.0000 0.81390  0.39630  0.63690  Biso   1.000  C
  C57      1.0000 0.20080  0.40530  0.71220  Biso   1.000  C
  H46      1.0000 0.27900  0.40110  0.71840  Biso   1.000  H
  H47      1.0000 0.16990  0.36510  0.76210  Biso   1.000  H
  C58      1.0000 0.20550  0.37900  0.63840  Biso   1.000  C
  C59      1.0000 0.67690  0.52400  0.87590  Biso   1.000  C
  H48      1.0000 0.62760  0.52350  0.83970  Biso   1.000  H
  C60      1.0000 0.67220  0.44570  0.95460  Biso   1.000  C
  H49      1.0000 0.70270  0.39460  0.93980  Biso   1.000  H
  H50      1.0000 0.71730  0.44490  0.99280  Biso   1.000  H
  H51      1.0000 0.59350  0.44840  0.98050  Biso   1.000  H
  C61      1.0000 0.63160  0.60840  0.89070  Biso   1.000  C
  C62      1.0000 0.61450  0.68300  0.82340  Biso   1.000  C
  C63      1.0000 0.58050  0.76260  0.83280  Biso   1.000  C
  H52      1.0000 0.57170  0.81190  0.78620  Biso   1.000  H
  C64      1.0000 0.55940  0.76860  0.91260  Biso   1.000  C
  C65      1.0000 0.57310  0.69500  0.98240  Biso   1.000  C
  C66      1.0000 0.60840  0.61740  0.96910  Biso   1.000  C
  H53      1.0000 0.61730  0.56790  0.01540  Biso   1.000  H
  C67      1.0000 0.55740  0.91520  0.86220  Biso   1.000  C
  H54      1.0000 0.56460  0.95430  0.88680  Biso   1.000  H
  H55      1.0000 0.63270  0.89510  0.83360  Biso   1.000  H
  C68      1.0000 0.47450  0.96300  0.79910  Biso   1.000  C
  C69      1.0000 0.69090  0.72640  0.67990  Biso   1.000  C
  H56      1.0000 0.74240  0.74260  0.70190  Biso   1.000  H
  H57      1.0000 0.73810  0.69370  0.64430  Biso   1.000  H
  C70      1.0000 0.61630  0.80520  0.62860  Biso   1.000  C
  C71      1.0000 0.54840  0.70560  0.06680  Biso   1.000  C
  H58      1.0000 0.47260  0.74580  0.06920  Biso   1.000  H
  C72      1.0000 0.53910  0.62320  0.13860  Biso   1.000  C
  H59      1.0000 0.52360  0.63380  0.19060  Biso   1.000  H
  H60      1.0000 0.47740  0.60320  0.13370  Biso   1.000  H
  H61      1.0000 0.61030  0.58060  0.13670  Biso   1.000  H
  C73      1.0000 0.63360  0.74540  0.07930  Biso   1.000  C
  C74      1.0000 0.74340  0.74240  0.03480  Biso   1.000  C
  H62      1.0000 0.76510  0.71640  0.99410  Biso   1.000  H
  C75      1.0000 0.82260  0.77650  0.04800  Biso   1.000  C
  C76      1.0000 0.78890  0.81340  0.10950  Biso   1.000  C
  C77      1.0000 0.67840  0.82050  0.15300  Biso   1.000  C
  H63      1.0000 0.65580  0.84840  0.19230  Biso   1.000  H
  C78      1.0000 0.60300  0.78690  0.13820  Biso   1.000  C
  C79      1.0000 0.46860  0.80250  0.25710  Biso   1.000  C
  H64      1.0000 0.52030  0.75730  0.29410  Biso   1.000  H
  H65      1.0000 0.48050  0.85690  0.25150  Biso   1.000  H
  C80      1.0000 0.34660  0.79950  0.29270  Biso   1.000  C
  C81      1.0000 0.86410  0.83630  0.20850  Biso   1.000  C
  H66      1.0000 0.80440  0.88260  0.22200  Biso   1.000  H
  H67      1.0000 0.84420  0.78300  0.24390  Biso   1.000  H
  C82      1.0000 0.97770  0.83660  0.22620  Biso   1.000  C
  C83      1.0000 0.94460  0.76890  0.00180  Biso   1.000  C
  H68      1.0000 0.96330  0.82360  0.98900  Biso   1.000  H
  C84      1.0000 0.02890  0.70110  0.05870  Biso   1.000  C
  H69      1.0000 0.01830  0.71310  0.10950  Biso   1.000  H
  H70      1.0000 0.01540  0.64600  0.07110  Biso   1.000  H
  H71      1.0000 0.10650  0.70130  0.03140  Biso   1.000  H
  C85      1.0000 0.95730  0.75530  0.91950  Biso   1.000  C
  C86      1.0000 0.92190  0.82470  0.84900  Biso   1.000  C
  C87      1.0000 0.93270  0.81380  0.77370  Biso   1.000  C
  H72      1.0000 0.90710  0.85990  0.72770  Biso   1.000  H
  C88      1.0000 0.98280  0.73250  0.76710  Biso   1.000  C
  C89      1.0000 0.01940  0.66190  0.83450  Biso   1.000  C
  C90      1.0000 0.00420  0.67600  0.90920  Biso   1.000  C
  H73      1.0000 0.02680  0.62920  0.95560  Biso   1.000  H
  C91      1.0000 0.07340  0.57610  0.82210  Biso   1.000  C
  H74      1.0000 0.13280  0.58520  0.77320  Biso   1.000  H
  C92      1.0000 0.13420  0.50830  0.89450  Biso   1.000  C
  H75      1.0000 0.18830  0.53020  0.90670  Biso   1.000  H
  H76      1.0000 0.07810  0.49400  0.94280  Biso   1.000  H
  H77      1.0000 0.17440  0.45810  0.87960  Biso   1.000  H
  C93      1.0000 0.99370  0.78310  0.61760  Biso   1.000  C
  H78      1.0000 0.91380  0.81010  0.60870  Biso   1.000  H
  H79      1.0000 0.02880  0.82590  0.61740  Biso   1.000  H
  C94      1.0000 0.05850  0.74540  0.54860  Biso   1.000  C
  C95      1.0000 0.85150  0.97460  0.79110  Biso   1.000  C
  H80      1.0000 0.80790  0.96340  0.75870  Biso   1.000  H
  H81      1.0000 0.80220  0.02120  0.81020  Biso   1.000  H
  C96      1.0000 0.95300  0.00320  0.73540  Biso   1.000  C
  O25      1.0000 0.52400  0.84440  0.92670  Biso   1.000  O
  O26      1.0000 0.37720  0.95260  0.81460  Biso   1.000  O
  O27      1.0000 0.51490  0.01230  0.73330  Biso   1.000  O
  H82      1.0000 0.46600  0.03640  0.70150  Biso   1.000  H
  O28      1.0000 0.62850  0.67350  0.74710  Biso   1.000  O
  O29      1.0000 0.67170  0.85340  0.56960  Biso   1.000  O
  O30      1.0000 0.49220  0.79190  0.17850  Biso   1.000  O
  O31      1.0000 0.31770  0.79090  0.36930  Biso   1.000  O
  O32      1.0000 0.27530  0.80640  0.24890  Biso   1.000  O
  O33      1.0000 0.86780  0.84570  0.12440  Biso   1.000  O
  O34      1.0000 0.99120  0.80440  0.30170  Biso   1.000  O
  O35      1.0000 0.04590  0.86780  0.16990  Biso   1.000  O
  O36      1.0000 0.87600  0.90170  0.86110  Biso   1.000  O
  O37      1.0000 0.92950  0.06530  0.66900  Biso   1.000  O
  O38      1.0000 0.05200  0.96590  0.75400  Biso   1.000  O
  O39      1.0000 0.99970  0.71570  0.69400  Biso   1.000  O
  O40      1.0000 0.05410  0.79690  0.47670  Biso   1.000  O
  O41      1.0000 0.11210  0.66940  0.56890  Biso   1.000  O
  O42      1.0000 0.13490  0.48750  0.70690  Biso   1.000  O
  O43      1.0000 0.15150  0.43240  0.57970  Biso   1.000  O
  O44      1.0000 0.26450  0.30660  0.64080  Biso   1.000  O
  O45      1.0000 0.75640  0.43460  0.76550  Biso   1.000  O
  O46      1.0000 0.81250  0.46960  0.59380  Biso   1.000  O
  O47      1.0000 0.83120  0.33910  0.60550  Biso   1.000  O
  O48      1.0000 0.51090  0.81980  0.64520  Biso   1.000  O
