data_DONNEA_clean
_audit_creation_date              2014-07-02
_audit_creation_method            'Materials Studio'
_symmetry_space_group_name_H-M    'P1'
_symmetry_Int_Tables_number       1
_symmetry_cell_setting            triclinic
loop_
_symmetry_equiv_pos_as_xyz
  x,y,z
_cell_length_a                    6.7261
_cell_length_b                    11.0455
_cell_length_c                    11.0455
_cell_angle_alpha                 119.8960
_cell_angle_beta                  105.9510
_cell_angle_gamma                 74.0486
loop_
_atom_site_label
_atom_site_type_symbol
_atom_site_fract_x
_atom_site_fract_y
_atom_site_fract_z
_atom_site_U_iso_or_equiv
_atom_site_adp_type
_atom_site_occupancy
Ga1    Ga    0.00000   0.00000   0.00000   0.01267  Uiso   1.00
Ga2    Ga    0.50000  -0.00000   0.00000   0.01267  Uiso   1.00
H1     H     0.28280   0.95560   0.59760   0.01267  Uiso   1.00
H2     H     0.84230   0.02360   0.60840   0.01267  Uiso   1.00
H3     H     0.21720   0.59760   0.95560   0.01267  Uiso   1.00
H4     H     0.65770   0.60840   0.02360   0.01267  Uiso   1.00
H5     H     0.71720   0.04440   0.40240   0.01267  Uiso   1.00
H6     H     0.15770   0.97640   0.39160   0.01267  Uiso   1.00
H7     H     0.78280   0.40240   0.04440   0.01267  Uiso   1.00
H8     H     0.34230   0.39160   0.97640   0.01267  Uiso   1.00
H9     H     0.75000   0.15160   0.15160   0.01267  Uiso   1.00
H10    H     0.25000   0.84840   0.84840   0.01267  Uiso   1.00
C1     C     0.65740   0.97320   0.75820   0.01267  Uiso   1.00
C2     C     0.57720   0.98660   0.62400   0.01267  Uiso   1.00
C3     C     0.37080   0.97320   0.55840   0.01267  Uiso   1.00
C4     C     0.70410   0.01380   0.56480   0.01267  Uiso   1.00
C5     C     0.84260   0.75820   0.97320   0.01267  Uiso   1.00
C6     C     0.92280   0.62400   0.98660   0.01267  Uiso   1.00
C7     C     0.12920   0.55840   0.97320   0.01267  Uiso   1.00
C8     C     0.79590   0.56480   0.01380   0.01267  Uiso   1.00
C9     C     0.34260   0.02680   0.24180   0.01267  Uiso   1.00
C10    C     0.42280   0.01340   0.37600   0.01267  Uiso   1.00
C11    C     0.62920   0.02680   0.44160   0.01267  Uiso   1.00
C12    C     0.29590   0.98620   0.43520   0.01267  Uiso   1.00
C13    C     0.15740   0.24180   0.02680   0.01267  Uiso   1.00
C14    C     0.07720   0.37600   0.01340   0.01267  Uiso   1.00
C15    C     0.87080   0.44160   0.02680   0.01267  Uiso   1.00
C16    C     0.20410   0.43520   0.98620   0.01267  Uiso   1.00
O1     O     0.84520   0.98870   0.81330   0.01267  Uiso   1.00
O2     O     0.53180   0.94670   0.80410   0.01267  Uiso   1.00
O3     O     0.65480   0.81330   0.98870   0.01267  Uiso   1.00
O4     O     0.96820   0.80410   0.94670   0.01267  Uiso   1.00
O5     O     0.15480   0.01130   0.18670   0.01267  Uiso   1.00
O6     O     0.46820   0.05330   0.19590   0.01267  Uiso   1.00
O7     O     0.34520   0.18670   0.01130   0.01267  Uiso   1.00
O8     O     0.03180   0.19590   0.05330   0.01267  Uiso   1.00
O9     O     0.75000   0.07850   0.07850   0.01267  Uiso   1.00
O10    O     0.25000   0.92150   0.92150   0.01267  Uiso   1.00
