data_DONNAW01
_audit_creation_date              2015-05-15
_audit_creation_method            'Materials Studio'
_symmetry_space_group_name_H-M    'PNMA'
_symmetry_Int_Tables_number       62
_symmetry_cell_setting            orthorhombic
loop_
_symmetry_equiv_pos_as_xyz
  x,y,z
  -x+1/2,-y,z+1/2
  -x,y+1/2,-z
  x+1/2,-y+1/2,-z+1/2
  -x,-y,-z
  x+1/2,y,-z+1/2
  x,-y+1/2,z
  -x+1/2,y+1/2,z+1/2
_cell_length_a                    17.4370
_cell_length_b                    6.7475
_cell_length_c                    12.1541
_cell_angle_alpha                 90.0000
_cell_angle_beta                  90.0000
_cell_angle_gamma                 90.0000
loop_
_atom_site_label
_atom_site_type_symbol
_atom_site_fract_x
_atom_site_fract_y
_atom_site_fract_z
_atom_site_U_iso_or_equiv
_atom_site_adp_type
_atom_site_occupancy
O1     O     0.92632   0.08300   0.88584   0.00000  Uiso   1.00
O2     O     0.58949   0.08260   0.58860   0.00000  Uiso   1.00
C3     C     0.79127   0.42880   0.76510   0.00000  Uiso   1.00
H4     H     0.81190   0.56610   0.79890   0.00000  Uiso   1.00
C5     C     0.72605   0.42740   0.69950   0.00000  Uiso   1.00
H6     H     0.70210   0.56470   0.67040   0.00000  Uiso   1.00
H7     H     0.50640   0.75000   0.65568   0.00000  Uiso   1.00
Ga8    Ga    1.00000   0.00000   1.00000   0.00000  Uiso   1.00
O9     O     0.99360   0.25000   1.07340   0.00000  Uiso   1.00
C10    C     0.82814   0.25000   0.79140   0.00000  Uiso   1.00
C11    C     0.89907   0.25000   0.86000   0.00000  Uiso   1.00
C12    C     0.69218   0.25000   0.67120   0.00000  Uiso   1.00
C13    C     0.61762   0.25000   0.61080   0.00000  Uiso   1.00
loop_
_geom_bond_atom_site_label_1
_geom_bond_atom_site_label_2
_geom_bond_distance
_geom_bond_site_symmetry_2
_ccdc_geom_bond_type
O1     Ga8     1.972   .     S
O1     C11     1.263   .     A
O2     C13     1.261   .     A
O2     Ga8     1.976   2_654 S
C3     H4      1.075   .     S
C3     C5      1.389   .     A
C3     C10     1.404   .     A
C5     H6      1.076   .     S
C5     C12     1.378   .     A
H7     O9      1.000   2_664 S
Ga8    O1      1.972   5_757 S
Ga8    O9      1.912   .     S
Ga8    O9      1.912   3_747 S
Ga8    O2      1.976   2_655 S
Ga8    O2      1.976   6_556 S
O9     Ga8     1.912   3_757 S
O9     H7      1.000   2_665 S
O9     H7      1.000   8_645 S
C10    C3      1.404   7     A
C10    C11     1.492   .     S
C11    O1      1.263   7     A
C12    C5      1.378   7     A
C12    C13     1.493   .     S
C13    O2      1.261   7     A
