data_image0
_cell_length_a       16.842
_cell_length_b       16.835
_cell_length_c       20.258
_cell_angle_alpha    90
_cell_angle_beta     90
_cell_angle_gamma    90

_symmetry_space_group_name_H-M    "P 1"
_symmetry_int_tables_number       1

loop_
  _symmetry_equiv_pos_as_xyz
  'x, y, z'

loop_
  _atom_site_label
  _atom_site_occupancy
  _atom_site_fract_x
  _atom_site_fract_y
  _atom_site_fract_z
  _atom_site_thermal_displace_type
  _atom_site_B_iso_or_equiv
  _atom_site_type_symbol
  Co1      1.0000 0.14628  0.69805  0.50070  Biso   1.000  Co
  Co2      1.0000 0.05003  0.61359  0.75985  Biso   1.000  Co
  Co3      1.0000 0.13006  0.74491  0.00155  Biso   1.000  Co
  Co4      1.0000 0.03779  0.63205  0.24236  Biso   1.000  Co
  N1       1.0000 0.08260  0.80380  0.51670  Biso   1.000  N
  N2       1.0000 0.01500  0.91610  0.49000  Biso   1.000  N
  H1       1.0000 0.99190  0.95150  0.46540  Biso   1.000  H
  N3       1.0000 0.99550  0.99940  0.72590  Biso   1.000  N
  N4       1.0000 0.05260  0.88110  0.75450  Biso   1.000  N
  H2       1.0000 0.07080  0.84320  0.77940  Biso   1.000  H
  N5       1.0000 0.95150  0.68180  0.78110  Biso   1.000  N
  N6       1.0000 0.84050  0.74760  0.75520  Biso   1.000  N
  H3       1.0000 0.80480  0.77140  0.73130  Biso   1.000  H
  N7       1.0000 0.74020  0.72170  0.98700  Biso   1.000  N
  N8       1.0000 0.85600  0.66730  0.01490  Biso   1.000  N
  H4       1.0000 0.89230  0.64590  0.03970  Biso   1.000  H
  N9       1.0000 0.94690  0.70660  0.25720  Biso   1.000  N
  N10      1.0000 0.83210  0.76140  0.23480  Biso   1.000  N
  H5       1.0000 0.79320  0.78110  0.21180  Biso   1.000  H
  N11      1.0000 0.76250  0.76950  0.47560  Biso   1.000  N
  N12      1.0000 0.88090  0.71630  0.49790  Biso   1.000  N
  H6       1.0000 0.92000  0.69640  0.52060  Biso   1.000  H
  N13      1.0000 0.99850  0.52010  0.25390  Biso   1.000  N
  N14      1.0000 0.93110  0.40960  0.23470  Biso   1.000  N
  H7       1.0000 0.90580  0.37290  0.21300  Biso   1.000  H
  N15      1.0000 0.94230  0.33060  0.47350  Biso   1.000  N
  N16      1.0000 0.01130  0.44120  0.49140  Biso   1.000  N
  H8       1.0000 0.03770  0.47700  0.51320  Biso   1.000  H
  C1       1.0000 0.05120  0.84670  0.46920  Biso   1.000  C
  H9       1.0000 0.05320  0.83150  0.42460  Biso   1.000  H
  C2       1.0000 0.02130  0.95220  0.77550  Biso   1.000  C
  H10      1.0000 0.01820  0.96670  0.82020  Biso   1.000  H
  C3       1.0000 0.90890  0.72080  0.73390  Biso   1.000  C
  H11      1.0000 0.92690  0.72770  0.69040  Biso   1.000  H
  C4       1.0000 0.78470  0.69070  0.03370  Biso   1.000  C
  H12      1.0000 0.76700  0.68560  0.07750  Biso   1.000  H
  C5       1.0000 0.89810  0.73230  0.21070  Biso   1.000  C
  H13      1.0000 0.90960  0.72990  0.16540  Biso   1.000  H
  C6       1.0000 0.81180  0.74430  0.52280  Biso   1.000  C
  H14      1.0000 0.79990  0.74590  0.56810  Biso   1.000  H
  C7       1.0000 0.95740  0.47690  0.20900  Biso   1.000  C
  H15      1.0000 0.94860  0.49280  0.16510  Biso   1.000  H
  C8       1.0000 0.97660  0.37390  0.51890  Biso   1.000  C
  H16      1.0000 0.97770  0.36130  0.56410  Biso   1.000  H
  C9       1.0000 0.02320  0.91780  0.55810  Biso   1.000  C
  C10      1.0000 0.06210  0.84490  0.57540  Biso   1.000  C
  C11      1.0000 0.07590  0.82620  0.64110  Biso   1.000  C
  H17      1.0000 0.10140  0.77910  0.65400  Biso   1.000  H
  C12      1.0000 0.04950  0.88170  0.68590  Biso   1.000  C
  C13      1.0000 0.01330  0.95440  0.66840  Biso   1.000  C
  C14      1.0000 0.99530  0.97310  0.60310  Biso   1.000  C
  H18      1.0000 0.96690  0.01890  0.59070  Biso   1.000  H
  C15      1.0000 0.83480  0.73200  0.82090  Biso   1.000  C
  C16      1.0000 0.90680  0.69220  0.83730  Biso   1.000  C
  C17      1.0000 0.92230  0.67180  0.90240  Biso   1.000  C
  H19      1.0000 0.97170  0.65090  0.91540  Biso   1.000  H
  C18      1.0000 0.86180  0.68370  0.94710  Biso   1.000  C
  C19      1.0000 0.78790  0.72020  0.92970  Biso   1.000  C
  C20      1.0000 0.77340  0.74690  0.86620  Biso   1.000  C
  H20      1.0000 0.72620  0.77290  0.85430  Biso   1.000  H
  C21      1.0000 0.83450  0.75560  0.30360  Biso   1.000  C
  C22      1.0000 0.90840  0.71900  0.31720  Biso   1.000  C
  C23      1.0000 0.93240  0.70530  0.38200  Biso   1.000  C
  H21      1.0000 0.98250  0.68400  0.39240  Biso   1.000  H
  C24      1.0000 0.87810  0.72500  0.42970  Biso   1.000  C
  C25      1.0000 0.80250  0.76080  0.41590  Biso   1.000  C
  C26      1.0000 0.78010  0.77720  0.35250  Biso   1.000  C
  H22      1.0000 0.73130  0.80140  0.34240  Biso   1.000  H
  C27      1.0000 0.99220  0.47740  0.31410  Biso   1.000  C
  C28      1.0000 0.94950  0.40600  0.30050  Biso   1.000  C
  C29      1.0000 0.92930  0.34930  0.34790  Biso   1.000  C
  H23      1.0000 0.89990  0.30310  0.33870  Biso   1.000  H
  C30      1.0000 0.95770  0.36910  0.41100  Biso   1.000  C
  C31      1.0000 0.99720  0.44250  0.42390  Biso   1.000  C
  C32      1.0000 0.01810  0.49590  0.37630  Biso   1.000  C
  H24      1.0000 0.04800  0.54170  0.38550  Biso   1.000  H
  S1       1.0000 0.05316  0.60506  0.59898  Biso   1.000  S
  S2       1.0000 0.14197  0.70217  0.85309  Biso   1.000  S
  S3       1.0000 0.16410  0.70492  0.33603  Biso   1.000  S
  S4       1.0000 0.06397  0.60658  0.09428  Biso   1.000  S
  O1       1.0000 0.12630  0.65350  0.59280  Biso   1.000  O
  O2       1.0000 0.01600  0.62330  0.66260  Biso   1.000  O
  O3       1.0000 0.00110  0.62620  0.54390  Biso   1.000  O
  O4       1.0000 0.07180  0.51800  0.59730  Biso   1.000  O
  O5       1.0000 0.09890  0.62370  0.85640  Biso   1.000  O
  O6       1.0000 0.11140  0.75670  0.90540  Biso   1.000  O
  O7       1.0000 0.12650  0.73850  0.78880  Biso   1.000  O
  O8       1.0000 0.22590  0.68940  0.86320  Biso   1.000  O
  O9       1.0000 0.11300  0.64240  0.04010  Biso   1.000  O
  O10      1.0000 0.09440  0.63950  0.15810  Biso   1.000  O
  O11      1.0000 0.07520  0.51980  0.09350  Biso   1.000  O
  O12      1.0000 0.97990  0.62910  0.09160  Biso   1.000  O
  O13      1.0000 0.11250  0.63650  0.31390  Biso   1.000  O
  O14      1.0000 0.13920  0.72920  0.40330  Biso   1.000  O
  O15      1.0000 0.24710  0.68050  0.33640  Biso   1.000  O
  O16      1.0000 0.15260  0.77170  0.29010  Biso   1.000  O
  Co5      1.0000 0.35372  0.30195  0.00070  Biso   1.000  Co
  Co6      1.0000 0.44997  0.38641  0.25985  Biso   1.000  Co
  Co7      1.0000 0.36994  0.25509  0.50155  Biso   1.000  Co
  Co8      1.0000 0.46221  0.36795  0.74236  Biso   1.000  Co
  N17      1.0000 0.41740  0.19620  0.01670  Biso   1.000  N
  N18      1.0000 0.48500  0.08390  0.99000  Biso   1.000  N
  H25      1.0000 0.50810  0.04850  0.96540  Biso   1.000  H
  N19      1.0000 0.50450  0.00060  0.22590  Biso   1.000  N
  N20      1.0000 0.44740  0.11890  0.25450  Biso   1.000  N
  H26      1.0000 0.42920  0.15680  0.27940  Biso   1.000  H
  N21      1.0000 0.54850  0.31820  0.28110  Biso   1.000  N
  N22      1.0000 0.65950  0.25240  0.25520  Biso   1.000  N
  H27      1.0000 0.69520  0.22860  0.23130  Biso   1.000  H
  N23      1.0000 0.75980  0.27830  0.48700  Biso   1.000  N
  N24      1.0000 0.64400  0.33270  0.51490  Biso   1.000  N
  H28      1.0000 0.60770  0.35410  0.53970  Biso   1.000  H
  N25      1.0000 0.55310  0.29340  0.75720  Biso   1.000  N
  N26      1.0000 0.66790  0.23860  0.73480  Biso   1.000  N
  H29      1.0000 0.70680  0.21890  0.71180  Biso   1.000  H
  N27      1.0000 0.73750  0.23050  0.97560  Biso   1.000  N
  N28      1.0000 0.61910  0.28370  0.99790  Biso   1.000  N
  H30      1.0000 0.58000  0.30360  0.02060  Biso   1.000  H
  N29      1.0000 0.50150  0.47990  0.75390  Biso   1.000  N
  N30      1.0000 0.56890  0.59040  0.73470  Biso   1.000  N
  H31      1.0000 0.59420  0.62710  0.71300  Biso   1.000  H
  N31      1.0000 0.55770  0.66940  0.97350  Biso   1.000  N
  N32      1.0000 0.48870  0.55880  0.99140  Biso   1.000  N
  H32      1.0000 0.46230  0.52300  0.01320  Biso   1.000  H
  C33      1.0000 0.44880  0.15330  0.96920  Biso   1.000  C
  H33      1.0000 0.44680  0.16850  0.92460  Biso   1.000  H
  C34      1.0000 0.47870  0.04780  0.27550  Biso   1.000  C
  H34      1.0000 0.48180  0.03330  0.32020  Biso   1.000  H
  C35      1.0000 0.59110  0.27920  0.23390  Biso   1.000  C
  H35      1.0000 0.57310  0.27230  0.19040  Biso   1.000  H
  C36      1.0000 0.71530  0.30930  0.53370  Biso   1.000  C
  H36      1.0000 0.73300  0.31440  0.57750  Biso   1.000  H
  C37      1.0000 0.60190  0.26770  0.71070  Biso   1.000  C
  H37      1.0000 0.59040  0.27010  0.66540  Biso   1.000  H
  C38      1.0000 0.68820  0.25570  0.02280  Biso   1.000  C
  H38      1.0000 0.70010  0.25410  0.06810  Biso   1.000  H
  C39      1.0000 0.54260  0.52310  0.70900  Biso   1.000  C
  H39      1.0000 0.55140  0.50720  0.66510  Biso   1.000  H
  C40      1.0000 0.52340  0.62610  0.01890  Biso   1.000  C
  H40      1.0000 0.52230  0.63870  0.06410  Biso   1.000  H
  C41      1.0000 0.47680  0.08220  0.05810  Biso   1.000  C
  C42      1.0000 0.43790  0.15510  0.07540  Biso   1.000  C
  C43      1.0000 0.42410  0.17380  0.14110  Biso   1.000  C
  H41      1.0000 0.39860  0.22090  0.15400  Biso   1.000  H
  C44      1.0000 0.45050  0.11830  0.18590  Biso   1.000  C
  C45      1.0000 0.48670  0.04560  0.16840  Biso   1.000  C
  C46      1.0000 0.50470  0.02690  0.10310  Biso   1.000  C
  H42      1.0000 0.53310  0.98110  0.09070  Biso   1.000  H
  C47      1.0000 0.66520  0.26800  0.32090  Biso   1.000  C
  C48      1.0000 0.59320  0.30780  0.33730  Biso   1.000  C
  C49      1.0000 0.57770  0.32820  0.40240  Biso   1.000  C
  H43      1.0000 0.52830  0.34910  0.41540  Biso   1.000  H
  C50      1.0000 0.63820  0.31630  0.44710  Biso   1.000  C
  C51      1.0000 0.71210  0.27980  0.42970  Biso   1.000  C
  C52      1.0000 0.72660  0.25310  0.36620  Biso   1.000  C
  H44      1.0000 0.77380  0.22710  0.35430  Biso   1.000  H
  C53      1.0000 0.66550  0.24440  0.80360  Biso   1.000  C
  C54      1.0000 0.59160  0.28100  0.81720  Biso   1.000  C
  C55      1.0000 0.56760  0.29470  0.88200  Biso   1.000  C
  H45      1.0000 0.51750  0.31600  0.89240  Biso   1.000  H
  C56      1.0000 0.62190  0.27500  0.92970  Biso   1.000  C
  C57      1.0000 0.69750  0.23920  0.91590  Biso   1.000  C
  C58      1.0000 0.71990  0.22280  0.85250  Biso   1.000  C
  H46      1.0000 0.76870  0.19860  0.84240  Biso   1.000  H
  C59      1.0000 0.50780  0.52260  0.81410  Biso   1.000  C
  C60      1.0000 0.55050  0.59400  0.80050  Biso   1.000  C
  C61      1.0000 0.57070  0.65070  0.84790  Biso   1.000  C
  H47      1.0000 0.60010  0.69690  0.83870  Biso   1.000  H
  C62      1.0000 0.54230  0.63090  0.91100  Biso   1.000  C
  C63      1.0000 0.50280  0.55750  0.92390  Biso   1.000  C
  C64      1.0000 0.48190  0.50410  0.87630  Biso   1.000  C
  H48      1.0000 0.45200  0.45830  0.88550  Biso   1.000  H
  S5       1.0000 0.44684  0.39494  0.09898  Biso   1.000  S
  S6       1.0000 0.35803  0.29783  0.35309  Biso   1.000  S
  S7       1.0000 0.33590  0.29508  0.83603  Biso   1.000  S
  S8       1.0000 0.43603  0.39342  0.59428  Biso   1.000  S
  O17      1.0000 0.37370  0.34650  0.09280  Biso   1.000  O
  O18      1.0000 0.48400  0.37670  0.16260  Biso   1.000  O
  O19      1.0000 0.49890  0.37380  0.04390  Biso   1.000  O
  O20      1.0000 0.42820  0.48200  0.09730  Biso   1.000  O
  O21      1.0000 0.40110  0.37630  0.35640  Biso   1.000  O
  O22      1.0000 0.38860  0.24330  0.40540  Biso   1.000  O
  O23      1.0000 0.37350  0.26150  0.28880  Biso   1.000  O
  O24      1.0000 0.27410  0.31060  0.36320  Biso   1.000  O
  O25      1.0000 0.38700  0.35760  0.54010  Biso   1.000  O
  O26      1.0000 0.40560  0.36050  0.65810  Biso   1.000  O
  O27      1.0000 0.42480  0.48020  0.59350  Biso   1.000  O
  O28      1.0000 0.52010  0.37090  0.59160  Biso   1.000  O
  O29      1.0000 0.38750  0.36350  0.81390  Biso   1.000  O
  O30      1.0000 0.36080  0.27080  0.90330  Biso   1.000  O
  O31      1.0000 0.25290  0.31950  0.83640  Biso   1.000  O
  O32      1.0000 0.34740  0.22830  0.79010  Biso   1.000  O
  Co9      1.0000 0.85372  0.19805  0.99930  Biso   1.000  Co
  Co10     1.0000 0.94997  0.11359  0.74015  Biso   1.000  Co
  Co11     1.0000 0.86994  0.24491  0.49845  Biso   1.000  Co
  Co12     1.0000 0.96221  0.13205  0.25764  Biso   1.000  Co
  N33      1.0000 0.91740  0.30380  0.98330  Biso   1.000  N
  N34      1.0000 0.98500  0.41610  0.01000  Biso   1.000  N
  H49      1.0000 0.00810  0.45150  0.03460  Biso   1.000  H
  N35      1.0000 0.00450  0.49940  0.77410  Biso   1.000  N
  N36      1.0000 0.94740  0.38110  0.74550  Biso   1.000  N
  H50      1.0000 0.92920  0.34320  0.72060  Biso   1.000  H
  N37      1.0000 0.04850  0.18180  0.71890  Biso   1.000  N
  N38      1.0000 0.15950  0.24760  0.74480  Biso   1.000  N
  H51      1.0000 0.19520  0.27140  0.76870  Biso   1.000  H
  N39      1.0000 0.25980  0.22170  0.51300  Biso   1.000  N
  N40      1.0000 0.14400  0.16730  0.48510  Biso   1.000  N
  H52      1.0000 0.10770  0.14590  0.46030  Biso   1.000  H
  N41      1.0000 0.05310  0.20660  0.24280  Biso   1.000  N
  N42      1.0000 0.16790  0.26140  0.26520  Biso   1.000  N
  H53      1.0000 0.20680  0.28110  0.28820  Biso   1.000  H
  N43      1.0000 0.23750  0.26950  0.02440  Biso   1.000  N
  N44      1.0000 0.11910  0.21630  0.00210  Biso   1.000  N
  H54      1.0000 0.08000  0.19640  0.97940  Biso   1.000  H
  N45      1.0000 0.00150  0.02010  0.24610  Biso   1.000  N
  N46      1.0000 0.06890  0.90960  0.26530  Biso   1.000  N
  H55      1.0000 0.09420  0.87290  0.28700  Biso   1.000  H
  N47      1.0000 0.05770  0.83060  0.02650  Biso   1.000  N
  N48      1.0000 0.98870  0.94120  0.00860  Biso   1.000  N
  H56      1.0000 0.96230  0.97700  0.98680  Biso   1.000  H
  C65      1.0000 0.94880  0.34670  0.03080  Biso   1.000  C
  H57      1.0000 0.94680  0.33150  0.07540  Biso   1.000  H
  C66      1.0000 0.97870  0.45220  0.72450  Biso   1.000  C
  H58      1.0000 0.98180  0.46670  0.67980  Biso   1.000  H
  C67      1.0000 0.09110  0.22080  0.76610  Biso   1.000  C
  H59      1.0000 0.07310  0.22770  0.80960  Biso   1.000  H
  C68      1.0000 0.21530  0.19070  0.46630  Biso   1.000  C
  H60      1.0000 0.23300  0.18560  0.42250  Biso   1.000  H
  C69      1.0000 0.10190  0.23230  0.28930  Biso   1.000  C
  H61      1.0000 0.09040  0.22990  0.33460  Biso   1.000  H
  C70      1.0000 0.18820  0.24430  0.97720  Biso   1.000  C
  H62      1.0000 0.20010  0.24590  0.93190  Biso   1.000  H
  C71      1.0000 0.04260  0.97690  0.29100  Biso   1.000  C
  H63      1.0000 0.05140  0.99280  0.33490  Biso   1.000  H
  C72      1.0000 0.02340  0.87390  0.98110  Biso   1.000  C
  H64      1.0000 0.02230  0.86130  0.93590  Biso   1.000  H
  C73      1.0000 0.97680  0.41780  0.94190  Biso   1.000  C
  C74      1.0000 0.93790  0.34490  0.92460  Biso   1.000  C
  C75      1.0000 0.92410  0.32620  0.85890  Biso   1.000  C
  H65      1.0000 0.89860  0.27910  0.84600  Biso   1.000  H
  C76      1.0000 0.95050  0.38170  0.81410  Biso   1.000  C
  C77      1.0000 0.98670  0.45440  0.83160  Biso   1.000  C
  C78      1.0000 0.00470  0.47310  0.89690  Biso   1.000  C
  H66      1.0000 0.03310  0.51890  0.90930  Biso   1.000  H
  C79      1.0000 0.16520  0.23200  0.67910  Biso   1.000  C
  C80      1.0000 0.09320  0.19220  0.66270  Biso   1.000  C
  C81      1.0000 0.07770  0.17180  0.59760  Biso   1.000  C
  H67      1.0000 0.02830  0.15090  0.58460  Biso   1.000  H
  C82      1.0000 0.13820  0.18370  0.55290  Biso   1.000  C
  C83      1.0000 0.21210  0.22020  0.57030  Biso   1.000  C
  C84      1.0000 0.22660  0.24690  0.63380  Biso   1.000  C
  H68      1.0000 0.27380  0.27290  0.64570  Biso   1.000  H
  C85      1.0000 0.16550  0.25560  0.19640  Biso   1.000  C
  C86      1.0000 0.09160  0.21900  0.18280  Biso   1.000  C
  C87      1.0000 0.06760  0.20530  0.11800  Biso   1.000  C
  H69      1.0000 0.01750  0.18400  0.10760  Biso   1.000  H
  C88      1.0000 0.12190  0.22500  0.07030  Biso   1.000  C
  C89      1.0000 0.19750  0.26080  0.08410  Biso   1.000  C
  C90      1.0000 0.21990  0.27720  0.14750  Biso   1.000  C
  H70      1.0000 0.26870  0.30140  0.15760  Biso   1.000  H
  C91      1.0000 0.00780  0.97740  0.18590  Biso   1.000  C
  C92      1.0000 0.05050  0.90600  0.19950  Biso   1.000  C
  C93      1.0000 0.07070  0.84930  0.15210  Biso   1.000  C
  H71      1.0000 0.10010  0.80310  0.16130  Biso   1.000  H
  C94      1.0000 0.04230  0.86910  0.08900  Biso   1.000  C
  C95      1.0000 0.00280  0.94250  0.07610  Biso   1.000  C
  C96      1.0000 0.98190  0.99590  0.12370  Biso   1.000  C
  H72      1.0000 0.95200  0.04170  0.11450  Biso   1.000  H
  S9       1.0000 0.94684  0.10506  0.90102  Biso   1.000  S
  S10      1.0000 0.85803  0.20217  0.64691  Biso   1.000  S
  S11      1.0000 0.83590  0.20492  0.16397  Biso   1.000  S
  S12      1.0000 0.93603  0.10658  0.40572  Biso   1.000  S
  O33      1.0000 0.87370  0.15350  0.90720  Biso   1.000  O
  O34      1.0000 0.98400  0.12330  0.83740  Biso   1.000  O
  O35      1.0000 0.99890  0.12620  0.95610  Biso   1.000  O
  O36      1.0000 0.92820  0.01800  0.90270  Biso   1.000  O
  O37      1.0000 0.90110  0.12370  0.64360  Biso   1.000  O
  O38      1.0000 0.88860  0.25670  0.59460  Biso   1.000  O
  O39      1.0000 0.87350  0.23850  0.71120  Biso   1.000  O
  O40      1.0000 0.77410  0.18940  0.63680  Biso   1.000  O
  O41      1.0000 0.88700  0.14240  0.45990  Biso   1.000  O
  O42      1.0000 0.90560  0.13950  0.34190  Biso   1.000  O
  O43      1.0000 0.92480  0.01980  0.40650  Biso   1.000  O
  O44      1.0000 0.02010  0.12910  0.40840  Biso   1.000  O
  O45      1.0000 0.88750  0.13650  0.18610  Biso   1.000  O
  O46      1.0000 0.86080  0.22920  0.09670  Biso   1.000  O
  O47      1.0000 0.75290  0.18050  0.16360  Biso   1.000  O
  O48      1.0000 0.84740  0.27170  0.20990  Biso   1.000  O
  Co13     1.0000 0.64628  0.80195  0.49930  Biso   1.000  Co
  Co14     1.0000 0.55003  0.88641  0.24015  Biso   1.000  Co
  Co15     1.0000 0.63006  0.75509  0.99845  Biso   1.000  Co
  Co16     1.0000 0.53779  0.86795  0.75764  Biso   1.000  Co
  N49      1.0000 0.58260  0.69620  0.48330  Biso   1.000  N
  N50      1.0000 0.51500  0.58390  0.51000  Biso   1.000  N
  H73      1.0000 0.49190  0.54850  0.53460  Biso   1.000  H
  N51      1.0000 0.49550  0.50060  0.27410  Biso   1.000  N
  N52      1.0000 0.55260  0.61890  0.24550  Biso   1.000  N
  H74      1.0000 0.57080  0.65680  0.22060  Biso   1.000  H
  N53      1.0000 0.45150  0.81820  0.21890  Biso   1.000  N
  N54      1.0000 0.34050  0.75240  0.24480  Biso   1.000  N
  H75      1.0000 0.30480  0.72860  0.26870  Biso   1.000  H
  N55      1.0000 0.24020  0.77830  0.01300  Biso   1.000  N
  N56      1.0000 0.35600  0.83270  0.98510  Biso   1.000  N
  H76      1.0000 0.39230  0.85410  0.96030  Biso   1.000  H
  N57      1.0000 0.44690  0.79340  0.74280  Biso   1.000  N
  N58      1.0000 0.33210  0.73860  0.76520  Biso   1.000  N
  H77      1.0000 0.29320  0.71890  0.78820  Biso   1.000  H
  N59      1.0000 0.26250  0.73050  0.52440  Biso   1.000  N
  N60      1.0000 0.38090  0.78370  0.50210  Biso   1.000  N
  H78      1.0000 0.42000  0.80360  0.47940  Biso   1.000  H
  N61      1.0000 0.49850  0.97990  0.74610  Biso   1.000  N
  N62      1.0000 0.43110  0.09040  0.76530  Biso   1.000  N
  H79      1.0000 0.40580  0.12710  0.78700  Biso   1.000  H
  N63      1.0000 0.44230  0.16940  0.52650  Biso   1.000  N
  N64      1.0000 0.51130  0.05880  0.50860  Biso   1.000  N
  H80      1.0000 0.53770  0.02300  0.48680  Biso   1.000  H
  C97      1.0000 0.55120  0.65330  0.53080  Biso   1.000  C
  H81      1.0000 0.55320  0.66850  0.57540  Biso   1.000  H
  C98      1.0000 0.52130  0.54780  0.22450  Biso   1.000  C
  H82      1.0000 0.51820  0.53330  0.17980  Biso   1.000  H
  C99      1.0000 0.40890  0.77920  0.26610  Biso   1.000  C
  H83      1.0000 0.42690  0.77230  0.30960  Biso   1.000  H
  C100     1.0000 0.28470  0.80930  0.96630  Biso   1.000  C
  H84      1.0000 0.26700  0.81440  0.92250  Biso   1.000  H
  C101     1.0000 0.39810  0.76770  0.78930  Biso   1.000  C
  H85      1.0000 0.40960  0.77010  0.83460  Biso   1.000  H
  C102     1.0000 0.31180  0.75570  0.47720  Biso   1.000  C
  H86      1.0000 0.29990  0.75410  0.43190  Biso   1.000  H
  C103     1.0000 0.45740  0.02310  0.79100  Biso   1.000  C
  H87      1.0000 0.44860  0.00720  0.83490  Biso   1.000  H
  C104     1.0000 0.47660  0.12610  0.48110  Biso   1.000  C
  H88      1.0000 0.47770  0.13870  0.43590  Biso   1.000  H
  C105     1.0000 0.52320  0.58220  0.44190  Biso   1.000  C
  C106     1.0000 0.56210  0.65510  0.42460  Biso   1.000  C
  C107     1.0000 0.57590  0.67380  0.35890  Biso   1.000  C
  H89      1.0000 0.60140  0.72090  0.34600  Biso   1.000  H
  C108     1.0000 0.54950  0.61830  0.31410  Biso   1.000  C
  C109     1.0000 0.51330  0.54560  0.33160  Biso   1.000  C
  C110     1.0000 0.49530  0.52690  0.39690  Biso   1.000  C
  H90      1.0000 0.46690  0.48110  0.40930  Biso   1.000  H
  C111     1.0000 0.33480  0.76800  0.17910  Biso   1.000  C
  C112     1.0000 0.40680  0.80780  0.16270  Biso   1.000  C
  C113     1.0000 0.42230  0.82820  0.09760  Biso   1.000  C
  H91      1.0000 0.47170  0.84910  0.08460  Biso   1.000  H
  C114     1.0000 0.36180  0.81630  0.05290  Biso   1.000  C
  C115     1.0000 0.28790  0.77980  0.07030  Biso   1.000  C
  C116     1.0000 0.27340  0.75310  0.13380  Biso   1.000  C
  H92      1.0000 0.22620  0.72710  0.14570  Biso   1.000  H
  C117     1.0000 0.33450  0.74440  0.69640  Biso   1.000  C
  C118     1.0000 0.40840  0.78100  0.68280  Biso   1.000  C
  C119     1.0000 0.43240  0.79470  0.61800  Biso   1.000  C
  H93      1.0000 0.48250  0.81600  0.60760  Biso   1.000  H
  C120     1.0000 0.37810  0.77500  0.57030  Biso   1.000  C
  C121     1.0000 0.30250  0.73920  0.58410  Biso   1.000  C
  C122     1.0000 0.28010  0.72280  0.64750  Biso   1.000  C
  H94      1.0000 0.23130  0.69860  0.65760  Biso   1.000  H
  C123     1.0000 0.49220  0.02260  0.68590  Biso   1.000  C
  C124     1.0000 0.44950  0.09400  0.69950  Biso   1.000  C
  C125     1.0000 0.42930  0.15070  0.65210  Biso   1.000  C
  H95      1.0000 0.39990  0.19690  0.66130  Biso   1.000  H
  C126     1.0000 0.45770  0.13090  0.58900  Biso   1.000  C
  C127     1.0000 0.49720  0.05750  0.57610  Biso   1.000  C
  C128     1.0000 0.51810  0.00410  0.62370  Biso   1.000  C
  H96      1.0000 0.54800  0.95830  0.61450  Biso   1.000  H
  S13      1.0000 0.55316  0.89494  0.40102  Biso   1.000  S
  S14      1.0000 0.64197  0.79783  0.14691  Biso   1.000  S
  S15      1.0000 0.66410  0.79508  0.66397  Biso   1.000  S
  S16      1.0000 0.56397  0.89342  0.90572  Biso   1.000  S
  O49      1.0000 0.62630  0.84650  0.40720  Biso   1.000  O
  O50      1.0000 0.51600  0.87670  0.33740  Biso   1.000  O
  O51      1.0000 0.50110  0.87380  0.45610  Biso   1.000  O
  O52      1.0000 0.57180  0.98200  0.40270  Biso   1.000  O
  O53      1.0000 0.59890  0.87630  0.14360  Biso   1.000  O
  O54      1.0000 0.61140  0.74330  0.09460  Biso   1.000  O
  O55      1.0000 0.62650  0.76150  0.21120  Biso   1.000  O
  O56      1.0000 0.72590  0.81060  0.13680  Biso   1.000  O
  O57      1.0000 0.61300  0.85760  0.95990  Biso   1.000  O
  O58      1.0000 0.59440  0.86050  0.84190  Biso   1.000  O
  O59      1.0000 0.57520  0.98020  0.90650  Biso   1.000  O
  O60      1.0000 0.47990  0.87090  0.90840  Biso   1.000  O
  O61      1.0000 0.61250  0.86350  0.68610  Biso   1.000  O
  O62      1.0000 0.63920  0.77080  0.59670  Biso   1.000  O
  O63      1.0000 0.74710  0.81950  0.66360  Biso   1.000  O
  O64      1.0000 0.65260  0.72830  0.70990  Biso   1.000  O
