data_image0
_cell_length_a       17.53
_cell_length_b       20.037
_cell_length_c       21.05
_cell_angle_alpha    90
_cell_angle_beta     90
_cell_angle_gamma    90

_symmetry_space_group_name_H-M    "P 1"
_symmetry_int_tables_number       1

loop_
  _symmetry_equiv_pos_as_xyz
  'x, y, z'

loop_
  _atom_site_label
  _atom_site_occupancy
  _atom_site_fract_x
  _atom_site_fract_y
  _atom_site_fract_z
  _atom_site_thermal_displace_type
  _atom_site_B_iso_or_equiv
  _atom_site_type_symbol
  Cu1      1.0000 0.13370  0.58833  0.04910  Biso   1.000  Cu
  Cu2      1.0000 0.97701  0.66596  0.06968  Biso   1.000  Cu
  O1       1.0000 0.11256  0.43425  0.89130  Biso   1.000  O
  O2       1.0000 0.30639  0.82026  0.97720  Biso   1.000  O
  O3       1.0000 0.43340  0.69840  0.85500  Biso   1.000  O
  O4       1.0000 0.07029  0.56458  0.97508  Biso   1.000  O
  O5       1.0000 0.96550  0.62929  0.98489  Biso   1.000  O
  O6       1.0000 0.37110  0.69180  0.62520  Biso   1.000  O
  O7       1.0000 0.39860  0.81603  0.04809  Biso   1.000  O
  O8       1.0000 0.05800  0.61316  0.75379  Biso   1.000  O
  O9       1.0000 0.98750  0.41866  0.89306  Biso   1.000  O
  N1       1.0000 0.28510  0.61440  0.59703  Biso   1.000  N
  O10      1.0000 0.17730  0.49957  0.44747  Biso   1.000  O
  O11      1.0000 0.40130  0.56330  0.46408  Biso   1.000  O
  O12      1.0000 0.43240  0.56660  0.07078  Biso   1.000  O
  O13      1.0000 0.41220  0.54150  0.56824  Biso   1.000  O
  O14      1.0000 0.44640  0.59377  0.96886  Biso   1.000  O
  C1       1.0000 0.31020  0.66950  0.81730  Biso   1.000  C
  C2       1.0000 0.97830  0.56730  0.89150  Biso   1.000  C
  O15      1.0000 0.24110  0.48400  0.53730  Biso   1.000  O
  N2       1.0000 0.10330  0.55700  0.84002  Biso   1.000  N
  C3       1.0000 0.23750  0.64500  0.83060  Biso   1.000  C
  C4       1.0000 0.21310  0.63260  0.71810  Biso   1.000  C
  C5       1.0000 0.35940  0.78980  0.00260  Biso   1.000  C
  N3       1.0000 0.33840  0.69760  0.92591  Biso   1.000  N
  C6       1.0000 0.31600  0.65490  0.63860  Biso   1.000  C
  C7       1.0000 0.36590  0.69090  0.86820  Biso   1.000  C
  C8       1.0000 0.22110  0.51910  0.49210  Biso   1.000  C
  C9       1.0000 0.04710  0.45440  0.88226  Biso   1.000  C
  C10      1.0000 0.18930  0.62740  0.78090  Biso   1.000  C
  C11      1.0000 0.28740  0.65280  0.70520  Biso   1.000  C
  C12      1.0000 0.33500  0.67320  0.75460  Biso   1.000  C
  C13      1.0000 0.38010  0.56750  0.52150  Biso   1.000  C
  C14      1.0000 0.11080  0.59950  0.79120  Biso   1.000  C
  C15      1.0000 0.03180  0.52350  0.85300  Biso   1.000  C
  C16      1.0000 0.30890  0.61230  0.53070  Biso   1.000  C
  C17      1.0000 0.42350  0.60400  0.02360  Biso   1.000  C
  C18      1.0000 0.38380  0.71920  0.98030  Biso   1.000  C
  C19      1.0000 0.00790  0.58850  0.95610  Biso   1.000  C
  C20      1.0000 0.24400  0.59250  0.48710  Biso   1.000  C
  C21      1.0000 0.37840  0.66940  0.03520  Biso   1.000  C
  Cu3      1.0000 0.49424  0.51478  0.43913  Biso   1.000  Cu
  H1       1.0000 0.93090  0.54330  0.89750  Biso   1.000  H
  H2       1.0000 0.96710  0.60700  0.86700  Biso   1.000  H
  H3       1.0000 0.22140  0.64040  0.87240  Biso   1.000  H
  H4       1.0000 0.17850  0.62370  0.68470  Biso   1.000  H
  H5       1.0000 0.29090  0.68880  0.93200  Biso   1.000  H
  H6       1.0000 0.38340  0.68920  0.74550  Biso   1.000  H
  H7       1.0000 0.32340  0.65780  0.51880  Biso   1.000  H
  H8       1.0000 0.25850  0.60180  0.44400  Biso   1.000  H
  H9       1.0000 0.19990  0.61980  0.49740  Biso   1.000  H
  H10      1.0000 0.32540  0.65820  0.04220  Biso   1.000  H
  H11      1.0000 0.39780  0.69030  0.07340  Biso   1.000  H
  H12      1.0000 0.43890  0.72300  0.96830  Biso   1.000  H
  H13      1.0000 0.14630  0.54450  0.86720  Biso   1.000  H
  H14      1.0000 0.25880  0.58540  0.60960  Biso   1.000  H
  H15      1.0000 0.01220  0.51290  0.81380  Biso   1.000  H
  Cu4      1.0000 0.13370  0.41167  0.45090  Biso   1.000  Cu
  Cu5      1.0000 0.97701  0.33404  0.43032  Biso   1.000  Cu
  O16      1.0000 0.11256  0.56575  0.60870  Biso   1.000  O
  O17      1.0000 0.30639  0.17974  0.52280  Biso   1.000  O
  O18      1.0000 0.43340  0.30160  0.64500  Biso   1.000  O
  O19      1.0000 0.07029  0.43542  0.52492  Biso   1.000  O
  O20      1.0000 0.96550  0.37071  0.51511  Biso   1.000  O
  O21      1.0000 0.37110  0.30820  0.87480  Biso   1.000  O
  O22      1.0000 0.39860  0.18397  0.45191  Biso   1.000  O
  O23      1.0000 0.05800  0.38684  0.74621  Biso   1.000  O
  O24      1.0000 0.98750  0.58134  0.60694  Biso   1.000  O
  N4       1.0000 0.28510  0.38560  0.90297  Biso   1.000  N
  O25      1.0000 0.17730  0.50043  0.05253  Biso   1.000  O
  O26      1.0000 0.40130  0.43670  0.03592  Biso   1.000  O
  O27      1.0000 0.43240  0.43340  0.42922  Biso   1.000  O
  O28      1.0000 0.41220  0.45850  0.93176  Biso   1.000  O
  O29      1.0000 0.44640  0.40623  0.53114  Biso   1.000  O
  C22      1.0000 0.31020  0.33050  0.68270  Biso   1.000  C
  C23      1.0000 0.97830  0.43270  0.60850  Biso   1.000  C
  O30      1.0000 0.24110  0.51600  0.96270  Biso   1.000  O
  N5       1.0000 0.10330  0.44300  0.65998  Biso   1.000  N
  C24      1.0000 0.23750  0.35500  0.66940  Biso   1.000  C
  C25      1.0000 0.21310  0.36740  0.78190  Biso   1.000  C
  C26      1.0000 0.35940  0.21020  0.49740  Biso   1.000  C
  N6       1.0000 0.33840  0.30240  0.57409  Biso   1.000  N
  C27      1.0000 0.31600  0.34510  0.86140  Biso   1.000  C
  C28      1.0000 0.36590  0.30910  0.63180  Biso   1.000  C
  C29      1.0000 0.22110  0.48090  0.00790  Biso   1.000  C
  C30      1.0000 0.04710  0.54560  0.61774  Biso   1.000  C
  C31      1.0000 0.18930  0.37260  0.71910  Biso   1.000  C
  C32      1.0000 0.28740  0.34720  0.79480  Biso   1.000  C
  C33      1.0000 0.33500  0.32680  0.74540  Biso   1.000  C
  C34      1.0000 0.38010  0.43250  0.97850  Biso   1.000  C
  C35      1.0000 0.11080  0.40050  0.70880  Biso   1.000  C
  C36      1.0000 0.03180  0.47650  0.64700  Biso   1.000  C
  C37      1.0000 0.30890  0.38770  0.96930  Biso   1.000  C
  C38      1.0000 0.42350  0.39600  0.47640  Biso   1.000  C
  C39      1.0000 0.38380  0.28080  0.51970  Biso   1.000  C
  C40      1.0000 0.00790  0.41150  0.54390  Biso   1.000  C
  C41      1.0000 0.24400  0.40750  0.01290  Biso   1.000  C
  C42      1.0000 0.37840  0.33060  0.46480  Biso   1.000  C
  Cu6      1.0000 0.49424  0.48522  0.06087  Biso   1.000  Cu
  H16      1.0000 0.93090  0.45670  0.60250  Biso   1.000  H
  H17      1.0000 0.96710  0.39300  0.63300  Biso   1.000  H
  H18      1.0000 0.22140  0.35960  0.62760  Biso   1.000  H
  H19      1.0000 0.17850  0.37630  0.81530  Biso   1.000  H
  H20      1.0000 0.29090  0.31120  0.56800  Biso   1.000  H
  H21      1.0000 0.38340  0.31080  0.75450  Biso   1.000  H
  H22      1.0000 0.32340  0.34220  0.98120  Biso   1.000  H
  H23      1.0000 0.25850  0.39820  0.05600  Biso   1.000  H
  H24      1.0000 0.19990  0.38020  0.00260  Biso   1.000  H
  H25      1.0000 0.32540  0.34180  0.45780  Biso   1.000  H
  H26      1.0000 0.39780  0.30970  0.42660  Biso   1.000  H
  H27      1.0000 0.43890  0.27700  0.53170  Biso   1.000  H
  H28      1.0000 0.14630  0.45550  0.63280  Biso   1.000  H
  H29      1.0000 0.25880  0.41460  0.89040  Biso   1.000  H
  H30      1.0000 0.01220  0.48710  0.68620  Biso   1.000  H
  Cu7      1.0000 0.36630  0.08833  0.45090  Biso   1.000  Cu
  Cu8      1.0000 0.52299  0.16596  0.43032  Biso   1.000  Cu
  O31      1.0000 0.38744  0.93425  0.60870  Biso   1.000  O
  O32      1.0000 0.19361  0.32026  0.52280  Biso   1.000  O
  O33      1.0000 0.06660  0.19840  0.64500  Biso   1.000  O
  O34      1.0000 0.42971  0.06458  0.52492  Biso   1.000  O
  O35      1.0000 0.53450  0.12929  0.51511  Biso   1.000  O
  O36      1.0000 0.12890  0.19180  0.87480  Biso   1.000  O
  O37      1.0000 0.10140  0.31603  0.45191  Biso   1.000  O
  O38      1.0000 0.44200  0.11316  0.74621  Biso   1.000  O
  O39      1.0000 0.51250  0.91866  0.60694  Biso   1.000  O
  N7       1.0000 0.21490  0.11440  0.90297  Biso   1.000  N
  O40      1.0000 0.32270  0.99957  0.05253  Biso   1.000  O
  O41      1.0000 0.09870  0.06330  0.03592  Biso   1.000  O
  O42      1.0000 0.06760  0.06660  0.42922  Biso   1.000  O
  O43      1.0000 0.08780  0.04150  0.93176  Biso   1.000  O
  O44      1.0000 0.05360  0.09377  0.53114  Biso   1.000  O
  C43      1.0000 0.18980  0.16950  0.68270  Biso   1.000  C
  C44      1.0000 0.52170  0.06730  0.60850  Biso   1.000  C
  O45      1.0000 0.25890  0.98400  0.96270  Biso   1.000  O
  N8       1.0000 0.39670  0.05700  0.65998  Biso   1.000  N
  C45      1.0000 0.26250  0.14500  0.66940  Biso   1.000  C
  C46      1.0000 0.28690  0.13260  0.78190  Biso   1.000  C
  C47      1.0000 0.14060  0.28980  0.49740  Biso   1.000  C
  N9       1.0000 0.16160  0.19760  0.57409  Biso   1.000  N
  C48      1.0000 0.18400  0.15490  0.86140  Biso   1.000  C
  C49      1.0000 0.13410  0.19090  0.63180  Biso   1.000  C
  C50      1.0000 0.27890  0.01910  0.00790  Biso   1.000  C
  C51      1.0000 0.45290  0.95440  0.61774  Biso   1.000  C
  C52      1.0000 0.31070  0.12740  0.71910  Biso   1.000  C
  C53      1.0000 0.21260  0.15280  0.79480  Biso   1.000  C
  C54      1.0000 0.16500  0.17320  0.74540  Biso   1.000  C
  C55      1.0000 0.11990  0.06750  0.97850  Biso   1.000  C
  C56      1.0000 0.38920  0.09950  0.70880  Biso   1.000  C
  C57      1.0000 0.46820  0.02350  0.64700  Biso   1.000  C
  C58      1.0000 0.19110  0.11230  0.96930  Biso   1.000  C
  C59      1.0000 0.07650  0.10400  0.47640  Biso   1.000  C
  C60      1.0000 0.11620  0.21920  0.51970  Biso   1.000  C
  C61      1.0000 0.49210  0.08850  0.54390  Biso   1.000  C
  C62      1.0000 0.25600  0.09250  0.01290  Biso   1.000  C
  C63      1.0000 0.12160  0.16940  0.46480  Biso   1.000  C
  Cu9      1.0000 0.00576  0.01478  0.06087  Biso   1.000  Cu
  H31      1.0000 0.56910  0.04330  0.60250  Biso   1.000  H
  H32      1.0000 0.53290  0.10700  0.63300  Biso   1.000  H
  H33      1.0000 0.27860  0.14040  0.62760  Biso   1.000  H
  H34      1.0000 0.32150  0.12370  0.81530  Biso   1.000  H
  H35      1.0000 0.20910  0.18880  0.56800  Biso   1.000  H
  H36      1.0000 0.11660  0.18920  0.75450  Biso   1.000  H
  H37      1.0000 0.17660  0.15780  0.98120  Biso   1.000  H
  H38      1.0000 0.24150  0.10180  0.05600  Biso   1.000  H
  H39      1.0000 0.30010  0.11980  0.00260  Biso   1.000  H
  H40      1.0000 0.17460  0.15820  0.45780  Biso   1.000  H
  H41      1.0000 0.10220  0.19030  0.42660  Biso   1.000  H
  H42      1.0000 0.06110  0.22300  0.53170  Biso   1.000  H
  H43      1.0000 0.35370  0.04450  0.63280  Biso   1.000  H
  H44      1.0000 0.24120  0.08540  0.89040  Biso   1.000  H
  H45      1.0000 0.48780  0.01290  0.68620  Biso   1.000  H
  Cu10     1.0000 0.36630  0.91167  0.04910  Biso   1.000  Cu
  Cu11     1.0000 0.52299  0.83404  0.06968  Biso   1.000  Cu
  O46      1.0000 0.38744  0.06575  0.89130  Biso   1.000  O
  O47      1.0000 0.19361  0.67974  0.97720  Biso   1.000  O
  O48      1.0000 0.06660  0.80160  0.85500  Biso   1.000  O
  O49      1.0000 0.42971  0.93542  0.97508  Biso   1.000  O
  O50      1.0000 0.53450  0.87071  0.98489  Biso   1.000  O
  O51      1.0000 0.12890  0.80820  0.62520  Biso   1.000  O
  O52      1.0000 0.10140  0.68397  0.04809  Biso   1.000  O
  O53      1.0000 0.44200  0.88684  0.75379  Biso   1.000  O
  O54      1.0000 0.51250  0.08134  0.89306  Biso   1.000  O
  N10      1.0000 0.21490  0.88560  0.59703  Biso   1.000  N
  O55      1.0000 0.32270  0.00043  0.44747  Biso   1.000  O
  O56      1.0000 0.09870  0.93670  0.46408  Biso   1.000  O
  O57      1.0000 0.06760  0.93340  0.07078  Biso   1.000  O
  O58      1.0000 0.08780  0.95850  0.56824  Biso   1.000  O
  O59      1.0000 0.05360  0.90623  0.96886  Biso   1.000  O
  C64      1.0000 0.18980  0.83050  0.81730  Biso   1.000  C
  C65      1.0000 0.52170  0.93270  0.89150  Biso   1.000  C
  O60      1.0000 0.25890  0.01600  0.53730  Biso   1.000  O
  N11      1.0000 0.39670  0.94300  0.84002  Biso   1.000  N
  C66      1.0000 0.26250  0.85500  0.83060  Biso   1.000  C
  C67      1.0000 0.28690  0.86740  0.71810  Biso   1.000  C
  C68      1.0000 0.14060  0.71020  0.00260  Biso   1.000  C
  N12      1.0000 0.16160  0.80240  0.92591  Biso   1.000  N
  C69      1.0000 0.18400  0.84510  0.63860  Biso   1.000  C
  C70      1.0000 0.13410  0.80910  0.86820  Biso   1.000  C
  C71      1.0000 0.27890  0.98090  0.49210  Biso   1.000  C
  C72      1.0000 0.45290  0.04560  0.88226  Biso   1.000  C
  C73      1.0000 0.31070  0.87260  0.78090  Biso   1.000  C
  C74      1.0000 0.21260  0.84720  0.70520  Biso   1.000  C
  C75      1.0000 0.16500  0.82680  0.75460  Biso   1.000  C
  C76      1.0000 0.11990  0.93250  0.52150  Biso   1.000  C
  C77      1.0000 0.38920  0.90050  0.79120  Biso   1.000  C
  C78      1.0000 0.46820  0.97650  0.85300  Biso   1.000  C
  C79      1.0000 0.19110  0.88770  0.53070  Biso   1.000  C
  C80      1.0000 0.07650  0.89600  0.02360  Biso   1.000  C
  C81      1.0000 0.11620  0.78080  0.98030  Biso   1.000  C
  C82      1.0000 0.49210  0.91150  0.95610  Biso   1.000  C
  C83      1.0000 0.25600  0.90750  0.48710  Biso   1.000  C
  C84      1.0000 0.12160  0.83060  0.03520  Biso   1.000  C
  Cu12     1.0000 0.00576  0.98522  0.43913  Biso   1.000  Cu
  H46      1.0000 0.56910  0.95670  0.89750  Biso   1.000  H
  H47      1.0000 0.53290  0.89300  0.86700  Biso   1.000  H
  H48      1.0000 0.27860  0.85960  0.87240  Biso   1.000  H
  H49      1.0000 0.32150  0.87630  0.68470  Biso   1.000  H
  H50      1.0000 0.20910  0.81120  0.93200  Biso   1.000  H
  H51      1.0000 0.11660  0.81080  0.74550  Biso   1.000  H
  H52      1.0000 0.17660  0.84220  0.51880  Biso   1.000  H
  H53      1.0000 0.24150  0.89820  0.44400  Biso   1.000  H
  H54      1.0000 0.30010  0.88020  0.49740  Biso   1.000  H
  H55      1.0000 0.17460  0.84180  0.04220  Biso   1.000  H
  H56      1.0000 0.10220  0.80970  0.07340  Biso   1.000  H
  H57      1.0000 0.06110  0.77700  0.96830  Biso   1.000  H
  H58      1.0000 0.35370  0.95550  0.86720  Biso   1.000  H
  H59      1.0000 0.24120  0.91460  0.60960  Biso   1.000  H
  H60      1.0000 0.48780  0.98710  0.81380  Biso   1.000  H
  Cu13     1.0000 0.86630  0.41167  0.95090  Biso   1.000  Cu
  Cu14     1.0000 0.02299  0.33404  0.93032  Biso   1.000  Cu
  O61      1.0000 0.88744  0.56575  0.10870  Biso   1.000  O
  O62      1.0000 0.69361  0.17974  0.02280  Biso   1.000  O
  O63      1.0000 0.56660  0.30160  0.14500  Biso   1.000  O
  O64      1.0000 0.92971  0.43542  0.02492  Biso   1.000  O
  O65      1.0000 0.03450  0.37071  0.01511  Biso   1.000  O
  O66      1.0000 0.62890  0.30820  0.37480  Biso   1.000  O
  O67      1.0000 0.60140  0.18397  0.95191  Biso   1.000  O
  O68      1.0000 0.94200  0.38684  0.24621  Biso   1.000  O
  O69      1.0000 0.01250  0.58134  0.10694  Biso   1.000  O
  N13      1.0000 0.71490  0.38560  0.40297  Biso   1.000  N
  O70      1.0000 0.82270  0.50043  0.55253  Biso   1.000  O
  O71      1.0000 0.59870  0.43670  0.53592  Biso   1.000  O
  O72      1.0000 0.56760  0.43340  0.92922  Biso   1.000  O
  O73      1.0000 0.58780  0.45850  0.43176  Biso   1.000  O
  O74      1.0000 0.55360  0.40623  0.03114  Biso   1.000  O
  C85      1.0000 0.68980  0.33050  0.18270  Biso   1.000  C
  C86      1.0000 0.02170  0.43270  0.10850  Biso   1.000  C
  O75      1.0000 0.75890  0.51600  0.46270  Biso   1.000  O
  N14      1.0000 0.89670  0.44300  0.15998  Biso   1.000  N
  C87      1.0000 0.76250  0.35500  0.16940  Biso   1.000  C
  C88      1.0000 0.78690  0.36740  0.28190  Biso   1.000  C
  C89      1.0000 0.64060  0.21020  0.99740  Biso   1.000  C
  N15      1.0000 0.66160  0.30240  0.07409  Biso   1.000  N
  C90      1.0000 0.68400  0.34510  0.36140  Biso   1.000  C
  C91      1.0000 0.63410  0.30910  0.13180  Biso   1.000  C
  C92      1.0000 0.77890  0.48090  0.50790  Biso   1.000  C
  C93      1.0000 0.95290  0.54560  0.11774  Biso   1.000  C
  C94      1.0000 0.81070  0.37260  0.21910  Biso   1.000  C
  C95      1.0000 0.71260  0.34720  0.29480  Biso   1.000  C
  C96      1.0000 0.66500  0.32680  0.24540  Biso   1.000  C
  C97      1.0000 0.61990  0.43250  0.47850  Biso   1.000  C
  C98      1.0000 0.88920  0.40050  0.20880  Biso   1.000  C
  C99      1.0000 0.96820  0.47650  0.14700  Biso   1.000  C
  C100     1.0000 0.69110  0.38770  0.46930  Biso   1.000  C
  C101     1.0000 0.57650  0.39600  0.97640  Biso   1.000  C
  C102     1.0000 0.61620  0.28080  0.01970  Biso   1.000  C
  C103     1.0000 0.99210  0.41150  0.04390  Biso   1.000  C
  C104     1.0000 0.75600  0.40750  0.51290  Biso   1.000  C
  C105     1.0000 0.62160  0.33060  0.96480  Biso   1.000  C
  Cu15     1.0000 0.50576  0.48522  0.56087  Biso   1.000  Cu
  H61      1.0000 0.06910  0.45670  0.10250  Biso   1.000  H
  H62      1.0000 0.03290  0.39300  0.13300  Biso   1.000  H
  H63      1.0000 0.77860  0.35960  0.12760  Biso   1.000  H
  H64      1.0000 0.82150  0.37630  0.31530  Biso   1.000  H
  H65      1.0000 0.70910  0.31120  0.06800  Biso   1.000  H
  H66      1.0000 0.61660  0.31080  0.25450  Biso   1.000  H
  H67      1.0000 0.67660  0.34220  0.48120  Biso   1.000  H
  H68      1.0000 0.74150  0.39820  0.55600  Biso   1.000  H
  H69      1.0000 0.80010  0.38020  0.50260  Biso   1.000  H
  H70      1.0000 0.67460  0.34180  0.95780  Biso   1.000  H
  H71      1.0000 0.60220  0.30970  0.92660  Biso   1.000  H
  H72      1.0000 0.56110  0.27700  0.03170  Biso   1.000  H
  H73      1.0000 0.85370  0.45550  0.13280  Biso   1.000  H
  H74      1.0000 0.74120  0.41460  0.39040  Biso   1.000  H
  H75      1.0000 0.98780  0.48710  0.18620  Biso   1.000  H
  Cu16     1.0000 0.86630  0.58833  0.54910  Biso   1.000  Cu
  Cu17     1.0000 0.02299  0.66596  0.56968  Biso   1.000  Cu
  O76      1.0000 0.88744  0.43425  0.39130  Biso   1.000  O
  O77      1.0000 0.69361  0.82026  0.47720  Biso   1.000  O
  O78      1.0000 0.56660  0.69840  0.35500  Biso   1.000  O
  O79      1.0000 0.92971  0.56458  0.47508  Biso   1.000  O
  O80      1.0000 0.03450  0.62929  0.48489  Biso   1.000  O
  O81      1.0000 0.62890  0.69180  0.12520  Biso   1.000  O
  O82      1.0000 0.60140  0.81603  0.54809  Biso   1.000  O
  O83      1.0000 0.94200  0.61316  0.25379  Biso   1.000  O
  O84      1.0000 0.01250  0.41866  0.39306  Biso   1.000  O
  N16      1.0000 0.71490  0.61440  0.09703  Biso   1.000  N
  O85      1.0000 0.82270  0.49957  0.94747  Biso   1.000  O
  O86      1.0000 0.59870  0.56330  0.96408  Biso   1.000  O
  O87      1.0000 0.56760  0.56660  0.57078  Biso   1.000  O
  O88      1.0000 0.58780  0.54150  0.06824  Biso   1.000  O
  O89      1.0000 0.55360  0.59377  0.46886  Biso   1.000  O
  C106     1.0000 0.68980  0.66950  0.31730  Biso   1.000  C
  C107     1.0000 0.02170  0.56730  0.39150  Biso   1.000  C
  O90      1.0000 0.75890  0.48400  0.03730  Biso   1.000  O
  N17      1.0000 0.89670  0.55700  0.34002  Biso   1.000  N
  C108     1.0000 0.76250  0.64500  0.33060  Biso   1.000  C
  C109     1.0000 0.78690  0.63260  0.21810  Biso   1.000  C
  C110     1.0000 0.64060  0.78980  0.50260  Biso   1.000  C
  N18      1.0000 0.66160  0.69760  0.42591  Biso   1.000  N
  C111     1.0000 0.68400  0.65490  0.13860  Biso   1.000  C
  C112     1.0000 0.63410  0.69090  0.36820  Biso   1.000  C
  C113     1.0000 0.77890  0.51910  0.99210  Biso   1.000  C
  C114     1.0000 0.95290  0.45440  0.38226  Biso   1.000  C
  C115     1.0000 0.81070  0.62740  0.28090  Biso   1.000  C
  C116     1.0000 0.71260  0.65280  0.20520  Biso   1.000  C
  C117     1.0000 0.66500  0.67320  0.25460  Biso   1.000  C
  C118     1.0000 0.61990  0.56750  0.02150  Biso   1.000  C
  C119     1.0000 0.88920  0.59950  0.29120  Biso   1.000  C
  C120     1.0000 0.96820  0.52350  0.35300  Biso   1.000  C
  C121     1.0000 0.69110  0.61230  0.03070  Biso   1.000  C
  C122     1.0000 0.57650  0.60400  0.52360  Biso   1.000  C
  C123     1.0000 0.61620  0.71920  0.48030  Biso   1.000  C
  C124     1.0000 0.99210  0.58850  0.45610  Biso   1.000  C
  C125     1.0000 0.75600  0.59250  0.98710  Biso   1.000  C
  C126     1.0000 0.62160  0.66940  0.53520  Biso   1.000  C
  Cu18     1.0000 0.50576  0.51478  0.93913  Biso   1.000  Cu
  H76      1.0000 0.06910  0.54330  0.39750  Biso   1.000  H
  H77      1.0000 0.03290  0.60700  0.36700  Biso   1.000  H
  H78      1.0000 0.77860  0.64040  0.37240  Biso   1.000  H
  H79      1.0000 0.82150  0.62370  0.18470  Biso   1.000  H
  H80      1.0000 0.70910  0.68880  0.43200  Biso   1.000  H
  H81      1.0000 0.61660  0.68920  0.24550  Biso   1.000  H
  H82      1.0000 0.67660  0.65780  0.01880  Biso   1.000  H
  H83      1.0000 0.74150  0.60180  0.94400  Biso   1.000  H
  H84      1.0000 0.80010  0.61980  0.99740  Biso   1.000  H
  H85      1.0000 0.67460  0.65820  0.54220  Biso   1.000  H
  H86      1.0000 0.60220  0.69030  0.57340  Biso   1.000  H
  H87      1.0000 0.56110  0.72300  0.46830  Biso   1.000  H
  H88      1.0000 0.85370  0.54450  0.36720  Biso   1.000  H
  H89      1.0000 0.74120  0.58540  0.10960  Biso   1.000  H
  H90      1.0000 0.98780  0.51290  0.31380  Biso   1.000  H
  Cu19     1.0000 0.63370  0.91167  0.54910  Biso   1.000  Cu
  Cu20     1.0000 0.47701  0.83404  0.56968  Biso   1.000  Cu
  O91      1.0000 0.61256  0.06575  0.39130  Biso   1.000  O
  O92      1.0000 0.80639  0.67974  0.47720  Biso   1.000  O
  O93      1.0000 0.93340  0.80160  0.35500  Biso   1.000  O
  O94      1.0000 0.57029  0.93542  0.47508  Biso   1.000  O
  O95      1.0000 0.46550  0.87071  0.48489  Biso   1.000  O
  O96      1.0000 0.87110  0.80820  0.12520  Biso   1.000  O
  O97      1.0000 0.89860  0.68397  0.54809  Biso   1.000  O
  O98      1.0000 0.55800  0.88684  0.25379  Biso   1.000  O
  O99      1.0000 0.48750  0.08134  0.39306  Biso   1.000  O
  N19      1.0000 0.78510  0.88560  0.09703  Biso   1.000  N
  O100     1.0000 0.67730  0.00043  0.94747  Biso   1.000  O
  O101     1.0000 0.90130  0.93670  0.96408  Biso   1.000  O
  O102     1.0000 0.93240  0.93340  0.57078  Biso   1.000  O
  O103     1.0000 0.91220  0.95850  0.06824  Biso   1.000  O
  O104     1.0000 0.94640  0.90623  0.46886  Biso   1.000  O
  C127     1.0000 0.81020  0.83050  0.31730  Biso   1.000  C
  C128     1.0000 0.47830  0.93270  0.39150  Biso   1.000  C
  O105     1.0000 0.74110  0.01600  0.03730  Biso   1.000  O
  N20      1.0000 0.60330  0.94300  0.34002  Biso   1.000  N
  C129     1.0000 0.73750  0.85500  0.33060  Biso   1.000  C
  C130     1.0000 0.71310  0.86740  0.21810  Biso   1.000  C
  C131     1.0000 0.85940  0.71020  0.50260  Biso   1.000  C
  N21      1.0000 0.83840  0.80240  0.42591  Biso   1.000  N
  C132     1.0000 0.81600  0.84510  0.13860  Biso   1.000  C
  C133     1.0000 0.86590  0.80910  0.36820  Biso   1.000  C
  C134     1.0000 0.72110  0.98090  0.99210  Biso   1.000  C
  C135     1.0000 0.54710  0.04560  0.38226  Biso   1.000  C
  C136     1.0000 0.68930  0.87260  0.28090  Biso   1.000  C
  C137     1.0000 0.78740  0.84720  0.20520  Biso   1.000  C
  C138     1.0000 0.83500  0.82680  0.25460  Biso   1.000  C
  C139     1.0000 0.88010  0.93250  0.02150  Biso   1.000  C
  C140     1.0000 0.61080  0.90050  0.29120  Biso   1.000  C
  C141     1.0000 0.53180  0.97650  0.35300  Biso   1.000  C
  C142     1.0000 0.80890  0.88770  0.03070  Biso   1.000  C
  C143     1.0000 0.92350  0.89600  0.52360  Biso   1.000  C
  C144     1.0000 0.88380  0.78080  0.48030  Biso   1.000  C
  C145     1.0000 0.50790  0.91150  0.45610  Biso   1.000  C
  C146     1.0000 0.74400  0.90750  0.98710  Biso   1.000  C
  C147     1.0000 0.87840  0.83060  0.53520  Biso   1.000  C
  Cu21     1.0000 0.99424  0.98522  0.93913  Biso   1.000  Cu
  H91      1.0000 0.43090  0.95670  0.39750  Biso   1.000  H
  H92      1.0000 0.46710  0.89300  0.36700  Biso   1.000  H
  H93      1.0000 0.72140  0.85960  0.37240  Biso   1.000  H
  H94      1.0000 0.67850  0.87630  0.18470  Biso   1.000  H
  H95      1.0000 0.79090  0.81120  0.43200  Biso   1.000  H
  H96      1.0000 0.88340  0.81080  0.24550  Biso   1.000  H
  H97      1.0000 0.82340  0.84220  0.01880  Biso   1.000  H
  H98      1.0000 0.75850  0.89820  0.94400  Biso   1.000  H
  H99      1.0000 0.69990  0.88020  0.99740  Biso   1.000  H
  H100     1.0000 0.82540  0.84180  0.54220  Biso   1.000  H
  H101     1.0000 0.89780  0.80970  0.57340  Biso   1.000  H
  H102     1.0000 0.93890  0.77700  0.46830  Biso   1.000  H
  H103     1.0000 0.64630  0.95550  0.36720  Biso   1.000  H
  H104     1.0000 0.75880  0.91460  0.10960  Biso   1.000  H
  H105     1.0000 0.51220  0.98710  0.31380  Biso   1.000  H
  Cu22     1.0000 0.63370  0.08833  0.95090  Biso   1.000  Cu
  Cu23     1.0000 0.47701  0.16596  0.93032  Biso   1.000  Cu
  O106     1.0000 0.61256  0.93425  0.10870  Biso   1.000  O
  O107     1.0000 0.80639  0.32026  0.02280  Biso   1.000  O
  O108     1.0000 0.93340  0.19840  0.14500  Biso   1.000  O
  O109     1.0000 0.57029  0.06458  0.02492  Biso   1.000  O
  O110     1.0000 0.46550  0.12929  0.01511  Biso   1.000  O
  O111     1.0000 0.87110  0.19180  0.37480  Biso   1.000  O
  O112     1.0000 0.89860  0.31603  0.95191  Biso   1.000  O
  O113     1.0000 0.55800  0.11316  0.24621  Biso   1.000  O
  O114     1.0000 0.48750  0.91866  0.10694  Biso   1.000  O
  N22      1.0000 0.78510  0.11440  0.40297  Biso   1.000  N
  O115     1.0000 0.67730  0.99957  0.55253  Biso   1.000  O
  O116     1.0000 0.90130  0.06330  0.53592  Biso   1.000  O
  O117     1.0000 0.93240  0.06660  0.92922  Biso   1.000  O
  O118     1.0000 0.91220  0.04150  0.43176  Biso   1.000  O
  O119     1.0000 0.94640  0.09377  0.03114  Biso   1.000  O
  C148     1.0000 0.81020  0.16950  0.18270  Biso   1.000  C
  C149     1.0000 0.47830  0.06730  0.10850  Biso   1.000  C
  O120     1.0000 0.74110  0.98400  0.46270  Biso   1.000  O
  N23      1.0000 0.60330  0.05700  0.15998  Biso   1.000  N
  C150     1.0000 0.73750  0.14500  0.16940  Biso   1.000  C
  C151     1.0000 0.71310  0.13260  0.28190  Biso   1.000  C
  C152     1.0000 0.85940  0.28980  0.99740  Biso   1.000  C
  N24      1.0000 0.83840  0.19760  0.07409  Biso   1.000  N
  C153     1.0000 0.81600  0.15490  0.36140  Biso   1.000  C
  C154     1.0000 0.86590  0.19090  0.13180  Biso   1.000  C
  C155     1.0000 0.72110  0.01910  0.50790  Biso   1.000  C
  C156     1.0000 0.54710  0.95440  0.11774  Biso   1.000  C
  C157     1.0000 0.68930  0.12740  0.21910  Biso   1.000  C
  C158     1.0000 0.78740  0.15280  0.29480  Biso   1.000  C
  C159     1.0000 0.83500  0.17320  0.24540  Biso   1.000  C
  C160     1.0000 0.88010  0.06750  0.47850  Biso   1.000  C
  C161     1.0000 0.61080  0.09950  0.20880  Biso   1.000  C
  C162     1.0000 0.53180  0.02350  0.14700  Biso   1.000  C
  C163     1.0000 0.80890  0.11230  0.46930  Biso   1.000  C
  C164     1.0000 0.92350  0.10400  0.97640  Biso   1.000  C
  C165     1.0000 0.88380  0.21920  0.01970  Biso   1.000  C
  C166     1.0000 0.50790  0.08850  0.04390  Biso   1.000  C
  C167     1.0000 0.74400  0.09250  0.51290  Biso   1.000  C
  C168     1.0000 0.87840  0.16940  0.96480  Biso   1.000  C
  Cu24     1.0000 0.99424  0.01478  0.56087  Biso   1.000  Cu
  H106     1.0000 0.43090  0.04330  0.10250  Biso   1.000  H
  H107     1.0000 0.46710  0.10700  0.13300  Biso   1.000  H
  H108     1.0000 0.72140  0.14040  0.12760  Biso   1.000  H
  H109     1.0000 0.67850  0.12370  0.31530  Biso   1.000  H
  H110     1.0000 0.79090  0.18880  0.06800  Biso   1.000  H
  H111     1.0000 0.88340  0.18920  0.25450  Biso   1.000  H
  H112     1.0000 0.82340  0.15780  0.48120  Biso   1.000  H
  H113     1.0000 0.75850  0.10180  0.55600  Biso   1.000  H
  H114     1.0000 0.69990  0.11980  0.50260  Biso   1.000  H
  H115     1.0000 0.82540  0.15820  0.95780  Biso   1.000  H
  H116     1.0000 0.89780  0.19030  0.92660  Biso   1.000  H
  H117     1.0000 0.93890  0.22300  0.03170  Biso   1.000  H
  H118     1.0000 0.64630  0.04450  0.13280  Biso   1.000  H
  H119     1.0000 0.75880  0.08540  0.39040  Biso   1.000  H
  H120     1.0000 0.51220  0.01290  0.18620  Biso   1.000  H
