data_DOQGUM_clean
_audit_creation_date              2014-07-02
_audit_creation_method            'Materials Studio'
_symmetry_space_group_name_H-M    'P1'
_symmetry_Int_Tables_number       1
_symmetry_cell_setting            triclinic
loop_
_symmetry_equiv_pos_as_xyz
  x,y,z
_cell_length_a                    7.1991
_cell_length_b                    10.2926
_cell_length_c                    13.3838
_cell_angle_alpha                 90.0000
_cell_angle_beta                  90.0000
_cell_angle_gamma                 98.8980
loop_
_atom_site_label
_atom_site_type_symbol
_atom_site_fract_x
_atom_site_fract_y
_atom_site_fract_z
_atom_site_U_iso_or_equiv
_atom_site_adp_type
_atom_site_occupancy
La1    La    0.15928   0.28238   0.90594   0.01267  Uiso   1.00
La2    La    0.84072   0.21762   0.40594   0.01267  Uiso   1.00
La3    La    0.84072   0.71762   0.09406   0.01267  Uiso   1.00
La4    La    0.15928   0.78238   0.59406   0.01267  Uiso   1.00
P1     P     0.78502   0.07360   0.05193   0.01267  Uiso   1.00
P2     P     0.21498   0.42640   0.55193   0.01267  Uiso   1.00
P3     P     0.21498   0.92640   0.94807   0.01267  Uiso   1.00
P4     P     0.78502   0.57360   0.44807   0.01267  Uiso   1.00
H1     H     0.59000   0.19280   0.04910   0.01267  Uiso   1.00
H2     H     0.87350   0.00180   0.25590   0.01267  Uiso   1.00
H3     H     0.06020   0.08710   0.14810   0.01267  Uiso   1.00
H4     H     0.41000   0.30720   0.54910   0.01267  Uiso   1.00
H5     H     0.12650   0.49820   0.75590   0.01267  Uiso   1.00
H6     H     0.93980   0.41290   0.64810   0.01267  Uiso   1.00
H7     H     0.41000   0.80720   0.95090   0.01267  Uiso   1.00
H8     H     0.12650   0.99820   0.74410   0.01267  Uiso   1.00
H9     H     0.93980   0.91290   0.85190   0.01267  Uiso   1.00
H10    H     0.59000   0.69280   0.45090   0.01267  Uiso   1.00
H11    H     0.87350   0.50180   0.24410   0.01267  Uiso   1.00
H12    H     0.06020   0.58710   0.35190   0.01267  Uiso   1.00
C1     C     0.94540   0.12630   0.15600   0.01267  Uiso   1.00
C2     C     0.99740   0.27450   0.16290   0.01267  Uiso   1.00
C3     C     0.45350   0.55480   0.97400   0.01267  Uiso   1.00
C4     C     0.05460   0.37370   0.65600   0.01267  Uiso   1.00
C5     C     0.00260   0.22550   0.66290   0.01267  Uiso   1.00
C6     C     0.54650   0.94520   0.47400   0.01267  Uiso   1.00
C7     C     0.05460   0.87370   0.84400   0.01267  Uiso   1.00
C8     C     0.00260   0.72550   0.83710   0.01267  Uiso   1.00
C9     C     0.54650   0.44520   0.02600   0.01267  Uiso   1.00
C10    C     0.94540   0.62630   0.34400   0.01267  Uiso   1.00
C11    C     0.99740   0.77450   0.33710   0.01267  Uiso   1.00
C12    C     0.45350   0.05480   0.52600   0.01267  Uiso   1.00
O1     O     0.60220   0.12920   0.08400   0.01267  Uiso   1.00
O2     O     0.86470   0.13150   0.95524   0.01267  Uiso   1.00
O3     O     0.74310   0.92680   0.05794   0.01267  Uiso   1.00
O4     O     0.85040   0.07600   0.24478   0.01267  Uiso   1.00
O5     O     0.07870   0.33270   0.08891   0.01267  Uiso   1.00
O6     O     0.95970   0.33030   0.24278   0.01267  Uiso   1.00
O7     O     0.30990   0.52070   0.92353   0.01267  Uiso   1.00
O8     O     0.53260   0.67080   0.99015   0.01267  Uiso   1.00
O9     O     0.39780   0.37080   0.58400   0.01267  Uiso   1.00
O10    O     0.13530   0.36850   0.45524   0.01267  Uiso   1.00
O11    O     0.25690   0.57320   0.55794   0.01267  Uiso   1.00
O12    O     0.14960   0.42400   0.74478   0.01267  Uiso   1.00
O13    O     0.92130   0.16730   0.58891   0.01267  Uiso   1.00
O14    O     0.04030   0.16970   0.74278   0.01267  Uiso   1.00
O15    O     0.69010   0.97930   0.42353   0.01267  Uiso   1.00
O16    O     0.46740   0.82920   0.49015   0.01267  Uiso   1.00
O17    O     0.39780   0.87080   0.91600   0.01267  Uiso   1.00
O18    O     0.13530   0.86850   0.04476   0.01267  Uiso   1.00
O19    O     0.25690   0.07320   0.94206   0.01267  Uiso   1.00
O20    O     0.14960   0.92400   0.75522   0.01267  Uiso   1.00
O21    O     0.92130   0.66730   0.91109   0.01267  Uiso   1.00
O22    O     0.04030   0.66970   0.75722   0.01267  Uiso   1.00
O23    O     0.69010   0.47930   0.07647   0.01267  Uiso   1.00
O24    O     0.46740   0.32920   0.00985   0.01267  Uiso   1.00
O25    O     0.60220   0.62920   0.41600   0.01267  Uiso   1.00
O26    O     0.86470   0.63150   0.54476   0.01267  Uiso   1.00
O27    O     0.74310   0.42680   0.44206   0.01267  Uiso   1.00
O28    O     0.85040   0.57600   0.25522   0.01267  Uiso   1.00
O29    O     0.07870   0.83270   0.41109   0.01267  Uiso   1.00
O30    O     0.95970   0.83030   0.25722   0.01267  Uiso   1.00
O31    O     0.30990   0.02070   0.57647   0.01267  Uiso   1.00
O32    O     0.53260   0.17080   0.50985   0.01267  Uiso   1.00
