data_DOQHOH_clean
_audit_creation_date              2014-07-02
_audit_creation_method            'Materials Studio'
_symmetry_space_group_name_H-M    'P1'
_symmetry_Int_Tables_number       1
_symmetry_cell_setting            triclinic
loop_
_symmetry_equiv_pos_as_xyz
  x,y,z
_cell_length_a                    7.2351
_cell_length_b                    10.1999
_cell_length_c                    13.0550
_cell_angle_alpha                 90.0000
_cell_angle_beta                  90.0000
_cell_angle_gamma                 100.4270
loop_
_atom_site_label
_atom_site_type_symbol
_atom_site_fract_x
_atom_site_fract_y
_atom_site_fract_z
_atom_site_U_iso_or_equiv
_atom_site_adp_type
_atom_site_occupancy
Sm1    Sm    0.16364   0.28216   0.90595   0.01267  Uiso   1.00
Sm2    Sm    0.83636   0.21784   0.40595   0.01267  Uiso   1.00
Sm3    Sm    0.83636   0.71784   0.09405   0.01267  Uiso   1.00
Sm4    Sm    0.16364   0.78216   0.59405   0.01267  Uiso   1.00
P1     P     0.78841   0.06941   0.04910   0.01267  Uiso   1.00
P2     P     0.21159   0.43059   0.54910   0.01267  Uiso   1.00
P3     P     0.21159   0.93059   0.95090   0.01267  Uiso   1.00
P4     P     0.78841   0.56941   0.45090   0.01267  Uiso   1.00
H1     H     0.59300   0.18610   0.04410   0.01267  Uiso   1.00
H2     H     0.86590   0.99930   0.26010   0.01267  Uiso   1.00
H3     H     0.05730   0.08510   0.15070   0.01267  Uiso   1.00
H4     H     0.40700   0.31390   0.54410   0.01267  Uiso   1.00
H5     H     0.13410   0.50070   0.76010   0.01267  Uiso   1.00
H6     H     0.94270   0.41490   0.65070   0.01267  Uiso   1.00
H7     H     0.40700   0.81390   0.95590   0.01267  Uiso   1.00
H8     H     0.13410   0.00070   0.73990   0.01267  Uiso   1.00
H9     H     0.94270   0.91490   0.84930   0.01267  Uiso   1.00
H10    H     0.59300   0.68610   0.45590   0.01267  Uiso   1.00
H11    H     0.86590   0.49930   0.23990   0.01267  Uiso   1.00
H12    H     0.05730   0.58510   0.34930   0.01267  Uiso   1.00
C1     C     0.94370   0.12430   0.15700   0.01267  Uiso   1.00
C2     C     0.00000   0.27440   0.16380   0.01267  Uiso   1.00
C3     C     0.45320   0.55490   0.97580   0.01267  Uiso   1.00
C4     C     0.05630   0.37570   0.65700   0.01267  Uiso   1.00
C5     C     0.00000   0.22560   0.66380   0.01267  Uiso   1.00
C6     C     0.54680   0.94510   0.47580   0.01267  Uiso   1.00
C7     C     0.05630   0.87570   0.84300   0.01267  Uiso   1.00
C8     C     0.00000   0.72560   0.83620   0.01267  Uiso   1.00
C9     C     0.54680   0.44510   0.02420   0.01267  Uiso   1.00
C10    C     0.94370   0.62430   0.34300   0.01267  Uiso   1.00
C11    C     0.00000   0.77440   0.33620   0.01267  Uiso   1.00
C12    C     0.45320   0.05490   0.52420   0.01267  Uiso   1.00
O1     O     0.60370   0.12180   0.07990   0.01267  Uiso   1.00
O2     O     0.87170   0.13180   0.95160   0.01267  Uiso   1.00
O3     O     0.74650   0.92050   0.05370   0.01267  Uiso   1.00
O4     O     0.84460   0.07390   0.24750   0.01267  Uiso   1.00
O5     O     0.08130   0.33360   0.08740   0.01267  Uiso   1.00
O6     O     0.96100   0.33060   0.24500   0.01267  Uiso   1.00
O7     O     0.30310   0.51830   0.92810   0.01267  Uiso   1.00
O8     O     0.53400   0.67270   0.99050   0.01267  Uiso   1.00
O9     O     0.39630   0.37820   0.57990   0.01267  Uiso   1.00
O10    O     0.12830   0.36820   0.45160   0.01267  Uiso   1.00
O11    O     0.25350   0.57950   0.55370   0.01267  Uiso   1.00
O12    O     0.15540   0.42610   0.74750   0.01267  Uiso   1.00
O13    O     0.91870   0.16640   0.58740   0.01267  Uiso   1.00
O14    O     0.03900   0.16940   0.74500   0.01267  Uiso   1.00
O15    O     0.69690   0.98170   0.42810   0.01267  Uiso   1.00
O16    O     0.46600   0.82730   0.49050   0.01267  Uiso   1.00
O17    O     0.39630   0.87820   0.92010   0.01267  Uiso   1.00
O18    O     0.12830   0.86820   0.04840   0.01267  Uiso   1.00
O19    O     0.25350   0.07950   0.94630   0.01267  Uiso   1.00
O20    O     0.15540   0.92610   0.75250   0.01267  Uiso   1.00
O21    O     0.91870   0.66640   0.91260   0.01267  Uiso   1.00
O22    O     0.03900   0.66940   0.75500   0.01267  Uiso   1.00
O23    O     0.69690   0.48170   0.07190   0.01267  Uiso   1.00
O24    O     0.46600   0.32730   0.00950   0.01267  Uiso   1.00
O25    O     0.60370   0.62180   0.42010   0.01267  Uiso   1.00
O26    O     0.87170   0.63180   0.54840   0.01267  Uiso   1.00
O27    O     0.74650   0.42050   0.44630   0.01267  Uiso   1.00
O28    O     0.84460   0.57390   0.25250   0.01267  Uiso   1.00
O29    O     0.08130   0.83360   0.41260   0.01267  Uiso   1.00
O30    O     0.96100   0.83060   0.25500   0.01267  Uiso   1.00
O31    O     0.30310   0.01830   0.57190   0.01267  Uiso   1.00
O32    O     0.53400   0.17270   0.50950   0.01267  Uiso   1.00
