data_DOQHUN_clean
_audit_creation_date              2014-07-02
_audit_creation_method            'Materials Studio'
_symmetry_space_group_name_H-M    'P1'
_symmetry_Int_Tables_number       1
_symmetry_cell_setting            triclinic
loop_
_symmetry_equiv_pos_as_xyz
  x,y,z
_cell_length_a                    7.2293
_cell_length_b                    10.1980
_cell_length_c                    13.0429
_cell_angle_alpha                 90.0000
_cell_angle_beta                  90.0000
_cell_angle_gamma                 100.5410
loop_
_atom_site_label
_atom_site_type_symbol
_atom_site_fract_x
_atom_site_fract_y
_atom_site_fract_z
_atom_site_U_iso_or_equiv
_atom_site_adp_type
_atom_site_occupancy
Eu1    Eu    0.16377   0.28214   0.90609   0.01267  Uiso   1.00
Eu2    Eu    0.83623   0.21786   0.40609   0.01267  Uiso   1.00
Eu3    Eu    0.83623   0.71786   0.09391   0.01267  Uiso   1.00
Eu4    Eu    0.16377   0.78214   0.59391   0.01267  Uiso   1.00
P1     P     0.78865   0.06892   0.04897   0.01267  Uiso   1.00
P2     P     0.21135   0.43108   0.54897   0.01267  Uiso   1.00
P3     P     0.21135   0.93108   0.95103   0.01267  Uiso   1.00
P4     P     0.78865   0.56892   0.45103   0.01267  Uiso   1.00
H1     H     0.59290   0.18520   0.04380   0.01267  Uiso   1.00
H2     H     0.86460   0.99900   0.26070   0.01267  Uiso   1.00
H3     H     0.05770   0.08440   0.15130   0.01267  Uiso   1.00
H4     H     0.40710   0.31480   0.54380   0.01267  Uiso   1.00
H5     H     0.13540   0.50100   0.76070   0.01267  Uiso   1.00
H6     H     0.94230   0.41560   0.65130   0.01267  Uiso   1.00
H7     H     0.40710   0.81480   0.95620   0.01267  Uiso   1.00
H8     H     0.13540   0.00100   0.73930   0.01267  Uiso   1.00
H9     H     0.94230   0.91560   0.84870   0.01267  Uiso   1.00
H10    H     0.59290   0.68520   0.45620   0.01267  Uiso   1.00
H11    H     0.86460   0.49900   0.23930   0.01267  Uiso   1.00
H12    H     0.05770   0.58440   0.34870   0.01267  Uiso   1.00
C1     C     0.94400   0.12350   0.15730   0.01267  Uiso   1.00
C2     C     0.99960   0.27400   0.16380   0.01267  Uiso   1.00
C3     C     0.45240   0.55520   0.97560   0.01267  Uiso   1.00
C4     C     0.05600   0.37650   0.65730   0.01267  Uiso   1.00
C5     C     0.00040   0.22600   0.66380   0.01267  Uiso   1.00
C6     C     0.54760   0.94480   0.47560   0.01267  Uiso   1.00
C7     C     0.05600   0.87650   0.84270   0.01267  Uiso   1.00
C8     C     0.00040   0.72600   0.83620   0.01267  Uiso   1.00
C9     C     0.54760   0.44480   0.02440   0.01267  Uiso   1.00
C10    C     0.94400   0.62350   0.34270   0.01267  Uiso   1.00
C11    C     0.99960   0.77400   0.33620   0.01267  Uiso   1.00
C12    C     0.45240   0.05520   0.52440   0.01267  Uiso   1.00
O1     O     0.60360   0.12100   0.07970   0.01267  Uiso   1.00
O2     O     0.87240   0.13200   0.95130   0.01267  Uiso   1.00
O3     O     0.74710   0.91990   0.05330   0.01267  Uiso   1.00
O4     O     0.84380   0.07360   0.24770   0.01267  Uiso   1.00
O5     O     0.08130   0.33350   0.08750   0.01267  Uiso   1.00
O6     O     0.96140   0.33060   0.24540   0.01267  Uiso   1.00
O7     O     0.30280   0.51800   0.92860   0.01267  Uiso   1.00
O8     O     0.53350   0.67250   0.99100   0.01267  Uiso   1.00
O9     O     0.39640   0.37900   0.57970   0.01267  Uiso   1.00
O10    O     0.12760   0.36800   0.45130   0.01267  Uiso   1.00
O11    O     0.25290   0.58010   0.55330   0.01267  Uiso   1.00
O12    O     0.15620   0.42640   0.74770   0.01267  Uiso   1.00
O13    O     0.91870   0.16650   0.58750   0.01267  Uiso   1.00
O14    O     0.03860   0.16940   0.74540   0.01267  Uiso   1.00
O15    O     0.69720   0.98200   0.42860   0.01267  Uiso   1.00
O16    O     0.46650   0.82750   0.49100   0.01267  Uiso   1.00
O17    O     0.39640   0.87900   0.92030   0.01267  Uiso   1.00
O18    O     0.12760   0.86800   0.04870   0.01267  Uiso   1.00
O19    O     0.25290   0.08010   0.94670   0.01267  Uiso   1.00
O20    O     0.15620   0.92640   0.75230   0.01267  Uiso   1.00
O21    O     0.91870   0.66650   0.91250   0.01267  Uiso   1.00
O22    O     0.03860   0.66940   0.75460   0.01267  Uiso   1.00
O23    O     0.69720   0.48200   0.07140   0.01267  Uiso   1.00
O24    O     0.46650   0.32750   0.00900   0.01267  Uiso   1.00
O25    O     0.60360   0.62100   0.42030   0.01267  Uiso   1.00
O26    O     0.87240   0.63200   0.54870   0.01267  Uiso   1.00
O27    O     0.74710   0.41990   0.44670   0.01267  Uiso   1.00
O28    O     0.84380   0.57360   0.25230   0.01267  Uiso   1.00
O29    O     0.08130   0.83350   0.41250   0.01267  Uiso   1.00
O30    O     0.96140   0.83060   0.25460   0.01267  Uiso   1.00
O31    O     0.30280   0.01800   0.57140   0.01267  Uiso   1.00
O32    O     0.53350   0.17250   0.50900   0.01267  Uiso   1.00
