data_DORFOG_clean
_audit_creation_date              2014-07-02
_audit_creation_method            'Materials Studio'
_symmetry_space_group_name_H-M    'P1'
_symmetry_Int_Tables_number       1
_symmetry_cell_setting            triclinic
loop_
_symmetry_equiv_pos_as_xyz
  x,y,z
_cell_length_a                    7.9430
_cell_length_b                    7.9430
_cell_length_c                    12.8125
_cell_angle_alpha                 90.0000
_cell_angle_beta                  90.0000
_cell_angle_gamma                 90.0000
loop_
_atom_site_label
_atom_site_type_symbol
_atom_site_fract_x
_atom_site_fract_y
_atom_site_fract_z
_atom_site_U_iso_or_equiv
_atom_site_adp_type
_atom_site_occupancy
Mg1    Mg    0.46953   0.11794   0.78700   0.01267  Uiso   1.00
Mg2    Mg    0.53047   0.88206   0.28700   0.01267  Uiso   1.00
Mg3    Mg    0.88206   0.46953   0.03700   0.01267  Uiso   1.00
Mg4    Mg    0.11794   0.53047   0.53700   0.01267  Uiso   1.00
H1     H     0.40550   0.07370   0.97960   0.01267  Uiso   1.00
H2     H     0.29790   0.84090   0.99520   0.01267  Uiso   1.00
H3     H     0.61760   0.74090   0.91490   0.01267  Uiso   1.00
H4     H     0.48330   0.60640   0.94730   0.01267  Uiso   1.00
H5     H     0.59450   0.92630   0.47960   0.01267  Uiso   1.00
H6     H     0.70210   0.15910   0.49520   0.01267  Uiso   1.00
H7     H     0.38240   0.25910   0.41490   0.01267  Uiso   1.00
H8     H     0.51670   0.39360   0.44730   0.01267  Uiso   1.00
H9     H     0.92630   0.40550   0.22960   0.01267  Uiso   1.00
H10    H     0.15910   0.29790   0.24520   0.01267  Uiso   1.00
H11    H     0.25910   0.61760   0.16490   0.01267  Uiso   1.00
H12    H     0.39360   0.48330   0.19730   0.01267  Uiso   1.00
H13    H     0.07370   0.59450   0.72960   0.01267  Uiso   1.00
H14    H     0.84090   0.70210   0.74520   0.01267  Uiso   1.00
H15    H     0.74090   0.38240   0.66490   0.01267  Uiso   1.00
H16    H     0.60640   0.51670   0.69730   0.01267  Uiso   1.00
C1     C     0.30000   0.80370   0.83510   0.01267  Uiso   1.00
C2     C     0.38240   0.84700   0.93960   0.01267  Uiso   1.00
C3     C     0.52470   0.71880   0.96210   0.01267  Uiso   1.00
C4     C     0.58950   0.72340   0.07250   0.01267  Uiso   1.00
C5     C     0.70000   0.19630   0.33510   0.01267  Uiso   1.00
C6     C     0.61760   0.15300   0.43960   0.01267  Uiso   1.00
C7     C     0.47530   0.28120   0.46210   0.01267  Uiso   1.00
C8     C     0.41050   0.27660   0.57250   0.01267  Uiso   1.00
C9     C     0.19630   0.30000   0.08510   0.01267  Uiso   1.00
C10    C     0.15300   0.38240   0.18960   0.01267  Uiso   1.00
C11    C     0.28120   0.52470   0.21210   0.01267  Uiso   1.00
C12    C     0.27660   0.58950   0.32250   0.01267  Uiso   1.00
C13    C     0.80370   0.70000   0.58510   0.01267  Uiso   1.00
C14    C     0.84700   0.61760   0.68960   0.01267  Uiso   1.00
C15    C     0.71880   0.47530   0.71210   0.01267  Uiso   1.00
C16    C     0.72340   0.41050   0.82250   0.01267  Uiso   1.00
O1     O     0.33150   0.89660   0.75770   0.01267  Uiso   1.00
O2     O     0.21060   0.67420   0.83320   0.01267  Uiso   1.00
O3     O     0.69990   0.61810   0.09930   0.01267  Uiso   1.00
O4     O     0.52520   0.82870   0.13410   0.01267  Uiso   1.00
O5     O     0.45040   0.01510   0.93490   0.01267  Uiso   1.00
O6     O     0.66850   0.10340   0.25770   0.01267  Uiso   1.00
O7     O     0.78940   0.32580   0.33320   0.01267  Uiso   1.00
O8     O     0.30010   0.38190   0.59930   0.01267  Uiso   1.00
O9     O     0.47480   0.17130   0.63410   0.01267  Uiso   1.00
O10    O     0.54960   0.98490   0.43490   0.01267  Uiso   1.00
O11    O     0.10340   0.33150   0.00770   0.01267  Uiso   1.00
O12    O     0.32580   0.21060   0.08320   0.01267  Uiso   1.00
O13    O     0.38190   0.69990   0.34930   0.01267  Uiso   1.00
O14    O     0.17130   0.52520   0.38410   0.01267  Uiso   1.00
O15    O     0.98490   0.45040   0.18490   0.01267  Uiso   1.00
O16    O     0.89660   0.66850   0.50770   0.01267  Uiso   1.00
O17    O     0.67420   0.78940   0.58320   0.01267  Uiso   1.00
O18    O     0.61810   0.30010   0.84930   0.01267  Uiso   1.00
O19    O     0.82870   0.47480   0.88410   0.01267  Uiso   1.00
O20    O     0.01510   0.54960   0.68490   0.01267  Uiso   1.00
