data_image0
_cell_length_a       27.579
_cell_length_b       10.154
_cell_length_c       20.35
_cell_angle_alpha    90
_cell_angle_beta     127.334
_cell_angle_gamma    90

_symmetry_space_group_name_H-M    "P 1"
_symmetry_int_tables_number       1

loop_
  _symmetry_equiv_pos_as_xyz
  'x, y, z'

loop_
  _atom_site_label
  _atom_site_occupancy
  _atom_site_fract_x
  _atom_site_fract_y
  _atom_site_fract_z
  _atom_site_thermal_displace_type
  _atom_site_B_iso_or_equiv
  _atom_site_type_symbol
  Cu1      1.0000 0.16050  0.74110  0.26550  Biso   1.000  Cu
  O1       1.0000 0.15547  0.59200  0.33080  Biso   1.000  O
  O2       1.0000 0.16250  0.47400  0.24590  Biso   1.000  O
  O3       1.0000 0.15410  0.88970  0.34130  Biso   1.000  O
  O4       1.0000 0.15480  0.99320  0.24870  Biso   1.000  O
  N1       1.0000 0.06853  0.73070  0.17910  Biso   1.000  N
  N2       1.0000 0.16888  0.25160  0.66850  Biso   1.000  N
  N3       1.0000 0.75188  0.74840  0.85430  Biso   1.000  N
  C1       1.0000 0.04330  0.65160  0.11520  Biso   1.000  C
  H1       1.0000 0.06870  0.59560  0.11240  Biso   1.000  H
  C2       1.0000 0.98200  0.64600  0.05240  Biso   1.000  C
  H2       1.0000 0.96710  0.58820  0.00860  Biso   1.000  H
  C3       1.0000 0.94250  0.72610  0.05400  Biso   1.000  C
  C4       1.0000 0.96840  0.80460  0.12290  Biso   1.000  C
  H3       1.0000 0.94370  0.85770  0.12870  Biso   1.000  H
  C5       1.0000 0.03060  0.80480  0.18320  Biso   1.000  C
  H4       1.0000 0.04690  0.85930  0.22880  Biso   1.000  H
  C6       1.0000 0.87640  0.72990  0.98520  Biso   1.000  C
  C7       1.0000 0.85420  0.70380  0.90480  Biso   1.000  C
  H5       1.0000 0.88080  0.68090  0.89310  Biso   1.000  H
  C8       1.0000 0.79200  0.71200  0.84170  Biso   1.000  C
  H6       1.0000 0.77780  0.69110  0.78820  Biso   1.000  H
  C9       1.0000 0.77340  0.77190  0.93270  Biso   1.000  C
  H7       1.0000 0.74580  0.79510  0.94280  Biso   1.000  H
  C10      1.0000 0.83390  0.76360  0.99840  Biso   1.000  C
  H8       1.0000 0.84660  0.78030  0.05160  Biso   1.000  H
  C11      1.0000 0.15580  0.99210  0.31050  Biso   1.000  C
  C12      1.0000 0.19120  0.35150  0.65150  Biso   1.000  C
  H9       1.0000 0.20820  0.42240  0.68790  Biso   1.000  H
  C13      1.0000 0.14560  0.15130  0.61570  Biso   1.000  C
  H10      1.0000 0.13020  0.07990  0.62620  Biso   1.000  H
  C14      1.0000 0.16000  0.48390  0.30480  Biso   1.000  C
  C15      1.0000 0.16110  0.35940  0.34610  Biso   1.000  C
  C16      1.0000 0.15920  0.23890  0.31340  Biso   1.000  C
  H11      1.0000 0.15790  0.23590  0.26670  Biso   1.000  H
  C17      1.0000 0.15920  0.12290  0.34850  Biso   1.000  C
  C18      1.0000 0.16330  0.12770  0.41970  Biso   1.000  C
  H12      1.0000 0.16480  0.04970  0.44490  Biso   1.000  H
  C19      1.0000 0.16500  0.24810  0.45400  Biso   1.000  C
  C20      1.0000 0.16430  0.36340  0.41680  Biso   1.000  C
  H13      1.0000 0.16600  0.44430  0.43960  Biso   1.000  H
  C21      1.0000 0.14330  0.14770  0.54640  Biso   1.000  C
  H14      1.0000 0.12570  0.07570  0.51110  Biso   1.000  H
  C22      1.0000 0.16680  0.25060  0.52850  Biso   1.000  C
  C23      1.0000 0.19030  0.35520  0.58340  Biso   1.000  C
  H15      1.0000 0.20570  0.42840  0.57410  Biso   1.000  H
  Cu2      1.0000 0.66050  0.24110  0.26550  Biso   1.000  Cu
  O5       1.0000 0.65547  0.09200  0.33080  Biso   1.000  O
  O6       1.0000 0.66250  0.97400  0.24590  Biso   1.000  O
  O7       1.0000 0.65410  0.38970  0.34130  Biso   1.000  O
  O8       1.0000 0.65480  0.49320  0.24870  Biso   1.000  O
  N4       1.0000 0.56853  0.23070  0.17910  Biso   1.000  N
  N5       1.0000 0.66888  0.75160  0.66850  Biso   1.000  N
  N6       1.0000 0.25188  0.24840  0.85430  Biso   1.000  N
  C24      1.0000 0.54330  0.15160  0.11520  Biso   1.000  C
  H16      1.0000 0.56870  0.09560  0.11240  Biso   1.000  H
  C25      1.0000 0.48200  0.14600  0.05240  Biso   1.000  C
  H17      1.0000 0.46710  0.08820  0.00860  Biso   1.000  H
  C26      1.0000 0.44250  0.22610  0.05400  Biso   1.000  C
  C27      1.0000 0.46840  0.30460  0.12290  Biso   1.000  C
  H18      1.0000 0.44370  0.35770  0.12870  Biso   1.000  H
  C28      1.0000 0.53060  0.30480  0.18320  Biso   1.000  C
  H19      1.0000 0.54690  0.35930  0.22880  Biso   1.000  H
  C29      1.0000 0.37640  0.22990  0.98520  Biso   1.000  C
  C30      1.0000 0.35420  0.20380  0.90480  Biso   1.000  C
  H20      1.0000 0.38080  0.18090  0.89310  Biso   1.000  H
  C31      1.0000 0.29200  0.21200  0.84170  Biso   1.000  C
  H21      1.0000 0.27780  0.19110  0.78820  Biso   1.000  H
  C32      1.0000 0.27340  0.27190  0.93270  Biso   1.000  C
  H22      1.0000 0.24580  0.29510  0.94280  Biso   1.000  H
  C33      1.0000 0.33390  0.26360  0.99840  Biso   1.000  C
  H23      1.0000 0.34660  0.28030  0.05160  Biso   1.000  H
  C34      1.0000 0.65580  0.49210  0.31050  Biso   1.000  C
  C35      1.0000 0.69120  0.85150  0.65150  Biso   1.000  C
  H24      1.0000 0.70820  0.92240  0.68790  Biso   1.000  H
  C36      1.0000 0.64560  0.65130  0.61570  Biso   1.000  C
  H25      1.0000 0.63020  0.57990  0.62620  Biso   1.000  H
  C37      1.0000 0.66000  0.98390  0.30480  Biso   1.000  C
  C38      1.0000 0.66110  0.85940  0.34610  Biso   1.000  C
  C39      1.0000 0.65920  0.73890  0.31340  Biso   1.000  C
  H26      1.0000 0.65790  0.73590  0.26670  Biso   1.000  H
  C40      1.0000 0.65920  0.62290  0.34850  Biso   1.000  C
  C41      1.0000 0.66330  0.62770  0.41970  Biso   1.000  C
  H27      1.0000 0.66480  0.54970  0.44490  Biso   1.000  H
  C42      1.0000 0.66500  0.74810  0.45400  Biso   1.000  C
  C43      1.0000 0.66430  0.86340  0.41680  Biso   1.000  C
  H28      1.0000 0.66600  0.94430  0.43960  Biso   1.000  H
  C44      1.0000 0.64330  0.64770  0.54640  Biso   1.000  C
  H29      1.0000 0.62570  0.57570  0.51110  Biso   1.000  H
  C45      1.0000 0.66680  0.75060  0.52850  Biso   1.000  C
  C46      1.0000 0.69030  0.85520  0.58340  Biso   1.000  C
  H30      1.0000 0.70570  0.92840  0.57410  Biso   1.000  H
  Cu3      1.0000 0.16050  0.25890  0.76550  Biso   1.000  Cu
  O9       1.0000 0.15547  0.40800  0.83080  Biso   1.000  O
  O10      1.0000 0.16250  0.52600  0.74590  Biso   1.000  O
  O11      1.0000 0.15410  0.11030  0.84130  Biso   1.000  O
  O12      1.0000 0.15480  0.00680  0.74870  Biso   1.000  O
  N7       1.0000 0.06853  0.26930  0.67910  Biso   1.000  N
  N8       1.0000 0.16888  0.74840  0.16850  Biso   1.000  N
  N9       1.0000 0.75188  0.25160  0.35430  Biso   1.000  N
  C47      1.0000 0.04330  0.34840  0.61520  Biso   1.000  C
  H31      1.0000 0.06870  0.40440  0.61240  Biso   1.000  H
  C48      1.0000 0.98200  0.35400  0.55240  Biso   1.000  C
  H32      1.0000 0.96710  0.41180  0.50860  Biso   1.000  H
  C49      1.0000 0.94250  0.27390  0.55400  Biso   1.000  C
  C50      1.0000 0.96840  0.19540  0.62290  Biso   1.000  C
  H33      1.0000 0.94370  0.14230  0.62870  Biso   1.000  H
  C51      1.0000 0.03060  0.19520  0.68320  Biso   1.000  C
  H34      1.0000 0.04690  0.14070  0.72880  Biso   1.000  H
  C52      1.0000 0.87640  0.27010  0.48520  Biso   1.000  C
  C53      1.0000 0.85420  0.29620  0.40480  Biso   1.000  C
  H35      1.0000 0.88080  0.31910  0.39310  Biso   1.000  H
  C54      1.0000 0.79200  0.28800  0.34170  Biso   1.000  C
  H36      1.0000 0.77780  0.30890  0.28820  Biso   1.000  H
  C55      1.0000 0.77340  0.22810  0.43270  Biso   1.000  C
  H37      1.0000 0.74580  0.20490  0.44280  Biso   1.000  H
  C56      1.0000 0.83390  0.23640  0.49840  Biso   1.000  C
  H38      1.0000 0.84660  0.21970  0.55160  Biso   1.000  H
  C57      1.0000 0.15580  0.00790  0.81050  Biso   1.000  C
  C58      1.0000 0.19120  0.64850  0.15150  Biso   1.000  C
  H39      1.0000 0.20820  0.57760  0.18790  Biso   1.000  H
  C59      1.0000 0.14560  0.84870  0.11570  Biso   1.000  C
  H40      1.0000 0.13020  0.92010  0.12620  Biso   1.000  H
  C60      1.0000 0.16000  0.51610  0.80480  Biso   1.000  C
  C61      1.0000 0.16110  0.64060  0.84610  Biso   1.000  C
  C62      1.0000 0.15920  0.76110  0.81340  Biso   1.000  C
  H41      1.0000 0.15790  0.76410  0.76670  Biso   1.000  H
  C63      1.0000 0.15920  0.87710  0.84850  Biso   1.000  C
  C64      1.0000 0.16330  0.87230  0.91970  Biso   1.000  C
  H42      1.0000 0.16480  0.95030  0.94490  Biso   1.000  H
  C65      1.0000 0.16500  0.75190  0.95400  Biso   1.000  C
  C66      1.0000 0.16430  0.63660  0.91680  Biso   1.000  C
  H43      1.0000 0.16600  0.55570  0.93960  Biso   1.000  H
  C67      1.0000 0.14330  0.85230  0.04640  Biso   1.000  C
  H44      1.0000 0.12570  0.92430  0.01110  Biso   1.000  H
  C68      1.0000 0.16680  0.74940  0.02850  Biso   1.000  C
  C69      1.0000 0.19030  0.64480  0.08340  Biso   1.000  C
  H45      1.0000 0.20570  0.57160  0.07410  Biso   1.000  H
  Cu4      1.0000 0.66050  0.75890  0.76550  Biso   1.000  Cu
  O13      1.0000 0.65547  0.90800  0.83080  Biso   1.000  O
  O14      1.0000 0.66250  0.02600  0.74590  Biso   1.000  O
  O15      1.0000 0.65410  0.61030  0.84130  Biso   1.000  O
  O16      1.0000 0.65480  0.50680  0.74870  Biso   1.000  O
  N10      1.0000 0.56853  0.76930  0.67910  Biso   1.000  N
  N11      1.0000 0.66888  0.24840  0.16850  Biso   1.000  N
  N12      1.0000 0.25188  0.75160  0.35430  Biso   1.000  N
  C70      1.0000 0.54330  0.84840  0.61520  Biso   1.000  C
  H46      1.0000 0.56870  0.90440  0.61240  Biso   1.000  H
  C71      1.0000 0.48200  0.85400  0.55240  Biso   1.000  C
  H47      1.0000 0.46710  0.91180  0.50860  Biso   1.000  H
  C72      1.0000 0.44250  0.77390  0.55400  Biso   1.000  C
  C73      1.0000 0.46840  0.69540  0.62290  Biso   1.000  C
  H48      1.0000 0.44370  0.64230  0.62870  Biso   1.000  H
  C74      1.0000 0.53060  0.69520  0.68320  Biso   1.000  C
  H49      1.0000 0.54690  0.64070  0.72880  Biso   1.000  H
  C75      1.0000 0.37640  0.77010  0.48520  Biso   1.000  C
  C76      1.0000 0.35420  0.79620  0.40480  Biso   1.000  C
  H50      1.0000 0.38080  0.81910  0.39310  Biso   1.000  H
  C77      1.0000 0.29200  0.78800  0.34170  Biso   1.000  C
  H51      1.0000 0.27780  0.80890  0.28820  Biso   1.000  H
  C78      1.0000 0.27340  0.72810  0.43270  Biso   1.000  C
  H52      1.0000 0.24580  0.70490  0.44280  Biso   1.000  H
  C79      1.0000 0.33390  0.73640  0.49840  Biso   1.000  C
  H53      1.0000 0.34660  0.71970  0.55160  Biso   1.000  H
  C80      1.0000 0.65580  0.50790  0.81050  Biso   1.000  C
  C81      1.0000 0.69120  0.14850  0.15150  Biso   1.000  C
  H54      1.0000 0.70820  0.07760  0.18790  Biso   1.000  H
  C82      1.0000 0.64560  0.34870  0.11570  Biso   1.000  C
  H55      1.0000 0.63020  0.42010  0.12620  Biso   1.000  H
  C83      1.0000 0.66000  0.01610  0.80480  Biso   1.000  C
  C84      1.0000 0.66110  0.14060  0.84610  Biso   1.000  C
  C85      1.0000 0.65920  0.26110  0.81340  Biso   1.000  C
  H56      1.0000 0.65790  0.26410  0.76670  Biso   1.000  H
  C86      1.0000 0.65920  0.37710  0.84850  Biso   1.000  C
  C87      1.0000 0.66330  0.37230  0.91970  Biso   1.000  C
  H57      1.0000 0.66480  0.45030  0.94490  Biso   1.000  H
  C88      1.0000 0.66500  0.25190  0.95400  Biso   1.000  C
  C89      1.0000 0.66430  0.13660  0.91680  Biso   1.000  C
  H58      1.0000 0.66600  0.05570  0.93960  Biso   1.000  H
  C90      1.0000 0.64330  0.35230  0.04640  Biso   1.000  C
  H59      1.0000 0.62570  0.42430  0.01110  Biso   1.000  H
  C91      1.0000 0.66680  0.24940  0.02850  Biso   1.000  C
  C92      1.0000 0.69030  0.14480  0.08340  Biso   1.000  C
  H60      1.0000 0.70570  0.07160  0.07410  Biso   1.000  H
  Cu5      1.0000 0.83950  0.74110  0.23450  Biso   1.000  Cu
  O17      1.0000 0.84453  0.59200  0.16920  Biso   1.000  O
  O18      1.0000 0.83750  0.47400  0.25410  Biso   1.000  O
  O19      1.0000 0.84590  0.88970  0.15870  Biso   1.000  O
  O20      1.0000 0.84520  0.99320  0.25130  Biso   1.000  O
  N13      1.0000 0.93147  0.73070  0.32090  Biso   1.000  N
  N14      1.0000 0.83112  0.25160  0.83150  Biso   1.000  N
  N15      1.0000 0.24812  0.74840  0.64570  Biso   1.000  N
  C93      1.0000 0.95670  0.65160  0.38480  Biso   1.000  C
  H61      1.0000 0.93130  0.59560  0.38760  Biso   1.000  H
  C94      1.0000 0.01800  0.64600  0.44760  Biso   1.000  C
  H62      1.0000 0.03290  0.58820  0.49140  Biso   1.000  H
  C95      1.0000 0.05750  0.72610  0.44600  Biso   1.000  C
  C96      1.0000 0.03160  0.80460  0.37710  Biso   1.000  C
  H63      1.0000 0.05630  0.85770  0.37130  Biso   1.000  H
  C97      1.0000 0.96940  0.80480  0.31680  Biso   1.000  C
  H64      1.0000 0.95310  0.85930  0.27120  Biso   1.000  H
  C98      1.0000 0.12360  0.72990  0.51480  Biso   1.000  C
  C99      1.0000 0.14580  0.70380  0.59520  Biso   1.000  C
  H65      1.0000 0.11920  0.68090  0.60690  Biso   1.000  H
  C100     1.0000 0.20800  0.71200  0.65830  Biso   1.000  C
  H66      1.0000 0.22220  0.69110  0.71180  Biso   1.000  H
  C101     1.0000 0.22660  0.77190  0.56730  Biso   1.000  C
  H67      1.0000 0.25420  0.79510  0.55720  Biso   1.000  H
  C102     1.0000 0.16610  0.76360  0.50160  Biso   1.000  C
  H68      1.0000 0.15340  0.78030  0.44840  Biso   1.000  H
  C103     1.0000 0.84420  0.99210  0.18950  Biso   1.000  C
  C104     1.0000 0.80880  0.35150  0.84850  Biso   1.000  C
  H69      1.0000 0.79180  0.42240  0.81210  Biso   1.000  H
  C105     1.0000 0.85440  0.15130  0.88430  Biso   1.000  C
  H70      1.0000 0.86980  0.07990  0.87380  Biso   1.000  H
  C106     1.0000 0.84000  0.48390  0.19520  Biso   1.000  C
  C107     1.0000 0.83890  0.35940  0.15390  Biso   1.000  C
  C108     1.0000 0.84080  0.23890  0.18660  Biso   1.000  C
  H71      1.0000 0.84210  0.23590  0.23330  Biso   1.000  H
  C109     1.0000 0.84080  0.12290  0.15150  Biso   1.000  C
  C110     1.0000 0.83670  0.12770  0.08030  Biso   1.000  C
  H72      1.0000 0.83520  0.04970  0.05510  Biso   1.000  H
  C111     1.0000 0.83500  0.24810  0.04600  Biso   1.000  C
  C112     1.0000 0.83570  0.36340  0.08320  Biso   1.000  C
  H73      1.0000 0.83400  0.44430  0.06040  Biso   1.000  H
  C113     1.0000 0.85670  0.14770  0.95360  Biso   1.000  C
  H74      1.0000 0.87430  0.07570  0.98890  Biso   1.000  H
  C114     1.0000 0.83320  0.25060  0.97150  Biso   1.000  C
  C115     1.0000 0.80970  0.35520  0.91660  Biso   1.000  C
  H75      1.0000 0.79430  0.42840  0.92590  Biso   1.000  H
  Cu6      1.0000 0.33950  0.24110  0.23450  Biso   1.000  Cu
  O21      1.0000 0.34453  0.09200  0.16920  Biso   1.000  O
  O22      1.0000 0.33750  0.97400  0.25410  Biso   1.000  O
  O23      1.0000 0.34590  0.38970  0.15870  Biso   1.000  O
  O24      1.0000 0.34520  0.49320  0.25130  Biso   1.000  O
  N16      1.0000 0.43147  0.23070  0.32090  Biso   1.000  N
  N17      1.0000 0.33112  0.75160  0.83150  Biso   1.000  N
  N18      1.0000 0.74812  0.24840  0.64570  Biso   1.000  N
  C116     1.0000 0.45670  0.15160  0.38480  Biso   1.000  C
  H76      1.0000 0.43130  0.09560  0.38760  Biso   1.000  H
  C117     1.0000 0.51800  0.14600  0.44760  Biso   1.000  C
  H77      1.0000 0.53290  0.08820  0.49140  Biso   1.000  H
  C118     1.0000 0.55750  0.22610  0.44600  Biso   1.000  C
  C119     1.0000 0.53160  0.30460  0.37710  Biso   1.000  C
  H78      1.0000 0.55630  0.35770  0.37130  Biso   1.000  H
  C120     1.0000 0.46940  0.30480  0.31680  Biso   1.000  C
  H79      1.0000 0.45310  0.35930  0.27120  Biso   1.000  H
  C121     1.0000 0.62360  0.22990  0.51480  Biso   1.000  C
  C122     1.0000 0.64580  0.20380  0.59520  Biso   1.000  C
  H80      1.0000 0.61920  0.18090  0.60690  Biso   1.000  H
  C123     1.0000 0.70800  0.21200  0.65830  Biso   1.000  C
  H81      1.0000 0.72220  0.19110  0.71180  Biso   1.000  H
  C124     1.0000 0.72660  0.27190  0.56730  Biso   1.000  C
  H82      1.0000 0.75420  0.29510  0.55720  Biso   1.000  H
  C125     1.0000 0.66610  0.26360  0.50160  Biso   1.000  C
  H83      1.0000 0.65340  0.28030  0.44840  Biso   1.000  H
  C126     1.0000 0.34420  0.49210  0.18950  Biso   1.000  C
  C127     1.0000 0.30880  0.85150  0.84850  Biso   1.000  C
  H84      1.0000 0.29180  0.92240  0.81210  Biso   1.000  H
  C128     1.0000 0.35440  0.65130  0.88430  Biso   1.000  C
  H85      1.0000 0.36980  0.57990  0.87380  Biso   1.000  H
  C129     1.0000 0.34000  0.98390  0.19520  Biso   1.000  C
  C130     1.0000 0.33890  0.85940  0.15390  Biso   1.000  C
  C131     1.0000 0.34080  0.73890  0.18660  Biso   1.000  C
  H86      1.0000 0.34210  0.73590  0.23330  Biso   1.000  H
  C132     1.0000 0.34080  0.62290  0.15150  Biso   1.000  C
  C133     1.0000 0.33670  0.62770  0.08030  Biso   1.000  C
  H87      1.0000 0.33520  0.54970  0.05510  Biso   1.000  H
  C134     1.0000 0.33500  0.74810  0.04600  Biso   1.000  C
  C135     1.0000 0.33570  0.86340  0.08320  Biso   1.000  C
  H88      1.0000 0.33400  0.94430  0.06040  Biso   1.000  H
  C136     1.0000 0.35670  0.64770  0.95360  Biso   1.000  C
  H89      1.0000 0.37430  0.57570  0.98890  Biso   1.000  H
  C137     1.0000 0.33320  0.75060  0.97150  Biso   1.000  C
  C138     1.0000 0.30970  0.85520  0.91660  Biso   1.000  C
  H90      1.0000 0.29430  0.92840  0.92590  Biso   1.000  H
  Cu7      1.0000 0.83950  0.25890  0.73450  Biso   1.000  Cu
  O25      1.0000 0.84453  0.40800  0.66920  Biso   1.000  O
  O26      1.0000 0.83750  0.52600  0.75410  Biso   1.000  O
  O27      1.0000 0.84590  0.11030  0.65870  Biso   1.000  O
  O28      1.0000 0.84520  0.00680  0.75130  Biso   1.000  O
  N19      1.0000 0.93147  0.26930  0.82090  Biso   1.000  N
  N20      1.0000 0.83112  0.74840  0.33150  Biso   1.000  N
  N21      1.0000 0.24812  0.25160  0.14570  Biso   1.000  N
  C139     1.0000 0.95670  0.34840  0.88480  Biso   1.000  C
  H91      1.0000 0.93130  0.40440  0.88760  Biso   1.000  H
  C140     1.0000 0.01800  0.35400  0.94760  Biso   1.000  C
  H92      1.0000 0.03290  0.41180  0.99140  Biso   1.000  H
  C141     1.0000 0.05750  0.27390  0.94600  Biso   1.000  C
  C142     1.0000 0.03160  0.19540  0.87710  Biso   1.000  C
  H93      1.0000 0.05630  0.14230  0.87130  Biso   1.000  H
  C143     1.0000 0.96940  0.19520  0.81680  Biso   1.000  C
  H94      1.0000 0.95310  0.14070  0.77120  Biso   1.000  H
  C144     1.0000 0.12360  0.27010  0.01480  Biso   1.000  C
  C145     1.0000 0.14580  0.29620  0.09520  Biso   1.000  C
  H95      1.0000 0.11920  0.31910  0.10690  Biso   1.000  H
  C146     1.0000 0.20800  0.28800  0.15830  Biso   1.000  C
  H96      1.0000 0.22220  0.30890  0.21180  Biso   1.000  H
  C147     1.0000 0.22660  0.22810  0.06730  Biso   1.000  C
  H97      1.0000 0.25420  0.20490  0.05720  Biso   1.000  H
  C148     1.0000 0.16610  0.23640  0.00160  Biso   1.000  C
  H98      1.0000 0.15340  0.21970  0.94840  Biso   1.000  H
  C149     1.0000 0.84420  0.00790  0.68950  Biso   1.000  C
  C150     1.0000 0.80880  0.64850  0.34850  Biso   1.000  C
  H99      1.0000 0.79180  0.57760  0.31210  Biso   1.000  H
  C151     1.0000 0.85440  0.84870  0.38430  Biso   1.000  C
  H100     1.0000 0.86980  0.92010  0.37380  Biso   1.000  H
  C152     1.0000 0.84000  0.51610  0.69520  Biso   1.000  C
  C153     1.0000 0.83890  0.64060  0.65390  Biso   1.000  C
  C154     1.0000 0.84080  0.76110  0.68660  Biso   1.000  C
  H101     1.0000 0.84210  0.76410  0.73330  Biso   1.000  H
  C155     1.0000 0.84080  0.87710  0.65150  Biso   1.000  C
  C156     1.0000 0.83670  0.87230  0.58030  Biso   1.000  C
  H102     1.0000 0.83520  0.95030  0.55510  Biso   1.000  H
  C157     1.0000 0.83500  0.75190  0.54600  Biso   1.000  C
  C158     1.0000 0.83570  0.63660  0.58320  Biso   1.000  C
  H103     1.0000 0.83400  0.55570  0.56040  Biso   1.000  H
  C159     1.0000 0.85670  0.85230  0.45360  Biso   1.000  C
  H104     1.0000 0.87430  0.92430  0.48890  Biso   1.000  H
  C160     1.0000 0.83320  0.74940  0.47150  Biso   1.000  C
  C161     1.0000 0.80970  0.64480  0.41660  Biso   1.000  C
  H105     1.0000 0.79430  0.57160  0.42590  Biso   1.000  H
  Cu8      1.0000 0.33950  0.75890  0.73450  Biso   1.000  Cu
  O29      1.0000 0.34453  0.90800  0.66920  Biso   1.000  O
  O30      1.0000 0.33750  0.02600  0.75410  Biso   1.000  O
  O31      1.0000 0.34590  0.61030  0.65870  Biso   1.000  O
  O32      1.0000 0.34520  0.50680  0.75130  Biso   1.000  O
  N22      1.0000 0.43147  0.76930  0.82090  Biso   1.000  N
  N23      1.0000 0.33112  0.24840  0.33150  Biso   1.000  N
  N24      1.0000 0.74812  0.75160  0.14570  Biso   1.000  N
  C162     1.0000 0.45670  0.84840  0.88480  Biso   1.000  C
  H106     1.0000 0.43130  0.90440  0.88760  Biso   1.000  H
  C163     1.0000 0.51800  0.85400  0.94760  Biso   1.000  C
  H107     1.0000 0.53290  0.91180  0.99140  Biso   1.000  H
  C164     1.0000 0.55750  0.77390  0.94600  Biso   1.000  C
  C165     1.0000 0.53160  0.69540  0.87710  Biso   1.000  C
  H108     1.0000 0.55630  0.64230  0.87130  Biso   1.000  H
  C166     1.0000 0.46940  0.69520  0.81680  Biso   1.000  C
  H109     1.0000 0.45310  0.64070  0.77120  Biso   1.000  H
  C167     1.0000 0.62360  0.77010  0.01480  Biso   1.000  C
  C168     1.0000 0.64580  0.79620  0.09520  Biso   1.000  C
  H110     1.0000 0.61920  0.81910  0.10690  Biso   1.000  H
  C169     1.0000 0.70800  0.78800  0.15830  Biso   1.000  C
  H111     1.0000 0.72220  0.80890  0.21180  Biso   1.000  H
  C170     1.0000 0.72660  0.72810  0.06730  Biso   1.000  C
  H112     1.0000 0.75420  0.70490  0.05720  Biso   1.000  H
  C171     1.0000 0.66610  0.73640  0.00160  Biso   1.000  C
  H113     1.0000 0.65340  0.71970  0.94840  Biso   1.000  H
  C172     1.0000 0.34420  0.50790  0.68950  Biso   1.000  C
  C173     1.0000 0.30880  0.14850  0.34850  Biso   1.000  C
  H114     1.0000 0.29180  0.07760  0.31210  Biso   1.000  H
  C174     1.0000 0.35440  0.34870  0.38430  Biso   1.000  C
  H115     1.0000 0.36980  0.42010  0.37380  Biso   1.000  H
  C175     1.0000 0.34000  0.01610  0.69520  Biso   1.000  C
  C176     1.0000 0.33890  0.14060  0.65390  Biso   1.000  C
  C177     1.0000 0.34080  0.26110  0.68660  Biso   1.000  C
  H116     1.0000 0.34210  0.26410  0.73330  Biso   1.000  H
  C178     1.0000 0.34080  0.37710  0.65150  Biso   1.000  C
  C179     1.0000 0.33670  0.37230  0.58030  Biso   1.000  C
  H117     1.0000 0.33520  0.45030  0.55510  Biso   1.000  H
  C180     1.0000 0.33500  0.25190  0.54600  Biso   1.000  C
  C181     1.0000 0.33570  0.13660  0.58320  Biso   1.000  C
  H118     1.0000 0.33400  0.05570  0.56040  Biso   1.000  H
  C182     1.0000 0.35670  0.35230  0.45360  Biso   1.000  C
  H119     1.0000 0.37430  0.42430  0.48890  Biso   1.000  H
  C183     1.0000 0.33320  0.24940  0.47150  Biso   1.000  C
  C184     1.0000 0.30970  0.14480  0.41660  Biso   1.000  C
  H120     1.0000 0.29430  0.07160  0.42590  Biso   1.000  H
