data_image0
_cell_length_a       17.41
_cell_length_b       6.7444
_cell_length_c       12.1646
_cell_angle_alpha    90
_cell_angle_beta     90
_cell_angle_gamma    90

_symmetry_space_group_name_H-M    "P 1"
_symmetry_int_tables_number       1

loop_
  _symmetry_equiv_pos_as_xyz
  'x, y, z'

loop_
  _atom_site_label
  _atom_site_occupancy
  _atom_site_fract_x
  _atom_site_fract_y
  _atom_site_fract_z
  _atom_site_thermal_displace_type
  _atom_site_B_iso_or_equiv
  _atom_site_type_symbol
  O1       1.0000 0.07387  0.91692  0.88610  Biso   1.000  O
  O2       1.0000 0.41090  0.91680  0.58881  Biso   1.000  O
  C1       1.0000 0.27375  0.92810  0.70170  Biso   1.000  C
  H1       1.0000 0.29650  0.04760  0.68180  Biso   1.000  H
  C2       1.0000 0.20571  0.92800  0.76060  Biso   1.000  C
  H2       1.0000 0.18280  0.04750  0.78020  Biso   1.000  H
  O3       1.0000 0.42613  0.08308  0.38610  Biso   1.000  O
  O4       1.0000 0.08910  0.08320  0.08881  Biso   1.000  O
  C3       1.0000 0.22625  0.07190  0.20170  Biso   1.000  C
  H3       1.0000 0.20350  0.95240  0.18180  Biso   1.000  H
  C4       1.0000 0.29429  0.07200  0.26060  Biso   1.000  C
  H4       1.0000 0.31720  0.95250  0.28020  Biso   1.000  H
  O5       1.0000 0.92613  0.41692  0.11390  Biso   1.000  O
  O6       1.0000 0.58910  0.41680  0.41119  Biso   1.000  O
  C5       1.0000 0.72625  0.42810  0.29830  Biso   1.000  C
  H5       1.0000 0.70350  0.54760  0.31820  Biso   1.000  H
  C6       1.0000 0.79429  0.42800  0.23940  Biso   1.000  C
  H6       1.0000 0.81720  0.54750  0.21980  Biso   1.000  H
  O7       1.0000 0.57387  0.58308  0.61390  Biso   1.000  O
  O8       1.0000 0.91090  0.58320  0.91119  Biso   1.000  O
  C7       1.0000 0.77375  0.57190  0.79830  Biso   1.000  C
  H7       1.0000 0.79650  0.45240  0.81820  Biso   1.000  H
  C8       1.0000 0.70571  0.57200  0.73940  Biso   1.000  C
  H8       1.0000 0.68280  0.45250  0.71980  Biso   1.000  H
  O9       1.0000 0.92613  0.08308  0.11390  Biso   1.000  O
  O10      1.0000 0.58910  0.08320  0.41119  Biso   1.000  O
  C9       1.0000 0.72625  0.07190  0.29830  Biso   1.000  C
  H9       1.0000 0.70350  0.95240  0.31820  Biso   1.000  H
  C10      1.0000 0.79429  0.07200  0.23940  Biso   1.000  C
  H10      1.0000 0.81720  0.95250  0.21980  Biso   1.000  H
  O11      1.0000 0.57387  0.91692  0.61390  Biso   1.000  O
  O12      1.0000 0.91090  0.91680  0.91119  Biso   1.000  O
  C11      1.0000 0.77375  0.92810  0.79830  Biso   1.000  C
  H11      1.0000 0.79650  0.04760  0.81820  Biso   1.000  H
  C12      1.0000 0.70571  0.92800  0.73940  Biso   1.000  C
  H12      1.0000 0.68280  0.04750  0.71980  Biso   1.000  H
  O13      1.0000 0.07387  0.58308  0.88610  Biso   1.000  O
  O14      1.0000 0.41090  0.58320  0.58881  Biso   1.000  O
  C13      1.0000 0.27375  0.57190  0.70170  Biso   1.000  C
  H13      1.0000 0.29650  0.45240  0.68180  Biso   1.000  H
  C14      1.0000 0.20571  0.57200  0.76060  Biso   1.000  C
  H14      1.0000 0.18280  0.45250  0.78020  Biso   1.000  H
  O15      1.0000 0.42613  0.41692  0.38610  Biso   1.000  O
  O16      1.0000 0.08910  0.41680  0.08881  Biso   1.000  O
  C15      1.0000 0.22625  0.42810  0.20170  Biso   1.000  C
  H15      1.0000 0.20350  0.54760  0.18180  Biso   1.000  H
  C16      1.0000 0.29429  0.42800  0.26060  Biso   1.000  C
  H16      1.0000 0.31720  0.54750  0.28020  Biso   1.000  H
  Ga1      1.0000 0.00000  0.00000  0.00000  Biso   1.000  Ga
  Ga2      1.0000 0.50000  0.00000  0.50000  Biso   1.000  Ga
  Ga3      1.0000 0.00000  0.50000  0.00000  Biso   1.000  Ga
  Ga4      1.0000 0.50000  0.50000  0.50000  Biso   1.000  Ga
  O17      1.0000 0.00563  0.75000  0.07130  Biso   1.000  O
  H17      1.0000 0.01800  0.75000  0.11400  Biso   1.000  H
  C17      1.0000 0.38288  0.75000  0.61120  Biso   1.000  C
  C18      1.0000 0.30796  0.75000  0.67240  Biso   1.000  C
  C19      1.0000 0.17169  0.75000  0.79030  Biso   1.000  C
  C20      1.0000 0.10046  0.75000  0.86000  Biso   1.000  C
  O18      1.0000 0.49437  0.25000  0.57130  Biso   1.000  O
  H18      1.0000 0.48200  0.25000  0.61400  Biso   1.000  H
  C21      1.0000 0.11712  0.25000  0.11120  Biso   1.000  C
  C22      1.0000 0.19204  0.25000  0.17240  Biso   1.000  C
  C23      1.0000 0.32831  0.25000  0.29030  Biso   1.000  C
  C24      1.0000 0.39954  0.25000  0.36000  Biso   1.000  C
  O19      1.0000 0.99437  0.25000  0.92870  Biso   1.000  O
  H19      1.0000 0.98200  0.25000  0.88600  Biso   1.000  H
  C25      1.0000 0.61712  0.25000  0.38880  Biso   1.000  C
  C26      1.0000 0.69204  0.25000  0.32760  Biso   1.000  C
  C27      1.0000 0.82831  0.25000  0.20970  Biso   1.000  C
  C28      1.0000 0.89954  0.25000  0.14000  Biso   1.000  C
  O20      1.0000 0.50563  0.75000  0.42870  Biso   1.000  O
  H20      1.0000 0.51800  0.75000  0.38600  Biso   1.000  H
  C29      1.0000 0.88288  0.75000  0.88880  Biso   1.000  C
  C30      1.0000 0.80796  0.75000  0.82760  Biso   1.000  C
  C31      1.0000 0.67169  0.75000  0.70970  Biso   1.000  C
  C32      1.0000 0.60046  0.75000  0.64000  Biso   1.000  C
