data_DOTWAL_clean
_audit_creation_date              2014-07-02
_audit_creation_method            'Materials Studio'
_symmetry_space_group_name_H-M    'P1'
_symmetry_Int_Tables_number       1
_symmetry_cell_setting            triclinic
loop_
_symmetry_equiv_pos_as_xyz
  x,y,z
_cell_length_a                    9.5228
_cell_length_b                    9.5228
_cell_length_c                    17.4700
_cell_angle_alpha                 90.0000
_cell_angle_beta                  90.0000
_cell_angle_gamma                 120.0000
loop_
_atom_site_label
_atom_site_type_symbol
_atom_site_fract_x
_atom_site_fract_y
_atom_site_fract_z
_atom_site_U_iso_or_equiv
_atom_site_adp_type
_atom_site_occupancy
La1    La    0.33333   0.66666   0.75000   0.01267  Uiso   1.00
La2    La    0.66667   0.33334   0.25000   0.01267  Uiso   1.00
La3    La    0.00000   0.00000   0.00000   0.01267  Uiso   1.00
La4    La    0.00000   0.00000   0.50000   0.01267  Uiso   1.00
H1     H     0.50300   0.67030   0.97570   0.01267  Uiso   1.00
H2     H     0.57530   0.59530   0.91860   0.01267  Uiso   1.00
H3     H     0.16730   0.49700   0.97570   0.01267  Uiso   1.00
H4     H     0.02000   0.42470   0.91860   0.01267  Uiso   1.00
H5     H     0.32970   0.83270   0.97570   0.01267  Uiso   1.00
H6     H     0.40470   0.98000   0.91860   0.01267  Uiso   1.00
H7     H     0.50300   0.67030   0.52430   0.01267  Uiso   1.00
H8     H     0.57530   0.59530   0.58140   0.01267  Uiso   1.00
H9     H     0.16730   0.49700   0.52430   0.01267  Uiso   1.00
H10    H     0.02000   0.42470   0.58140   0.01267  Uiso   1.00
H11    H     0.32970   0.83270   0.52430   0.01267  Uiso   1.00
H12    H     0.40470   0.98000   0.58140   0.01267  Uiso   1.00
H13    H     0.83270   0.32970   0.02430   0.01267  Uiso   1.00
H14    H     0.98000   0.40470   0.08140   0.01267  Uiso   1.00
H15    H     0.67030   0.50300   0.02430   0.01267  Uiso   1.00
H16    H     0.59530   0.57530   0.08140   0.01267  Uiso   1.00
H17    H     0.49700   0.16730   0.02430   0.01267  Uiso   1.00
H18    H     0.42470   0.02000   0.08140   0.01267  Uiso   1.00
H19    H     0.83270   0.32970   0.47570   0.01267  Uiso   1.00
H20    H     0.98000   0.40470   0.41860   0.01267  Uiso   1.00
H21    H     0.67030   0.50300   0.47570   0.01267  Uiso   1.00
H22    H     0.59530   0.57530   0.41860   0.01267  Uiso   1.00
H23    H     0.49700   0.16730   0.47570   0.01267  Uiso   1.00
H24    H     0.42470   0.02000   0.41860   0.01267  Uiso   1.00
C1     C     0.65030   0.83330   0.89470   0.01267  Uiso   1.00
C2     C     0.59980   0.69140   0.94790   0.01267  Uiso   1.00
C3     C     0.18300   0.34970   0.89470   0.01267  Uiso   1.00
C4     C     0.09160   0.40020   0.94790   0.01267  Uiso   1.00
C5     C     0.16670   0.81700   0.89470   0.01267  Uiso   1.00
C6     C     0.30860   0.90840   0.94790   0.01267  Uiso   1.00
C7     C     0.65030   0.83330   0.60530   0.01267  Uiso   1.00
C8     C     0.59980   0.69140   0.55210   0.01267  Uiso   1.00
C9     C     0.18300   0.34970   0.60530   0.01267  Uiso   1.00
C10    C     0.09160   0.40020   0.55210   0.01267  Uiso   1.00
C11    C     0.16670   0.81700   0.60530   0.01267  Uiso   1.00
C12    C     0.30860   0.90840   0.55210   0.01267  Uiso   1.00
C13    C     0.81700   0.16670   0.10530   0.01267  Uiso   1.00
C14    C     0.90840   0.30860   0.05210   0.01267  Uiso   1.00
C15    C     0.83330   0.65030   0.10530   0.01267  Uiso   1.00
C16    C     0.69140   0.59980   0.05210   0.01267  Uiso   1.00
C17    C     0.34970   0.18300   0.10530   0.01267  Uiso   1.00
C18    C     0.40020   0.09160   0.05210   0.01267  Uiso   1.00
C19    C     0.81700   0.16670   0.39470   0.01267  Uiso   1.00
C20    C     0.90840   0.30860   0.44790   0.01267  Uiso   1.00
C21    C     0.83330   0.65030   0.39470   0.01267  Uiso   1.00
C22    C     0.69140   0.59980   0.44790   0.01267  Uiso   1.00
C23    C     0.34970   0.18300   0.39470   0.01267  Uiso   1.00
C24    C     0.40020   0.09160   0.44790   0.01267  Uiso   1.00
O1     O     0.54910   0.82260   0.84510   0.01267  Uiso   1.00
O2     O     0.78650   0.95900   0.90430   0.01267  Uiso   1.00
O3     O     0.27350   0.45090   0.84510   0.01267  Uiso   1.00
O4     O     0.17250   0.21350   0.90430   0.01267  Uiso   1.00
O5     O     0.17740   0.72650   0.84510   0.01267  Uiso   1.00
O6     O     0.04100   0.82750   0.90430   0.01267  Uiso   1.00
O7     O     0.54910   0.82260   0.65490   0.01267  Uiso   1.00
O8     O     0.78650   0.95900   0.59570   0.01267  Uiso   1.00
O9     O     0.27350   0.45090   0.65490   0.01267  Uiso   1.00
O10    O     0.17250   0.21350   0.59570   0.01267  Uiso   1.00
O11    O     0.17740   0.72650   0.65490   0.01267  Uiso   1.00
O12    O     0.04100   0.82750   0.59570   0.01267  Uiso   1.00
O13    O     0.72650   0.17740   0.15490   0.01267  Uiso   1.00
O14    O     0.82750   0.04100   0.09570   0.01267  Uiso   1.00
O15    O     0.82260   0.54910   0.15490   0.01267  Uiso   1.00
O16    O     0.95900   0.78650   0.09570   0.01267  Uiso   1.00
O17    O     0.45090   0.27350   0.15490   0.01267  Uiso   1.00
O18    O     0.21350   0.17250   0.09570   0.01267  Uiso   1.00
O19    O     0.72650   0.17740   0.34510   0.01267  Uiso   1.00
O20    O     0.82750   0.04100   0.40430   0.01267  Uiso   1.00
O21    O     0.82260   0.54910   0.34510   0.01267  Uiso   1.00
O22    O     0.95900   0.78650   0.40430   0.01267  Uiso   1.00
O23    O     0.45090   0.27350   0.34510   0.01267  Uiso   1.00
O24    O     0.21350   0.17250   0.40430   0.01267  Uiso   1.00
O25    O     0.72720   0.72720   0.00000   0.01267  Uiso   1.00
O26    O     0.00000   0.27280   0.00000   0.01267  Uiso   1.00
O27    O     0.27280   0.00000   0.00000   0.01267  Uiso   1.00
O28    O     0.72720   0.72720   0.50000   0.01267  Uiso   1.00
O29    O     0.00000   0.27280   0.50000   0.01267  Uiso   1.00
O30    O     0.27280   0.00000   0.50000   0.01267  Uiso   1.00
