data_image0
_cell_length_a       15.9346
_cell_length_b       7.4039
_cell_length_c       16.2092
_cell_angle_alpha    90
_cell_angle_beta     111.885
_cell_angle_gamma    90

_symmetry_space_group_name_H-M    "P 1"
_symmetry_int_tables_number       1

loop_
  _symmetry_equiv_pos_as_xyz
  'x, y, z'

loop_
  _atom_site_label
  _atom_site_occupancy
  _atom_site_fract_x
  _atom_site_fract_y
  _atom_site_fract_z
  _atom_site_thermal_displace_type
  _atom_site_B_iso_or_equiv
  _atom_site_type_symbol
  P1       1.0000 0.13700  0.27660  0.69000  Biso   1.000  P
  P2       1.0000 0.41660  0.31870  0.66630  Biso   1.000  P
  P3       1.0000 0.43390  0.24920  0.38930  Biso   1.000  P
  P4       1.0000 0.21890  0.83230  0.46830  Biso   1.000  P
  O1       1.0000 0.41060  0.43660  0.41230  Biso   1.000  O
  O2       1.0000 0.28110  0.72810  0.43290  Biso   1.000  O
  O3       1.0000 0.35710  0.46590  0.60110  Biso   1.000  O
  O4       1.0000 0.46370  0.77780  0.56000  Biso   1.000  O
  O5       1.0000 0.35680  0.21520  0.70360  Biso   1.000  O
  O6       1.0000 0.15600  0.09640  0.65370  Biso   1.000  O
  O7       1.0000 0.19180  0.28200  0.79190  Biso   1.000  O
  O8       1.0000 0.27780  0.98100  0.53370  Biso   1.000  O
  O9       1.0000 0.16500  0.43850  0.64890  Biso   1.000  O
  O10      1.0000 0.18050  0.71020  0.52230  Biso   1.000  O
  O11      1.0000 0.45920  0.19980  0.61630  Biso   1.000  O
  O12      1.0000 0.38340  0.09950  0.41440  Biso   1.000  O
  O13      1.0000 0.41100  0.23640  0.28950  Biso   1.000  O
  O14      1.0000 0.03630  0.29520  0.67180  Biso   1.000  O
  O15      1.0000 0.49130  0.41020  0.74220  Biso   1.000  O
  O16      1.0000 0.14360  0.92640  0.39420  Biso   1.000  O
  Zn1      1.0000 0.38239  0.56950  0.49910  Biso   1.000  Zn
  Zn2      1.0000 0.27152  0.02330  0.65319  Biso   1.000  Zn
  Zn3      1.0000 0.24494  0.07410  0.87277  Biso   1.000  Zn
  Zn4      1.0000 0.40192  0.01400  0.53171  Biso   1.000  Zn
  Zn5      1.0000 0.95924  0.14740  0.71148  Biso   1.000  Zn
  P5       1.0000 0.36300  0.77660  0.81000  Biso   1.000  P
  P6       1.0000 0.08340  0.81870  0.83370  Biso   1.000  P
  P7       1.0000 0.06610  0.74920  0.11070  Biso   1.000  P
  P8       1.0000 0.28110  0.33230  0.03170  Biso   1.000  P
  O17      1.0000 0.08940  0.93660  0.08770  Biso   1.000  O
  O18      1.0000 0.21890  0.22810  0.06710  Biso   1.000  O
  O19      1.0000 0.14290  0.96590  0.89890  Biso   1.000  O
  O20      1.0000 0.03630  0.27780  0.94000  Biso   1.000  O
  O21      1.0000 0.14320  0.71520  0.79640  Biso   1.000  O
  O22      1.0000 0.34400  0.59640  0.84630  Biso   1.000  O
  O23      1.0000 0.30820  0.78200  0.70810  Biso   1.000  O
  O24      1.0000 0.22220  0.48100  0.96630  Biso   1.000  O
  O25      1.0000 0.33500  0.93850  0.85110  Biso   1.000  O
  O26      1.0000 0.31950  0.21020  0.97770  Biso   1.000  O
  O27      1.0000 0.04080  0.69980  0.88370  Biso   1.000  O
  O28      1.0000 0.11660  0.59950  0.08560  Biso   1.000  O
  O29      1.0000 0.08900  0.73640  0.21050  Biso   1.000  O
  O30      1.0000 0.46370  0.79520  0.82820  Biso   1.000  O
  O31      1.0000 0.00870  0.91020  0.75780  Biso   1.000  O
  O32      1.0000 0.35640  0.42640  0.10580  Biso   1.000  O
  Zn6      1.0000 0.11761  0.06950  0.00090  Biso   1.000  Zn
  Zn7      1.0000 0.22848  0.52330  0.84681  Biso   1.000  Zn
  Zn8      1.0000 0.25506  0.57410  0.62723  Biso   1.000  Zn
  Zn9      1.0000 0.09808  0.51400  0.96829  Biso   1.000  Zn
  Zn10     1.0000 0.54076  0.64740  0.78852  Biso   1.000  Zn
  P9       1.0000 0.86300  0.72340  0.31000  Biso   1.000  P
  P10      1.0000 0.58340  0.68130  0.33370  Biso   1.000  P
  P11      1.0000 0.56610  0.75080  0.61070  Biso   1.000  P
  P12      1.0000 0.78110  0.16770  0.53170  Biso   1.000  P
  O33      1.0000 0.58940  0.56340  0.58770  Biso   1.000  O
  O34      1.0000 0.71890  0.27190  0.56710  Biso   1.000  O
  O35      1.0000 0.64290  0.53410  0.39890  Biso   1.000  O
  O36      1.0000 0.53630  0.22220  0.44000  Biso   1.000  O
  O37      1.0000 0.64320  0.78480  0.29640  Biso   1.000  O
  O38      1.0000 0.84400  0.90360  0.34630  Biso   1.000  O
  O39      1.0000 0.80820  0.71800  0.20810  Biso   1.000  O
  O40      1.0000 0.72220  0.01900  0.46630  Biso   1.000  O
  O41      1.0000 0.83500  0.56150  0.35110  Biso   1.000  O
  O42      1.0000 0.81950  0.28980  0.47770  Biso   1.000  O
  O43      1.0000 0.54080  0.80020  0.38370  Biso   1.000  O
  O44      1.0000 0.61660  0.90050  0.58560  Biso   1.000  O
  O45      1.0000 0.58900  0.76360  0.71050  Biso   1.000  O
  O46      1.0000 0.96370  0.70480  0.32820  Biso   1.000  O
  O47      1.0000 0.50870  0.58980  0.25780  Biso   1.000  O
  O48      1.0000 0.85640  0.07360  0.60580  Biso   1.000  O
  Zn11     1.0000 0.61761  0.43050  0.50090  Biso   1.000  Zn
  Zn12     1.0000 0.72848  0.97670  0.34681  Biso   1.000  Zn
  Zn13     1.0000 0.75506  0.92590  0.12723  Biso   1.000  Zn
  Zn14     1.0000 0.59808  0.98600  0.46829  Biso   1.000  Zn
  Zn15     1.0000 0.04076  0.85260  0.28852  Biso   1.000  Zn
  P13      1.0000 0.63700  0.22340  0.19000  Biso   1.000  P
  P14      1.0000 0.91660  0.18130  0.16630  Biso   1.000  P
  P15      1.0000 0.93390  0.25080  0.88930  Biso   1.000  P
  P16      1.0000 0.71890  0.66770  0.96830  Biso   1.000  P
  O49      1.0000 0.91060  0.06340  0.91230  Biso   1.000  O
  O50      1.0000 0.78110  0.77190  0.93290  Biso   1.000  O
  O51      1.0000 0.85710  0.03410  0.10110  Biso   1.000  O
  O52      1.0000 0.96370  0.72220  0.06000  Biso   1.000  O
  O53      1.0000 0.85680  0.28480  0.20360  Biso   1.000  O
  O54      1.0000 0.65600  0.40360  0.15370  Biso   1.000  O
  O55      1.0000 0.69180  0.21800  0.29190  Biso   1.000  O
  O56      1.0000 0.77780  0.51900  0.03370  Biso   1.000  O
  O57      1.0000 0.66500  0.06150  0.14890  Biso   1.000  O
  O58      1.0000 0.68050  0.78980  0.02230  Biso   1.000  O
  O59      1.0000 0.95920  0.30020  0.11630  Biso   1.000  O
  O60      1.0000 0.88340  0.40050  0.91440  Biso   1.000  O
  O61      1.0000 0.91100  0.26360  0.78950  Biso   1.000  O
  O62      1.0000 0.53630  0.20480  0.17180  Biso   1.000  O
  O63      1.0000 0.99130  0.08980  0.24220  Biso   1.000  O
  O64      1.0000 0.64360  0.57360  0.89420  Biso   1.000  O
  Zn16     1.0000 0.88239  0.93050  0.99910  Biso   1.000  Zn
  Zn17     1.0000 0.77152  0.47670  0.15319  Biso   1.000  Zn
  Zn18     1.0000 0.74494  0.42590  0.37277  Biso   1.000  Zn
  Zn19     1.0000 0.90192  0.48600  0.03171  Biso   1.000  Zn
  Zn20     1.0000 0.45924  0.35260  0.21148  Biso   1.000  Zn
