data_image0
_cell_length_a       14.652
_cell_length_b       14.894
_cell_length_c       29.736
_cell_angle_alpha    90
_cell_angle_beta     90
_cell_angle_gamma    90

_symmetry_space_group_name_H-M    "P 1"
_symmetry_int_tables_number       1

loop_
  _symmetry_equiv_pos_as_xyz
  'x, y, z'

loop_
  _atom_site_label
  _atom_site_occupancy
  _atom_site_fract_x
  _atom_site_fract_y
  _atom_site_fract_z
  _atom_site_thermal_displace_type
  _atom_site_B_iso_or_equiv
  _atom_site_type_symbol
  N1       1.0000 0.25720  0.14740  0.30008  Biso   1.000  N
  N2       1.0000 0.25880  0.14770  0.45000  Biso   1.000  N
  C1       1.0000 0.26430  0.09410  0.42245  Biso   1.000  C
  C2       1.0000 0.26350  0.09360  0.32740  Biso   1.000  C
  C3       1.0000 0.04660  0.32420  0.24280  Biso   1.000  C
  H1       1.0000 0.07740  0.37850  0.23760  Biso   1.000  H
  N3       1.0000 0.25720  0.64740  0.80008  Biso   1.000  N
  N4       1.0000 0.25880  0.64770  0.95000  Biso   1.000  N
  C4       1.0000 0.26430  0.59410  0.92245  Biso   1.000  C
  C5       1.0000 0.26350  0.59360  0.82740  Biso   1.000  C
  C6       1.0000 0.04660  0.82420  0.74280  Biso   1.000  C
  H2       1.0000 0.07740  0.87850  0.73760  Biso   1.000  H
  N5       1.0000 0.75720  0.14740  0.80008  Biso   1.000  N
  N6       1.0000 0.75880  0.14770  0.95000  Biso   1.000  N
  C7       1.0000 0.76430  0.09410  0.92245  Biso   1.000  C
  C8       1.0000 0.76350  0.09360  0.82740  Biso   1.000  C
  C9       1.0000 0.54660  0.32420  0.74280  Biso   1.000  C
  H3       1.0000 0.57740  0.37850  0.73760  Biso   1.000  H
  N7       1.0000 0.75720  0.64740  0.30008  Biso   1.000  N
  N8       1.0000 0.75880  0.64770  0.45000  Biso   1.000  N
  C10      1.0000 0.76430  0.59410  0.42245  Biso   1.000  C
  C11      1.0000 0.76350  0.59360  0.32740  Biso   1.000  C
  C12      1.0000 0.54660  0.82420  0.24280  Biso   1.000  C
  H4       1.0000 0.57740  0.87850  0.23760  Biso   1.000  H
  N9       1.0000 0.74280  0.85260  0.30008  Biso   1.000  N
  N10      1.0000 0.74120  0.85230  0.45000  Biso   1.000  N
  C13      1.0000 0.73570  0.90590  0.42245  Biso   1.000  C
  C14      1.0000 0.73650  0.90640  0.32740  Biso   1.000  C
  C15      1.0000 0.95340  0.67580  0.24280  Biso   1.000  C
  H5       1.0000 0.92260  0.62150  0.23760  Biso   1.000  H
  N11      1.0000 0.74280  0.35260  0.80008  Biso   1.000  N
  N12      1.0000 0.74120  0.35230  0.95000  Biso   1.000  N
  C16      1.0000 0.73570  0.40590  0.92245  Biso   1.000  C
  C17      1.0000 0.73650  0.40640  0.82740  Biso   1.000  C
  C18      1.0000 0.95340  0.17580  0.74280  Biso   1.000  C
  H6       1.0000 0.92260  0.12150  0.73760  Biso   1.000  H
  N13      1.0000 0.24280  0.85260  0.80008  Biso   1.000  N
  N14      1.0000 0.24120  0.85230  0.95000  Biso   1.000  N
  C19      1.0000 0.23570  0.90590  0.92245  Biso   1.000  C
  C20      1.0000 0.23650  0.90640  0.82740  Biso   1.000  C
  C21      1.0000 0.45340  0.67580  0.74280  Biso   1.000  C
  H7       1.0000 0.42260  0.62150  0.73760  Biso   1.000  H
  N15      1.0000 0.24280  0.35260  0.30008  Biso   1.000  N
  N16      1.0000 0.24120  0.35230  0.45000  Biso   1.000  N
  C22      1.0000 0.23570  0.40590  0.42245  Biso   1.000  C
  C23      1.0000 0.23650  0.40640  0.32740  Biso   1.000  C
  C24      1.0000 0.45340  0.17580  0.24280  Biso   1.000  C
  H8       1.0000 0.42260  0.12150  0.23760  Biso   1.000  H
  N17      1.0000 0.74280  0.14740  0.69992  Biso   1.000  N
  N18      1.0000 0.74120  0.14770  0.55000  Biso   1.000  N
  C25      1.0000 0.73570  0.09410  0.57755  Biso   1.000  C
  C26      1.0000 0.73650  0.09360  0.67260  Biso   1.000  C
  C27      1.0000 0.95340  0.32420  0.75720  Biso   1.000  C
  H9       1.0000 0.92260  0.37850  0.76240  Biso   1.000  H
  N19      1.0000 0.74280  0.64740  0.19992  Biso   1.000  N
  N20      1.0000 0.74120  0.64770  0.05000  Biso   1.000  N
  C28      1.0000 0.73570  0.59410  0.07755  Biso   1.000  C
  C29      1.0000 0.73650  0.59360  0.17260  Biso   1.000  C
  C30      1.0000 0.95340  0.82420  0.25720  Biso   1.000  C
  H10      1.0000 0.92260  0.87850  0.26240  Biso   1.000  H
  N21      1.0000 0.24280  0.14740  0.19992  Biso   1.000  N
  N22      1.0000 0.24120  0.14770  0.05000  Biso   1.000  N
  C31      1.0000 0.23570  0.09410  0.07755  Biso   1.000  C
  C32      1.0000 0.23650  0.09360  0.17260  Biso   1.000  C
  C33      1.0000 0.45340  0.32420  0.25720  Biso   1.000  C
  H11      1.0000 0.42260  0.37850  0.26240  Biso   1.000  H
  N23      1.0000 0.24280  0.64740  0.69992  Biso   1.000  N
  N24      1.0000 0.24120  0.64770  0.55000  Biso   1.000  N
  C34      1.0000 0.23570  0.59410  0.57755  Biso   1.000  C
  C35      1.0000 0.23650  0.59360  0.67260  Biso   1.000  C
  C36      1.0000 0.45340  0.82420  0.75720  Biso   1.000  C
  H12      1.0000 0.42260  0.87850  0.76240  Biso   1.000  H
  N25      1.0000 0.25720  0.85260  0.69992  Biso   1.000  N
  N26      1.0000 0.25880  0.85230  0.55000  Biso   1.000  N
  C37      1.0000 0.26430  0.90590  0.57755  Biso   1.000  C
  C38      1.0000 0.26350  0.90640  0.67260  Biso   1.000  C
  C39      1.0000 0.04660  0.67580  0.75720  Biso   1.000  C
  H13      1.0000 0.07740  0.62150  0.76240  Biso   1.000  H
  N27      1.0000 0.25720  0.35260  0.19992  Biso   1.000  N
  N28      1.0000 0.25880  0.35230  0.05000  Biso   1.000  N
  C40      1.0000 0.26430  0.40590  0.07755  Biso   1.000  C
  C41      1.0000 0.26350  0.40640  0.17260  Biso   1.000  C
  C42      1.0000 0.04660  0.17580  0.25720  Biso   1.000  C
  H14      1.0000 0.07740  0.12150  0.26240  Biso   1.000  H
  N29      1.0000 0.75720  0.85260  0.19992  Biso   1.000  N
  N30      1.0000 0.75880  0.85230  0.05000  Biso   1.000  N
  C43      1.0000 0.76430  0.90590  0.07755  Biso   1.000  C
  C44      1.0000 0.76350  0.90640  0.17260  Biso   1.000  C
  C45      1.0000 0.54660  0.67580  0.25720  Biso   1.000  C
  H15      1.0000 0.57740  0.62150  0.26240  Biso   1.000  H
  N31      1.0000 0.75720  0.35260  0.69992  Biso   1.000  N
  N32      1.0000 0.75880  0.35230  0.55000  Biso   1.000  N
  C46      1.0000 0.76430  0.40590  0.57755  Biso   1.000  C
  C47      1.0000 0.76350  0.40640  0.67260  Biso   1.000  C
  C48      1.0000 0.54660  0.17580  0.75720  Biso   1.000  C
  H16      1.0000 0.57740  0.12150  0.76240  Biso   1.000  H
  N33      1.0000 0.74280  0.85260  0.69992  Biso   1.000  N
  N34      1.0000 0.74120  0.85230  0.55000  Biso   1.000  N
  C49      1.0000 0.73570  0.90590  0.57755  Biso   1.000  C
  C50      1.0000 0.73650  0.90640  0.67260  Biso   1.000  C
  C51      1.0000 0.95340  0.67580  0.75720  Biso   1.000  C
  H17      1.0000 0.92260  0.62150  0.76240  Biso   1.000  H
  N35      1.0000 0.74280  0.35260  0.19992  Biso   1.000  N
  N36      1.0000 0.74120  0.35230  0.05000  Biso   1.000  N
  C52      1.0000 0.73570  0.40590  0.07755  Biso   1.000  C
  C53      1.0000 0.73650  0.40640  0.17260  Biso   1.000  C
  C54      1.0000 0.95340  0.17580  0.25720  Biso   1.000  C
  H18      1.0000 0.92260  0.12150  0.26240  Biso   1.000  H
  N37      1.0000 0.24280  0.85260  0.19992  Biso   1.000  N
  N38      1.0000 0.24120  0.85230  0.05000  Biso   1.000  N
  C55      1.0000 0.23570  0.90590  0.07755  Biso   1.000  C
  C56      1.0000 0.23650  0.90640  0.17260  Biso   1.000  C
  C57      1.0000 0.45340  0.67580  0.25720  Biso   1.000  C
  H19      1.0000 0.42260  0.62150  0.26240  Biso   1.000  H
  N39      1.0000 0.24280  0.35260  0.69992  Biso   1.000  N
  N40      1.0000 0.24120  0.35230  0.55000  Biso   1.000  N
  C58      1.0000 0.23570  0.40590  0.57755  Biso   1.000  C
  C59      1.0000 0.23650  0.40640  0.67260  Biso   1.000  C
  C60      1.0000 0.45340  0.17580  0.75720  Biso   1.000  C
  H20      1.0000 0.42260  0.12150  0.76240  Biso   1.000  H
  N41      1.0000 0.25720  0.14740  0.69992  Biso   1.000  N
  N42      1.0000 0.25880  0.14770  0.55000  Biso   1.000  N
  C61      1.0000 0.26430  0.09410  0.57755  Biso   1.000  C
  C62      1.0000 0.26350  0.09360  0.67260  Biso   1.000  C
  C63      1.0000 0.04660  0.32420  0.75720  Biso   1.000  C
  H21      1.0000 0.07740  0.37850  0.76240  Biso   1.000  H
  N43      1.0000 0.25720  0.64740  0.19992  Biso   1.000  N
  N44      1.0000 0.25880  0.64770  0.05000  Biso   1.000  N
  C64      1.0000 0.26430  0.59410  0.07755  Biso   1.000  C
  C65      1.0000 0.26350  0.59360  0.17260  Biso   1.000  C
  C66      1.0000 0.04660  0.82420  0.25720  Biso   1.000  C
  H22      1.0000 0.07740  0.87850  0.26240  Biso   1.000  H
  N45      1.0000 0.75720  0.14740  0.19992  Biso   1.000  N
  N46      1.0000 0.75880  0.14770  0.05000  Biso   1.000  N
  C67      1.0000 0.76430  0.09410  0.07755  Biso   1.000  C
  C68      1.0000 0.76350  0.09360  0.17260  Biso   1.000  C
  C69      1.0000 0.54660  0.32420  0.25720  Biso   1.000  C
  H23      1.0000 0.57740  0.37850  0.26240  Biso   1.000  H
  N47      1.0000 0.75720  0.64740  0.69992  Biso   1.000  N
  N48      1.0000 0.75880  0.64770  0.55000  Biso   1.000  N
  C70      1.0000 0.76430  0.59410  0.57755  Biso   1.000  C
  C71      1.0000 0.76350  0.59360  0.67260  Biso   1.000  C
  C72      1.0000 0.54660  0.82420  0.75720  Biso   1.000  C
  H24      1.0000 0.57740  0.87850  0.76240  Biso   1.000  H
  N49      1.0000 0.25720  0.85260  0.30008  Biso   1.000  N
  N50      1.0000 0.25880  0.85230  0.45000  Biso   1.000  N
  C73      1.0000 0.26430  0.90590  0.42245  Biso   1.000  C
  C74      1.0000 0.26350  0.90640  0.32740  Biso   1.000  C
  C75      1.0000 0.04660  0.67580  0.24280  Biso   1.000  C
  H25      1.0000 0.07740  0.62150  0.23760  Biso   1.000  H
  N51      1.0000 0.25720  0.35260  0.80008  Biso   1.000  N
  N52      1.0000 0.25880  0.35230  0.95000  Biso   1.000  N
  C76      1.0000 0.26430  0.40590  0.92245  Biso   1.000  C
  C77      1.0000 0.26350  0.40640  0.82740  Biso   1.000  C
  C78      1.0000 0.04660  0.17580  0.74280  Biso   1.000  C
  H26      1.0000 0.07740  0.12150  0.73760  Biso   1.000  H
  N53      1.0000 0.75720  0.85260  0.80008  Biso   1.000  N
  N54      1.0000 0.75880  0.85230  0.95000  Biso   1.000  N
  C79      1.0000 0.76430  0.90590  0.92245  Biso   1.000  C
  C80      1.0000 0.76350  0.90640  0.82740  Biso   1.000  C
  C81      1.0000 0.54660  0.67580  0.74280  Biso   1.000  C
  H27      1.0000 0.57740  0.62150  0.73760  Biso   1.000  H
  N55      1.0000 0.75720  0.35260  0.30008  Biso   1.000  N
  N56      1.0000 0.75880  0.35230  0.45000  Biso   1.000  N
  C82      1.0000 0.76430  0.40590  0.42245  Biso   1.000  C
  C83      1.0000 0.76350  0.40640  0.32740  Biso   1.000  C
  C84      1.0000 0.54660  0.17580  0.24280  Biso   1.000  C
  H28      1.0000 0.57740  0.12150  0.23760  Biso   1.000  H
  N57      1.0000 0.74280  0.14740  0.30008  Biso   1.000  N
  N58      1.0000 0.74120  0.14770  0.45000  Biso   1.000  N
  C85      1.0000 0.73570  0.09410  0.42245  Biso   1.000  C
  C86      1.0000 0.73650  0.09360  0.32740  Biso   1.000  C
  C87      1.0000 0.95340  0.32420  0.24280  Biso   1.000  C
  H29      1.0000 0.92260  0.37850  0.23760  Biso   1.000  H
  N59      1.0000 0.74280  0.64740  0.80008  Biso   1.000  N
  N60      1.0000 0.74120  0.64770  0.95000  Biso   1.000  N
  C88      1.0000 0.73570  0.59410  0.92245  Biso   1.000  C
  C89      1.0000 0.73650  0.59360  0.82740  Biso   1.000  C
  C90      1.0000 0.95340  0.82420  0.74280  Biso   1.000  C
  H30      1.0000 0.92260  0.87850  0.73760  Biso   1.000  H
  N61      1.0000 0.24280  0.14740  0.80008  Biso   1.000  N
  N62      1.0000 0.24120  0.14770  0.95000  Biso   1.000  N
  C91      1.0000 0.23570  0.09410  0.92245  Biso   1.000  C
  C92      1.0000 0.23650  0.09360  0.82740  Biso   1.000  C
  C93      1.0000 0.45340  0.32420  0.74280  Biso   1.000  C
  H31      1.0000 0.42260  0.37850  0.73760  Biso   1.000  H
  N63      1.0000 0.24280  0.64740  0.30008  Biso   1.000  N
  N64      1.0000 0.24120  0.64770  0.45000  Biso   1.000  N
  C94      1.0000 0.23570  0.59410  0.42245  Biso   1.000  C
  C95      1.0000 0.23650  0.59360  0.32740  Biso   1.000  C
  C96      1.0000 0.45340  0.82420  0.24280  Biso   1.000  C
  H32      1.0000 0.42260  0.87850  0.23760  Biso   1.000  H
  Pt1      1.0000 0.26694  0.00000  0.37499  Biso   1.000  Pt
  Pt2      1.0000 0.26694  0.50000  0.87499  Biso   1.000  Pt
  Pt3      1.0000 0.76694  0.00000  0.87499  Biso   1.000  Pt
  Pt4      1.0000 0.76694  0.50000  0.37499  Biso   1.000  Pt
  Pt5      1.0000 0.73306  0.00000  0.37499  Biso   1.000  Pt
  Pt6      1.0000 0.73306  0.50000  0.87499  Biso   1.000  Pt
  Pt7      1.0000 0.23306  0.00000  0.87499  Biso   1.000  Pt
  Pt8      1.0000 0.23306  0.50000  0.37499  Biso   1.000  Pt
  Pt9      1.0000 0.73306  0.00000  0.62501  Biso   1.000  Pt
  Pt10     1.0000 0.73306  0.50000  0.12501  Biso   1.000  Pt
  Pt11     1.0000 0.23306  0.00000  0.12501  Biso   1.000  Pt
  Pt12     1.0000 0.23306  0.50000  0.62501  Biso   1.000  Pt
  Pt13     1.0000 0.26694  0.00000  0.62501  Biso   1.000  Pt
  Pt14     1.0000 0.26694  0.50000  0.12501  Biso   1.000  Pt
  Pt15     1.0000 0.76694  0.00000  0.12501  Biso   1.000  Pt
  Pt16     1.0000 0.76694  0.50000  0.62501  Biso   1.000  Pt
  Fe1      1.0000 0.25000  0.25000  0.50000  Biso   1.000  Fe
  Fe2      1.0000 0.25000  0.75000  0.00000  Biso   1.000  Fe
  Fe3      1.0000 0.75000  0.75000  0.50000  Biso   1.000  Fe
  Fe4      1.0000 0.75000  0.25000  0.00000  Biso   1.000  Fe
  Fe5      1.0000 0.75000  0.25000  0.50000  Biso   1.000  Fe
  Fe6      1.0000 0.75000  0.75000  0.00000  Biso   1.000  Fe
  Fe7      1.0000 0.25000  0.25000  0.00000  Biso   1.000  Fe
  Fe8      1.0000 0.25000  0.75000  0.50000  Biso   1.000  Fe
  Fe9      1.0000 0.25000  0.25000  0.25000  Biso   1.000  Fe
  Fe10     1.0000 0.75000  0.75000  0.25000  Biso   1.000  Fe
  Fe11     1.0000 0.75000  0.25000  0.75000  Biso   1.000  Fe
  Fe12     1.0000 0.25000  0.75000  0.75000  Biso   1.000  Fe
  Fe13     1.0000 0.75000  0.75000  0.75000  Biso   1.000  Fe
  Fe14     1.0000 0.75000  0.25000  0.25000  Biso   1.000  Fe
  Fe15     1.0000 0.25000  0.75000  0.25000  Biso   1.000  Fe
  Fe16     1.0000 0.25000  0.25000  0.75000  Biso   1.000  Fe
  N65      1.0000 0.09510  0.24380  0.50000  Biso   1.000  N
  C97      1.0000 0.04820  0.16980  0.50000  Biso   1.000  C
  C98      1.0000 0.04820  0.31750  0.50000  Biso   1.000  C
  H33      1.0000 0.07930  0.11460  0.50000  Biso   1.000  H
  H34      1.0000 0.07930  0.37270  0.50000  Biso   1.000  H
  N66      1.0000 0.09510  0.74380  0.00000  Biso   1.000  N
  C99      1.0000 0.04820  0.66980  0.00000  Biso   1.000  C
  C100     1.0000 0.04820  0.81750  0.00000  Biso   1.000  C
  H35      1.0000 0.07930  0.61460  0.00000  Biso   1.000  H
  H36      1.0000 0.07930  0.87270  0.00000  Biso   1.000  H
  N67      1.0000 0.59510  0.24380  0.00000  Biso   1.000  N
  C101     1.0000 0.54820  0.16980  0.00000  Biso   1.000  C
  C102     1.0000 0.54820  0.31750  0.00000  Biso   1.000  C
  H37      1.0000 0.57930  0.11460  0.00000  Biso   1.000  H
  H38      1.0000 0.57930  0.37270  0.00000  Biso   1.000  H
  N68      1.0000 0.59510  0.74380  0.50000  Biso   1.000  N
  C103     1.0000 0.54820  0.66980  0.50000  Biso   1.000  C
  C104     1.0000 0.54820  0.81750  0.50000  Biso   1.000  C
  H39      1.0000 0.57930  0.61460  0.50000  Biso   1.000  H
  H40      1.0000 0.57930  0.87270  0.50000  Biso   1.000  H
  N69      1.0000 0.90490  0.75620  0.50000  Biso   1.000  N
  C105     1.0000 0.95180  0.83020  0.50000  Biso   1.000  C
  C106     1.0000 0.95180  0.68250  0.50000  Biso   1.000  C
  H41      1.0000 0.92070  0.88540  0.50000  Biso   1.000  H
  H42      1.0000 0.92070  0.62730  0.50000  Biso   1.000  H
  N70      1.0000 0.90490  0.25620  0.00000  Biso   1.000  N
  C107     1.0000 0.95180  0.33020  0.00000  Biso   1.000  C
  C108     1.0000 0.95180  0.18250  0.00000  Biso   1.000  C
  H43      1.0000 0.92070  0.38540  0.00000  Biso   1.000  H
  H44      1.0000 0.92070  0.12730  0.00000  Biso   1.000  H
  N71      1.0000 0.40490  0.75620  0.00000  Biso   1.000  N
  C109     1.0000 0.45180  0.83020  0.00000  Biso   1.000  C
  C110     1.0000 0.45180  0.68250  0.00000  Biso   1.000  C
  H45      1.0000 0.42070  0.88540  0.00000  Biso   1.000  H
  H46      1.0000 0.42070  0.62730  0.00000  Biso   1.000  H
  N72      1.0000 0.40490  0.25620  0.50000  Biso   1.000  N
  C111     1.0000 0.45180  0.33020  0.50000  Biso   1.000  C
  C112     1.0000 0.45180  0.18250  0.50000  Biso   1.000  C
  H47      1.0000 0.42070  0.38540  0.50000  Biso   1.000  H
  H48      1.0000 0.42070  0.12730  0.50000  Biso   1.000  H
  N73      1.0000 0.90490  0.24380  0.50000  Biso   1.000  N
  C113     1.0000 0.95180  0.16980  0.50000  Biso   1.000  C
  C114     1.0000 0.95180  0.31750  0.50000  Biso   1.000  C
  H49      1.0000 0.92070  0.11460  0.50000  Biso   1.000  H
  H50      1.0000 0.92070  0.37270  0.50000  Biso   1.000  H
  N74      1.0000 0.90490  0.74380  0.00000  Biso   1.000  N
  C115     1.0000 0.95180  0.66980  0.00000  Biso   1.000  C
  C116     1.0000 0.95180  0.81750  0.00000  Biso   1.000  C
  H51      1.0000 0.92070  0.61460  0.00000  Biso   1.000  H
  H52      1.0000 0.92070  0.87270  0.00000  Biso   1.000  H
  N75      1.0000 0.40490  0.24380  0.00000  Biso   1.000  N
  C117     1.0000 0.45180  0.16980  0.00000  Biso   1.000  C
  C118     1.0000 0.45180  0.31750  0.00000  Biso   1.000  C
  H53      1.0000 0.42070  0.11460  0.00000  Biso   1.000  H
  H54      1.0000 0.42070  0.37270  0.00000  Biso   1.000  H
  N76      1.0000 0.40490  0.74380  0.50000  Biso   1.000  N
  C119     1.0000 0.45180  0.66980  0.50000  Biso   1.000  C
  C120     1.0000 0.45180  0.81750  0.50000  Biso   1.000  C
  H55      1.0000 0.42070  0.61460  0.50000  Biso   1.000  H
  H56      1.0000 0.42070  0.87270  0.50000  Biso   1.000  H
  N77      1.0000 0.09510  0.75620  0.50000  Biso   1.000  N
  C121     1.0000 0.04820  0.83020  0.50000  Biso   1.000  C
  C122     1.0000 0.04820  0.68250  0.50000  Biso   1.000  C
  H57      1.0000 0.07930  0.88540  0.50000  Biso   1.000  H
  H58      1.0000 0.07930  0.62730  0.50000  Biso   1.000  H
  N78      1.0000 0.09510  0.25620  0.00000  Biso   1.000  N
  C123     1.0000 0.04820  0.33020  0.00000  Biso   1.000  C
  C124     1.0000 0.04820  0.18250  0.00000  Biso   1.000  C
  H59      1.0000 0.07930  0.38540  0.00000  Biso   1.000  H
  H60      1.0000 0.07930  0.12730  0.00000  Biso   1.000  H
  N79      1.0000 0.59510  0.75620  0.00000  Biso   1.000  N
  C125     1.0000 0.54820  0.83020  0.00000  Biso   1.000  C
  C126     1.0000 0.54820  0.68250  0.00000  Biso   1.000  C
  H61      1.0000 0.57930  0.88540  0.00000  Biso   1.000  H
  H62      1.0000 0.57930  0.62730  0.00000  Biso   1.000  H
  N80      1.0000 0.59510  0.25620  0.50000  Biso   1.000  N
  C127     1.0000 0.54820  0.33020  0.50000  Biso   1.000  C
  C128     1.0000 0.54820  0.18250  0.50000  Biso   1.000  C
  H63      1.0000 0.57930  0.38540  0.50000  Biso   1.000  H
  H64      1.0000 0.57930  0.12730  0.50000  Biso   1.000  H
  N81      1.0000 0.09560  0.25000  0.25000  Biso   1.000  N
  N82      1.0000 0.59560  0.25000  0.75000  Biso   1.000  N
  N83      1.0000 0.90440  0.75000  0.25000  Biso   1.000  N
  N84      1.0000 0.40440  0.75000  0.75000  Biso   1.000  N
  N85      1.0000 0.40440  0.25000  0.25000  Biso   1.000  N
  N86      1.0000 0.90440  0.25000  0.75000  Biso   1.000  N
  N87      1.0000 0.09560  0.75000  0.75000  Biso   1.000  N
  N88      1.0000 0.59560  0.75000  0.25000  Biso   1.000  N
  N89      1.0000 0.90440  0.75000  0.75000  Biso   1.000  N
  N90      1.0000 0.90440  0.25000  0.25000  Biso   1.000  N
  N91      1.0000 0.40440  0.75000  0.25000  Biso   1.000  N
  N92      1.0000 0.09560  0.25000  0.75000  Biso   1.000  N
  N93      1.0000 0.59560  0.25000  0.25000  Biso   1.000  N
  N94      1.0000 0.09560  0.75000  0.25000  Biso   1.000  N
  N95      1.0000 0.59560  0.75000  0.75000  Biso   1.000  N
  N96      1.0000 0.40440  0.25000  0.75000  Biso   1.000  N
