data_image0
_cell_length_a       11.5693
_cell_length_b       11.5693
_cell_length_c       56.235
_cell_angle_alpha    90
_cell_angle_beta     90
_cell_angle_gamma    120

_symmetry_space_group_name_H-M    "P 1"
_symmetry_int_tables_number       1

loop_
  _symmetry_equiv_pos_as_xyz
  'x, y, z'

loop_
  _atom_site_label
  _atom_site_occupancy
  _atom_site_fract_x
  _atom_site_fract_y
  _atom_site_fract_z
  _atom_site_thermal_displace_type
  _atom_site_B_iso_or_equiv
  _atom_site_type_symbol
  Cd1      1.0000 0.92350  0.28681  0.53216  Biso   1.000  Cd
  O1       1.0000 0.74950  0.18780  0.56049  Biso   1.000  O
  O2       1.0000 0.80100  0.39580  0.55322  Biso   1.000  O
  O3       1.0000 0.04200  0.50470  0.51517  Biso   1.000  O
  H1       1.0000 0.05170  0.43760  0.51270  Biso   1.000  H
  H2       1.0000 0.00340  0.55010  0.51760  Biso   1.000  H
  N1       1.0000 0.08720  0.36410  0.55997  Biso   1.000  N
  N2       1.0000 0.42730  0.58650  0.60173  Biso   1.000  N
  H3       1.0000 0.50100  0.60800  0.59430  Biso   1.000  H
  N3       1.0000 0.54580  0.77850  0.66790  Biso   1.000  N
  C1       1.0000 0.21170  0.42070  0.55156  Biso   1.000  C
  H4       1.0000 0.22340  0.41090  0.53510  Biso   1.000  H
  C2       1.0000 0.32380  0.49230  0.56526  Biso   1.000  C
  H5       1.0000 0.41000  0.52960  0.55830  Biso   1.000  H
  C3       1.0000 0.31000  0.51010  0.58970  Biso   1.000  C
  C4       1.0000 0.18010  0.44680  0.59856  Biso   1.000  C
  H6       1.0000 0.16490  0.45110  0.61510  Biso   1.000  H
  C5       1.0000 0.07400  0.37820  0.58342  Biso   1.000  C
  H7       1.0000 0.98650  0.33850  0.58990  Biso   1.000  H
  C6       1.0000 0.41550  0.70790  0.66233  Biso   1.000  C
  H8       1.0000 0.35310  0.70630  0.67350  Biso   1.000  H
  C7       1.0000 0.36700  0.63800  0.64155  Biso   1.000  C
  H9       1.0000 0.27360  0.58740  0.63880  Biso   1.000  H
  C8       1.0000 0.45700  0.64180  0.62435  Biso   1.000  C
  C9       1.0000 0.59210  0.71370  0.63028  Biso   1.000  C
  H10      1.0000 0.65720  0.71750  0.61950  Biso   1.000  H
  C10      1.0000 0.63070  0.77880  0.65168  Biso   1.000  C
  H11      1.0000 0.72340  0.82700  0.65520  Biso   1.000  H
  C11      1.0000 0.72700  0.28450  0.56223  Biso   1.000  C
  C12      1.0000 0.60010  0.25890  0.57401  Biso   1.000  C
  C13      1.0000 0.47930  0.15870  0.56537  Biso   1.000  C
  H12      1.0000 0.47900  0.10240  0.55310  Biso   1.000  H
  C14      1.0000 0.35800  0.13820  0.57425  Biso   1.000  C
  H13      1.0000 0.27620  0.06930  0.56800  Biso   1.000  H
  Cd2      1.0000 0.71319  0.63669  0.86550  Biso   1.000  Cd
  O4       1.0000 0.81220  0.56170  0.89382  Biso   1.000  O
  O5       1.0000 0.60420  0.40520  0.88655  Biso   1.000  O
  O6       1.0000 0.49530  0.53730  0.84850  Biso   1.000  O
  H14      1.0000 0.56240  0.61410  0.84603  Biso   1.000  H
  H15      1.0000 0.44990  0.45330  0.85093  Biso   1.000  H
  N4       1.0000 0.63590  0.72310  0.89330  Biso   1.000  N
  N5       1.0000 0.41350  0.84080  0.93506  Biso   1.000  N
  H16      1.0000 0.39200  0.89300  0.92763  Biso   1.000  H
  N6       1.0000 0.22150  0.76730  0.00123  Biso   1.000  N
  C15      1.0000 0.57930  0.79100  0.88489  Biso   1.000  C
  H17      1.0000 0.58910  0.81250  0.86843  Biso   1.000  H
  C16      1.0000 0.50770  0.83150  0.89859  Biso   1.000  C
  H18      1.0000 0.47040  0.88040  0.89163  Biso   1.000  H
  C17      1.0000 0.48990  0.79990  0.92303  Biso   1.000  C
  C18      1.0000 0.55320  0.73330  0.93189  Biso   1.000  C
  H19      1.0000 0.54890  0.71380  0.94843  Biso   1.000  H
  C19      1.0000 0.62180  0.69580  0.91675  Biso   1.000  C
  H20      1.0000 0.66150  0.64800  0.92323  Biso   1.000  H
  C20      1.0000 0.29210  0.70760  0.99566  Biso   1.000  C
  H21      1.0000 0.29370  0.64680  0.00683  Biso   1.000  H
  C21      1.0000 0.36200  0.72900  0.97488  Biso   1.000  C
  H22      1.0000 0.41260  0.68620  0.97213  Biso   1.000  H
  C22      1.0000 0.35820  0.81520  0.95768  Biso   1.000  C
  C23      1.0000 0.28630  0.87840  0.96361  Biso   1.000  C
  H23      1.0000 0.28250  0.93970  0.95283  Biso   1.000  H
  C24      1.0000 0.22120  0.85190  0.98501  Biso   1.000  C
  H24      1.0000 0.17300  0.89640  0.98853  Biso   1.000  H
  C25      1.0000 0.71550  0.44250  0.89556  Biso   1.000  C
  C26      1.0000 0.74110  0.34120  0.90734  Biso   1.000  C
  C27      1.0000 0.84130  0.32060  0.89870  Biso   1.000  C
  H25      1.0000 0.89760  0.37660  0.88643  Biso   1.000  H
  C28      1.0000 0.86180  0.21980  0.90758  Biso   1.000  C
  H26      1.0000 0.93070  0.20690  0.90133  Biso   1.000  H
  Cd3      1.0000 0.36331  0.07650  0.19883  Biso   1.000  Cd
  O7       1.0000 0.43830  0.25050  0.22716  Biso   1.000  O
  O8       1.0000 0.59480  0.19900  0.21989  Biso   1.000  O
  O9       1.0000 0.46270  0.95800  0.18184  Biso   1.000  O
  H27      1.0000 0.38590  0.94830  0.17937  Biso   1.000  H
  H28      1.0000 0.54670  0.99660  0.18427  Biso   1.000  H
  N7       1.0000 0.27690  0.91280  0.22664  Biso   1.000  N
  N8       1.0000 0.15920  0.57270  0.26840  Biso   1.000  N
  H29      1.0000 0.10700  0.49900  0.26097  Biso   1.000  H
  N9       1.0000 0.23270  0.45420  0.33457  Biso   1.000  N
  C29      1.0000 0.20900  0.78830  0.21823  Biso   1.000  C
  H30      1.0000 0.18750  0.77660  0.20177  Biso   1.000  H
  C30      1.0000 0.16850  0.67620  0.23193  Biso   1.000  C
  H31      1.0000 0.11960  0.59000  0.22497  Biso   1.000  H
  C31      1.0000 0.20010  0.69000  0.25637  Biso   1.000  C
  C32      1.0000 0.26670  0.81990  0.26523  Biso   1.000  C
  H32      1.0000 0.28620  0.83510  0.28177  Biso   1.000  H
  C33      1.0000 0.30420  0.92600  0.25009  Biso   1.000  C
  H33      1.0000 0.35200  0.01350  0.25657  Biso   1.000  H
  C34      1.0000 0.29240  0.58450  0.32900  Biso   1.000  C
  H34      1.0000 0.35320  0.64690  0.34017  Biso   1.000  H
  C35      1.0000 0.27100  0.63300  0.30822  Biso   1.000  C
  H35      1.0000 0.31380  0.72640  0.30547  Biso   1.000  H
  C36      1.0000 0.18480  0.54300  0.29102  Biso   1.000  C
  C37      1.0000 0.12160  0.40790  0.29695  Biso   1.000  C
  H36      1.0000 0.06030  0.34280  0.28617  Biso   1.000  H
  C38      1.0000 0.14810  0.36930  0.31835  Biso   1.000  C
  H37      1.0000 0.10360  0.27660  0.32187  Biso   1.000  H
  C39      1.0000 0.55750  0.27300  0.22890  Biso   1.000  C
  C40      1.0000 0.65880  0.39990  0.24068  Biso   1.000  C
  C41      1.0000 0.67940  0.52070  0.23204  Biso   1.000  C
  H38      1.0000 0.62340  0.52100  0.21977  Biso   1.000  H
  C42      1.0000 0.78020  0.64200  0.24092  Biso   1.000  C
  H39      1.0000 0.79310  0.72380  0.23467  Biso   1.000  H
  Cd4      1.0000 0.07650  0.71319  0.03216  Biso   1.000  Cd
  O10      1.0000 0.25050  0.81220  0.06049  Biso   1.000  O
  O11      1.0000 0.19900  0.60420  0.05322  Biso   1.000  O
  O12      1.0000 0.95800  0.49530  0.01517  Biso   1.000  O
  H40      1.0000 0.94830  0.56240  0.01270  Biso   1.000  H
  H41      1.0000 0.99660  0.44990  0.01760  Biso   1.000  H
  N10      1.0000 0.91280  0.63590  0.05997  Biso   1.000  N
  N11      1.0000 0.57270  0.41350  0.10173  Biso   1.000  N
  H42      1.0000 0.49900  0.39200  0.09430  Biso   1.000  H
  N12      1.0000 0.45420  0.22150  0.16790  Biso   1.000  N
  C43      1.0000 0.78830  0.57930  0.05156  Biso   1.000  C
  H43      1.0000 0.77660  0.58910  0.03510  Biso   1.000  H
  C44      1.0000 0.67620  0.50770  0.06526  Biso   1.000  C
  H44      1.0000 0.59000  0.47040  0.05830  Biso   1.000  H
  C45      1.0000 0.69000  0.48990  0.08970  Biso   1.000  C
  C46      1.0000 0.81990  0.55320  0.09856  Biso   1.000  C
  H45      1.0000 0.83510  0.54890  0.11510  Biso   1.000  H
  C47      1.0000 0.92600  0.62180  0.08342  Biso   1.000  C
  H46      1.0000 0.01350  0.66150  0.08990  Biso   1.000  H
  C48      1.0000 0.58450  0.29210  0.16233  Biso   1.000  C
  H47      1.0000 0.64690  0.29370  0.17350  Biso   1.000  H
  C49      1.0000 0.63300  0.36200  0.14155  Biso   1.000  C
  H48      1.0000 0.72640  0.41260  0.13880  Biso   1.000  H
  C50      1.0000 0.54300  0.35820  0.12435  Biso   1.000  C
  C51      1.0000 0.40790  0.28630  0.13028  Biso   1.000  C
  H49      1.0000 0.34280  0.28250  0.11950  Biso   1.000  H
  C52      1.0000 0.36930  0.22120  0.15168  Biso   1.000  C
  H50      1.0000 0.27660  0.17300  0.15520  Biso   1.000  H
  C53      1.0000 0.27300  0.71550  0.06223  Biso   1.000  C
  C54      1.0000 0.39990  0.74110  0.07401  Biso   1.000  C
  C55      1.0000 0.52070  0.84130  0.06537  Biso   1.000  C
  H51      1.0000 0.52100  0.89760  0.05310  Biso   1.000  H
  C56      1.0000 0.64200  0.86180  0.07425  Biso   1.000  C
  H52      1.0000 0.72380  0.93070  0.06800  Biso   1.000  H
  Cd5      1.0000 0.28681  0.36331  0.36550  Biso   1.000  Cd
  O13      1.0000 0.18780  0.43830  0.39382  Biso   1.000  O
  O14      1.0000 0.39580  0.59480  0.38655  Biso   1.000  O
  O15      1.0000 0.50470  0.46270  0.34850  Biso   1.000  O
  H53      1.0000 0.43760  0.38590  0.34603  Biso   1.000  H
  H54      1.0000 0.55010  0.54670  0.35093  Biso   1.000  H
  N13      1.0000 0.36410  0.27690  0.39330  Biso   1.000  N
  N14      1.0000 0.58650  0.15920  0.43506  Biso   1.000  N
  H55      1.0000 0.60800  0.10700  0.42763  Biso   1.000  H
  N15      1.0000 0.77850  0.23270  0.50123  Biso   1.000  N
  C57      1.0000 0.42070  0.20900  0.38489  Biso   1.000  C
  H56      1.0000 0.41090  0.18750  0.36843  Biso   1.000  H
  C58      1.0000 0.49230  0.16850  0.39859  Biso   1.000  C
  H57      1.0000 0.52960  0.11960  0.39163  Biso   1.000  H
  C59      1.0000 0.51010  0.20010  0.42303  Biso   1.000  C
  C60      1.0000 0.44680  0.26670  0.43189  Biso   1.000  C
  H58      1.0000 0.45110  0.28620  0.44843  Biso   1.000  H
  C61      1.0000 0.37820  0.30420  0.41675  Biso   1.000  C
  H59      1.0000 0.33850  0.35200  0.42323  Biso   1.000  H
  C62      1.0000 0.70790  0.29240  0.49566  Biso   1.000  C
  H60      1.0000 0.70630  0.35320  0.50683  Biso   1.000  H
  C63      1.0000 0.63800  0.27100  0.47488  Biso   1.000  C
  H61      1.0000 0.58740  0.31380  0.47213  Biso   1.000  H
  C64      1.0000 0.64180  0.18480  0.45768  Biso   1.000  C
  C65      1.0000 0.71370  0.12160  0.46361  Biso   1.000  C
  H62      1.0000 0.71750  0.06030  0.45283  Biso   1.000  H
  C66      1.0000 0.77880  0.14810  0.48501  Biso   1.000  C
  H63      1.0000 0.82700  0.10360  0.48853  Biso   1.000  H
  C67      1.0000 0.28450  0.55750  0.39556  Biso   1.000  C
  C68      1.0000 0.25890  0.65880  0.40734  Biso   1.000  C
  C69      1.0000 0.15870  0.67940  0.39870  Biso   1.000  C
  H64      1.0000 0.10240  0.62340  0.38643  Biso   1.000  H
  C70      1.0000 0.13820  0.78020  0.40758  Biso   1.000  C
  H65      1.0000 0.06930  0.79310  0.40133  Biso   1.000  H
  Cd6      1.0000 0.63669  0.92350  0.69883  Biso   1.000  Cd
  O16      1.0000 0.56170  0.74950  0.72716  Biso   1.000  O
  O17      1.0000 0.40520  0.80100  0.71989  Biso   1.000  O
  O18      1.0000 0.53730  0.04200  0.68184  Biso   1.000  O
  H66      1.0000 0.61410  0.05170  0.67937  Biso   1.000  H
  H67      1.0000 0.45330  0.00340  0.68427  Biso   1.000  H
  N16      1.0000 0.72310  0.08720  0.72664  Biso   1.000  N
  N17      1.0000 0.84080  0.42730  0.76840  Biso   1.000  N
  H68      1.0000 0.89300  0.50100  0.76097  Biso   1.000  H
  N18      1.0000 0.76730  0.54580  0.83457  Biso   1.000  N
  C71      1.0000 0.79100  0.21170  0.71823  Biso   1.000  C
  H69      1.0000 0.81250  0.22340  0.70177  Biso   1.000  H
  C72      1.0000 0.83150  0.32380  0.73193  Biso   1.000  C
  H70      1.0000 0.88040  0.41000  0.72497  Biso   1.000  H
  C73      1.0000 0.79990  0.31000  0.75637  Biso   1.000  C
  C74      1.0000 0.73330  0.18010  0.76523  Biso   1.000  C
  H71      1.0000 0.71380  0.16490  0.78177  Biso   1.000  H
  C75      1.0000 0.69580  0.07400  0.75009  Biso   1.000  C
  H72      1.0000 0.64800  0.98650  0.75657  Biso   1.000  H
  C76      1.0000 0.70760  0.41550  0.82900  Biso   1.000  C
  H73      1.0000 0.64680  0.35310  0.84017  Biso   1.000  H
  C77      1.0000 0.72900  0.36700  0.80822  Biso   1.000  C
  H74      1.0000 0.68620  0.27360  0.80547  Biso   1.000  H
  C78      1.0000 0.81520  0.45700  0.79102  Biso   1.000  C
  C79      1.0000 0.87840  0.59210  0.79695  Biso   1.000  C
  H75      1.0000 0.93970  0.65720  0.78617  Biso   1.000  H
  C80      1.0000 0.85190  0.63070  0.81835  Biso   1.000  C
  H76      1.0000 0.89640  0.72340  0.82187  Biso   1.000  H
  C81      1.0000 0.44250  0.72700  0.72890  Biso   1.000  C
  C82      1.0000 0.34120  0.60010  0.74068  Biso   1.000  C
  C83      1.0000 0.32060  0.47930  0.73204  Biso   1.000  C
  H77      1.0000 0.37660  0.47900  0.71977  Biso   1.000  H
  C84      1.0000 0.21980  0.35800  0.74092  Biso   1.000  C
  H78      1.0000 0.20690  0.27620  0.73467  Biso   1.000  H
  Cd7      1.0000 0.28681  0.92350  0.80117  Biso   1.000  Cd
  O19      1.0000 0.18780  0.74950  0.77284  Biso   1.000  O
  O20      1.0000 0.39580  0.80100  0.78011  Biso   1.000  O
  O21      1.0000 0.50470  0.04200  0.81816  Biso   1.000  O
  H79      1.0000 0.43760  0.05170  0.82063  Biso   1.000  H
  H80      1.0000 0.55010  0.00340  0.81573  Biso   1.000  H
  N19      1.0000 0.36410  0.08720  0.77336  Biso   1.000  N
  N20      1.0000 0.58650  0.42730  0.73160  Biso   1.000  N
  H81      1.0000 0.60800  0.50100  0.73903  Biso   1.000  H
  N21      1.0000 0.77850  0.54580  0.66543  Biso   1.000  N
  C85      1.0000 0.42070  0.21170  0.78177  Biso   1.000  C
  H82      1.0000 0.41090  0.22340  0.79823  Biso   1.000  H
  C86      1.0000 0.49230  0.32380  0.76807  Biso   1.000  C
  H83      1.0000 0.52960  0.41000  0.77503  Biso   1.000  H
  C87      1.0000 0.51010  0.31000  0.74363  Biso   1.000  C
  C88      1.0000 0.44680  0.18010  0.73477  Biso   1.000  C
  H84      1.0000 0.45110  0.16490  0.71823  Biso   1.000  H
  C89      1.0000 0.37820  0.07400  0.74991  Biso   1.000  C
  H85      1.0000 0.33850  0.98650  0.74343  Biso   1.000  H
  C90      1.0000 0.70790  0.41550  0.67100  Biso   1.000  C
  H86      1.0000 0.70630  0.35310  0.65983  Biso   1.000  H
  C91      1.0000 0.63800  0.36700  0.69178  Biso   1.000  C
  H87      1.0000 0.58740  0.27360  0.69453  Biso   1.000  H
  C92      1.0000 0.64180  0.45700  0.70898  Biso   1.000  C
  C93      1.0000 0.71370  0.59210  0.70305  Biso   1.000  C
  H88      1.0000 0.71750  0.65720  0.71383  Biso   1.000  H
  C94      1.0000 0.77880  0.63070  0.68165  Biso   1.000  C
  H89      1.0000 0.82700  0.72340  0.67813  Biso   1.000  H
  C95      1.0000 0.28450  0.72700  0.77110  Biso   1.000  C
  C96      1.0000 0.25890  0.60010  0.75932  Biso   1.000  C
  C97      1.0000 0.15870  0.47930  0.76796  Biso   1.000  C
  H90      1.0000 0.10240  0.47900  0.78023  Biso   1.000  H
  C98      1.0000 0.13820  0.35800  0.75908  Biso   1.000  C
  H91      1.0000 0.06930  0.27620  0.76533  Biso   1.000  H
  Cd8      1.0000 0.63669  0.71319  0.46784  Biso   1.000  Cd
  O22      1.0000 0.56170  0.81220  0.43951  Biso   1.000  O
  O23      1.0000 0.40520  0.60420  0.44678  Biso   1.000  O
  O24      1.0000 0.53730  0.49530  0.48483  Biso   1.000  O
  H92      1.0000 0.61410  0.56240  0.48730  Biso   1.000  H
  H93      1.0000 0.45330  0.44990  0.48240  Biso   1.000  H
  N22      1.0000 0.72310  0.63590  0.44003  Biso   1.000  N
  N23      1.0000 0.84080  0.41350  0.39827  Biso   1.000  N
  H94      1.0000 0.89300  0.39200  0.40570  Biso   1.000  H
  N24      1.0000 0.76730  0.22150  0.33210  Biso   1.000  N
  C99      1.0000 0.79100  0.57930  0.44844  Biso   1.000  C
  H95      1.0000 0.81250  0.58910  0.46490  Biso   1.000  H
  C100     1.0000 0.83150  0.50770  0.43474  Biso   1.000  C
  H96      1.0000 0.88040  0.47040  0.44170  Biso   1.000  H
  C101     1.0000 0.79990  0.48990  0.41030  Biso   1.000  C
  C102     1.0000 0.73330  0.55320  0.40144  Biso   1.000  C
  H97      1.0000 0.71380  0.54890  0.38490  Biso   1.000  H
  C103     1.0000 0.69580  0.62180  0.41658  Biso   1.000  C
  H98      1.0000 0.64800  0.66150  0.41010  Biso   1.000  H
  C104     1.0000 0.70760  0.29210  0.33767  Biso   1.000  C
  H99      1.0000 0.64680  0.29370  0.32650  Biso   1.000  H
  C105     1.0000 0.72900  0.36200  0.35845  Biso   1.000  C
  H100     1.0000 0.68620  0.41260  0.36120  Biso   1.000  H
  C106     1.0000 0.81520  0.35820  0.37565  Biso   1.000  C
  C107     1.0000 0.87840  0.28630  0.36972  Biso   1.000  C
  H101     1.0000 0.93970  0.28250  0.38050  Biso   1.000  H
  C108     1.0000 0.85190  0.22120  0.34832  Biso   1.000  C
  H102     1.0000 0.89640  0.17300  0.34480  Biso   1.000  H
  C109     1.0000 0.44250  0.71550  0.43777  Biso   1.000  C
  C110     1.0000 0.34120  0.74110  0.42599  Biso   1.000  C
  C111     1.0000 0.32060  0.84130  0.43463  Biso   1.000  C
  H103     1.0000 0.37660  0.89760  0.44690  Biso   1.000  H
  C112     1.0000 0.21980  0.86180  0.42575  Biso   1.000  C
  H104     1.0000 0.20690  0.93070  0.43200  Biso   1.000  H
  Cd9      1.0000 0.07650  0.36331  0.13450  Biso   1.000  Cd
  O25      1.0000 0.25050  0.43830  0.10618  Biso   1.000  O
  O26      1.0000 0.19900  0.59480  0.11345  Biso   1.000  O
  O27      1.0000 0.95800  0.46270  0.15150  Biso   1.000  O
  H105     1.0000 0.94830  0.38590  0.15397  Biso   1.000  H
  H106     1.0000 0.99660  0.54670  0.14907  Biso   1.000  H
  N25      1.0000 0.91280  0.27690  0.10670  Biso   1.000  N
  N26      1.0000 0.57270  0.15920  0.06494  Biso   1.000  N
  H107     1.0000 0.49900  0.10700  0.07237  Biso   1.000  H
  N27      1.0000 0.45420  0.23270  0.99877  Biso   1.000  N
  C113     1.0000 0.78830  0.20900  0.11511  Biso   1.000  C
  H108     1.0000 0.77660  0.18750  0.13157  Biso   1.000  H
  C114     1.0000 0.67620  0.16850  0.10141  Biso   1.000  C
  H109     1.0000 0.59000  0.11960  0.10837  Biso   1.000  H
  C115     1.0000 0.69000  0.20010  0.07697  Biso   1.000  C
  C116     1.0000 0.81990  0.26670  0.06811  Biso   1.000  C
  H110     1.0000 0.83510  0.28620  0.05157  Biso   1.000  H
  C117     1.0000 0.92600  0.30420  0.08325  Biso   1.000  C
  H111     1.0000 0.01350  0.35200  0.07677  Biso   1.000  H
  C118     1.0000 0.58450  0.29240  0.00434  Biso   1.000  C
  H112     1.0000 0.64690  0.35320  0.99317  Biso   1.000  H
  C119     1.0000 0.63300  0.27100  0.02512  Biso   1.000  C
  H113     1.0000 0.72640  0.31380  0.02787  Biso   1.000  H
  C120     1.0000 0.54300  0.18480  0.04232  Biso   1.000  C
  C121     1.0000 0.40790  0.12160  0.03639  Biso   1.000  C
  H114     1.0000 0.34280  0.06030  0.04717  Biso   1.000  H
  C122     1.0000 0.36930  0.14810  0.01499  Biso   1.000  C
  H115     1.0000 0.27660  0.10360  0.01147  Biso   1.000  H
  C123     1.0000 0.27300  0.55750  0.10444  Biso   1.000  C
  C124     1.0000 0.39990  0.65880  0.09266  Biso   1.000  C
  C125     1.0000 0.52070  0.67940  0.10130  Biso   1.000  C
  H116     1.0000 0.52100  0.62340  0.11357  Biso   1.000  H
  C126     1.0000 0.64200  0.78020  0.09242  Biso   1.000  C
  H117     1.0000 0.72380  0.79310  0.09867  Biso   1.000  H
  Cd10     1.0000 0.71319  0.07650  0.30117  Biso   1.000  Cd
  O28      1.0000 0.81220  0.25050  0.27284  Biso   1.000  O
  O29      1.0000 0.60420  0.19900  0.28011  Biso   1.000  O
  O30      1.0000 0.49530  0.95800  0.31816  Biso   1.000  O
  H118     1.0000 0.56240  0.94830  0.32063  Biso   1.000  H
  H119     1.0000 0.44990  0.99660  0.31573  Biso   1.000  H
  N28      1.0000 0.63590  0.91280  0.27336  Biso   1.000  N
  N29      1.0000 0.41350  0.57270  0.23160  Biso   1.000  N
  H120     1.0000 0.39200  0.49900  0.23903  Biso   1.000  H
  N30      1.0000 0.22150  0.45420  0.16543  Biso   1.000  N
  C127     1.0000 0.57930  0.78830  0.28177  Biso   1.000  C
  H121     1.0000 0.58910  0.77660  0.29823  Biso   1.000  H
  C128     1.0000 0.50770  0.67620  0.26807  Biso   1.000  C
  H122     1.0000 0.47040  0.59000  0.27503  Biso   1.000  H
  C129     1.0000 0.48990  0.69000  0.24363  Biso   1.000  C
  C130     1.0000 0.55320  0.81990  0.23477  Biso   1.000  C
  H123     1.0000 0.54890  0.83510  0.21823  Biso   1.000  H
  C131     1.0000 0.62180  0.92600  0.24991  Biso   1.000  C
  H124     1.0000 0.66150  0.01350  0.24343  Biso   1.000  H
  C132     1.0000 0.29210  0.58450  0.17100  Biso   1.000  C
  H125     1.0000 0.29370  0.64690  0.15983  Biso   1.000  H
  C133     1.0000 0.36200  0.63300  0.19178  Biso   1.000  C
  H126     1.0000 0.41260  0.72640  0.19453  Biso   1.000  H
  C134     1.0000 0.35820  0.54300  0.20898  Biso   1.000  C
  C135     1.0000 0.28630  0.40790  0.20305  Biso   1.000  C
  H127     1.0000 0.28250  0.34280  0.21383  Biso   1.000  H
  C136     1.0000 0.22120  0.36930  0.18165  Biso   1.000  C
  H128     1.0000 0.17300  0.27660  0.17813  Biso   1.000  H
  C137     1.0000 0.71550  0.27300  0.27110  Biso   1.000  C
  C138     1.0000 0.74110  0.39990  0.25932  Biso   1.000  C
  C139     1.0000 0.84130  0.52070  0.26796  Biso   1.000  C
  H129     1.0000 0.89760  0.52100  0.28023  Biso   1.000  H
  C140     1.0000 0.86180  0.64200  0.25908  Biso   1.000  C
  H130     1.0000 0.93070  0.72380  0.26533  Biso   1.000  H
  Cd11     1.0000 0.36331  0.28681  0.96784  Biso   1.000  Cd
  O31      1.0000 0.43830  0.18780  0.93951  Biso   1.000  O
  O32      1.0000 0.59480  0.39580  0.94678  Biso   1.000  O
  O33      1.0000 0.46270  0.50470  0.98483  Biso   1.000  O
  H131     1.0000 0.38590  0.43760  0.98730  Biso   1.000  H
  H132     1.0000 0.54670  0.55010  0.98240  Biso   1.000  H
  N31      1.0000 0.27690  0.36410  0.94003  Biso   1.000  N
  N32      1.0000 0.15920  0.58650  0.89827  Biso   1.000  N
  H133     1.0000 0.10700  0.60800  0.90570  Biso   1.000  H
  N33      1.0000 0.23270  0.77850  0.83210  Biso   1.000  N
  C141     1.0000 0.20900  0.42070  0.94844  Biso   1.000  C
  H134     1.0000 0.18750  0.41090  0.96490  Biso   1.000  H
  C142     1.0000 0.16850  0.49230  0.93474  Biso   1.000  C
  H135     1.0000 0.11960  0.52960  0.94170  Biso   1.000  H
  C143     1.0000 0.20010  0.51010  0.91030  Biso   1.000  C
  C144     1.0000 0.26670  0.44680  0.90144  Biso   1.000  C
  H136     1.0000 0.28620  0.45110  0.88490  Biso   1.000  H
  C145     1.0000 0.30420  0.37820  0.91658  Biso   1.000  C
  H137     1.0000 0.35200  0.33850  0.91010  Biso   1.000  H
  C146     1.0000 0.29240  0.70790  0.83767  Biso   1.000  C
  H138     1.0000 0.35320  0.70630  0.82650  Biso   1.000  H
  C147     1.0000 0.27100  0.63800  0.85845  Biso   1.000  C
  H139     1.0000 0.31380  0.58740  0.86120  Biso   1.000  H
  C148     1.0000 0.18480  0.64180  0.87565  Biso   1.000  C
  C149     1.0000 0.12160  0.71370  0.86972  Biso   1.000  C
  H140     1.0000 0.06030  0.71750  0.88050  Biso   1.000  H
  C150     1.0000 0.14810  0.77880  0.84832  Biso   1.000  C
  H141     1.0000 0.10360  0.82700  0.84480  Biso   1.000  H
  C151     1.0000 0.55750  0.28450  0.93777  Biso   1.000  C
  C152     1.0000 0.65880  0.25890  0.92599  Biso   1.000  C
  C153     1.0000 0.67940  0.15870  0.93463  Biso   1.000  C
  H142     1.0000 0.62340  0.10240  0.94690  Biso   1.000  H
  C154     1.0000 0.78020  0.13820  0.92575  Biso   1.000  C
  H143     1.0000 0.79310  0.06930  0.93200  Biso   1.000  H
  Cd12     1.0000 0.92350  0.63669  0.63450  Biso   1.000  Cd
  O34      1.0000 0.74950  0.56170  0.60618  Biso   1.000  O
  O35      1.0000 0.80100  0.40520  0.61345  Biso   1.000  O
  O36      1.0000 0.04200  0.53730  0.65150  Biso   1.000  O
  H144     1.0000 0.05170  0.61410  0.65397  Biso   1.000  H
  H145     1.0000 0.00340  0.45330  0.64907  Biso   1.000  H
  N34      1.0000 0.08720  0.72310  0.60670  Biso   1.000  N
  N35      1.0000 0.42730  0.84080  0.56494  Biso   1.000  N
  H146     1.0000 0.50100  0.89300  0.57237  Biso   1.000  H
  N36      1.0000 0.54580  0.76730  0.49877  Biso   1.000  N
  C155     1.0000 0.21170  0.79100  0.61511  Biso   1.000  C
  H147     1.0000 0.22340  0.81250  0.63157  Biso   1.000  H
  C156     1.0000 0.32380  0.83150  0.60141  Biso   1.000  C
  H148     1.0000 0.41000  0.88040  0.60837  Biso   1.000  H
  C157     1.0000 0.31000  0.79990  0.57697  Biso   1.000  C
  C158     1.0000 0.18010  0.73330  0.56811  Biso   1.000  C
  H149     1.0000 0.16490  0.71380  0.55157  Biso   1.000  H
  C159     1.0000 0.07400  0.69580  0.58325  Biso   1.000  C
  H150     1.0000 0.98650  0.64800  0.57677  Biso   1.000  H
  C160     1.0000 0.41550  0.70760  0.50434  Biso   1.000  C
  H151     1.0000 0.35310  0.64680  0.49317  Biso   1.000  H
  C161     1.0000 0.36700  0.72900  0.52512  Biso   1.000  C
  H152     1.0000 0.27360  0.68620  0.52787  Biso   1.000  H
  C162     1.0000 0.45700  0.81520  0.54232  Biso   1.000  C
  C163     1.0000 0.59210  0.87840  0.53639  Biso   1.000  C
  H153     1.0000 0.65720  0.93970  0.54717  Biso   1.000  H
  C164     1.0000 0.63070  0.85190  0.51499  Biso   1.000  C
  H154     1.0000 0.72340  0.89640  0.51147  Biso   1.000  H
  C165     1.0000 0.72700  0.44250  0.60444  Biso   1.000  C
  C166     1.0000 0.60010  0.34120  0.59266  Biso   1.000  C
  C167     1.0000 0.47930  0.32060  0.60130  Biso   1.000  C
  H155     1.0000 0.47900  0.37660  0.61357  Biso   1.000  H
  C168     1.0000 0.35800  0.21980  0.59242  Biso   1.000  C
  H156     1.0000 0.27620  0.20690  0.59867  Biso   1.000  H
