data_image0
_cell_length_a       12.4752
_cell_length_b       15.3763
_cell_length_c       17.9551
_cell_angle_alpha    69.517
_cell_angle_beta     75.565
_cell_angle_gamma    86.284

_symmetry_space_group_name_H-M    "P 1"
_symmetry_int_tables_number       1

loop_
  _symmetry_equiv_pos_as_xyz
  'x, y, z'

loop_
  _atom_site_label
  _atom_site_occupancy
  _atom_site_fract_x
  _atom_site_fract_y
  _atom_site_fract_z
  _atom_site_thermal_displace_type
  _atom_site_B_iso_or_equiv
  _atom_site_type_symbol
  Zn1      1.0000 0.00627  0.23868  0.34808  Biso   1.000  Zn
  Zn2      1.0000 0.12737  0.41399  0.16799  Biso   1.000  Zn
  Zn3      1.0000 0.82217  0.96157  0.18856  Biso   1.000  Zn
  O1       1.0000 0.17010  0.24660  0.30070  Biso   1.000  O
  O2       1.0000 0.25700  0.34010  0.17599  Biso   1.000  O
  O3       1.0000 0.01230  0.33270  0.16830  Biso   1.000  O
  O4       1.0000 0.86140  0.49660  0.93960  Biso   1.000  O
  O5       1.0000 0.98130  0.84580  0.54320  Biso   1.000  O
  O6       1.0000 0.92110  0.22000  0.27630  Biso   1.000  O
  O7       1.0000 0.69940  0.04580  0.17050  Biso   1.000  O
  O8       1.0000 0.15830  0.84220  0.54040  Biso   1.000  O
  O9       1.0000 0.73050  0.43310  0.91180  Biso   1.000  O
  O10      1.0000 0.78620  0.82780  0.22440  Biso   1.000  O
  O11      1.0000 0.64080  0.96940  0.30340  Biso   1.000  O
  O12      1.0000 0.89380  0.98150  0.26600  Biso   1.000  O
  O13      1.0000 0.95250  0.36010  0.35690  Biso   1.000  O
  O14      1.0000 0.06200  0.46900  0.25120  Biso   1.000  O
  C1       1.0000 0.34860  0.20470  0.23970  Biso   1.000  C
  C2       1.0000 0.20270  0.99340  0.39280  Biso   1.000  C
  H1       1.0000 0.25480  0.98100  0.42560  Biso   1.000  H
  O15      1.0000 0.96880  0.80290  0.20880  Biso   1.000  O
  C3       1.0000 0.84210  0.28180  0.16160  Biso   1.000  C
  C4       1.0000 0.22830  0.05890  0.31450  Biso   1.000  C
  C5       1.0000 0.33700  0.10930  0.27970  Biso   1.000  C
  C6       1.0000 0.65910  0.24430  0.15920  Biso   1.000  C
  C7       1.0000 0.74490  0.22950  0.19870  Biso   1.000  C
  H2       1.0000 0.73660  0.18330  0.25150  Biso   1.000  H
  C8       1.0000 0.45340  0.24680  0.20080  Biso   1.000  C
  H3       1.0000 0.45980  0.31220  0.17360  Biso   1.000  H
  C9       1.0000 0.05360  0.01940  0.29530  Biso   1.000  C
  C10      1.0000 0.54830  0.19440  0.20120  Biso   1.000  C
  C11      1.0000 0.93140  0.27610  0.20520  Biso   1.000  C
  C12      1.0000 0.10040  0.94500  0.42390  Biso   1.000  C
  C13      1.0000 0.43260  0.05670  0.28110  Biso   1.000  C
  H4       1.0000 0.42570  0.99160  0.30950  Biso   1.000  H
  C14      1.0000 0.53770  0.09700  0.24220  Biso   1.000  C
  C15      1.0000 0.97560  0.44330  0.30840  Biso   1.000  C
  C16      1.0000 0.25010  0.26650  0.23950  Biso   1.000  C
  C17      1.0000 0.63100  0.03340  0.23950  Biso   1.000  C
  C18      1.0000 0.67430  0.30880  0.08130  Biso   1.000  C
  H5       1.0000 0.61600  0.31770  0.05420  Biso   1.000  H
  C19      1.0000 0.85600  0.34900  0.08270  Biso   1.000  C
  H6       1.0000 0.92220  0.38590  0.05790  Biso   1.000  H
  C20      1.0000 0.02790  0.95820  0.37570  Biso   1.000  C
  H7       1.0000 0.95880  0.92510  0.39720  Biso   1.000  H
  C21      1.0000 0.77180  0.36160  0.04080  Biso   1.000  C
  C22      1.0000 0.07840  0.87370  0.50830  Biso   1.000  C
  C23      1.0000 0.89580  0.51730  0.32090  Biso   1.000  C
  C24      1.0000 0.15370  0.07100  0.26440  Biso   1.000  C
  H8       1.0000 0.17120  0.11400  0.20990  Biso   1.000  H
  C25      1.0000 0.78650  0.43420  0.95780  Biso   1.000  C
  C26      1.0000 0.50520  0.56470  0.42490  Biso   1.000  C
  C27      1.0000 0.98240  0.02850  0.23690  Biso   1.000  C
  C28      1.0000 0.92030  0.60950  0.27330  Biso   1.000  C
  H9       1.0000 0.98980  0.62730  0.23500  Biso   1.000  H
  C29      1.0000 0.84200  0.67570  0.28230  Biso   1.000  C
  C30      1.0000 0.60350  0.52960  0.44310  Biso   1.000  C
  C31      1.0000 0.73870  0.65020  0.33470  Biso   1.000  C
  H10      1.0000 0.68490  0.69630  0.33750  Biso   1.000  H
  C32      1.0000 0.79140  0.49000  0.37730  Biso   1.000  C
  H11      1.0000 0.77530  0.42670  0.41040  Biso   1.000  H
  C33      1.0000 0.71190  0.55810  0.38350  Biso   1.000  C
  C34      1.0000 0.87030  0.77690  0.23330  Biso   1.000  C
  C35      1.0000 0.40360  0.53700  0.47940  Biso   1.000  C
  H12      1.0000 0.33800  0.56350  0.46400  Biso   1.000  H
  O16      1.0000 0.01690  0.07770  0.16380  Biso   1.000  O
  O17      1.0000 0.52210  0.62700  0.28210  Biso   1.000  O
  O18      1.0000 0.42920  0.71690  0.34990  Biso   1.000  O
  C36      1.0000 0.48270  0.64190  0.34910  Biso   1.000  C
  Zn4      1.0000 0.99373  0.76132  0.65192  Biso   1.000  Zn
  Zn5      1.0000 0.87263  0.58601  0.83201  Biso   1.000  Zn
  Zn6      1.0000 0.17783  0.03843  0.81144  Biso   1.000  Zn
  O19      1.0000 0.82990  0.75340  0.69930  Biso   1.000  O
  O20      1.0000 0.74300  0.65990  0.82401  Biso   1.000  O
  O21      1.0000 0.98770  0.66730  0.83170  Biso   1.000  O
  O22      1.0000 0.13860  0.50340  0.06040  Biso   1.000  O
  O23      1.0000 0.01870  0.15420  0.45680  Biso   1.000  O
  O24      1.0000 0.07890  0.78000  0.72370  Biso   1.000  O
  O25      1.0000 0.30060  0.95420  0.82950  Biso   1.000  O
  O26      1.0000 0.84170  0.15780  0.45960  Biso   1.000  O
  O27      1.0000 0.26950  0.56690  0.08820  Biso   1.000  O
  O28      1.0000 0.21380  0.17220  0.77560  Biso   1.000  O
  O29      1.0000 0.35920  0.03060  0.69660  Biso   1.000  O
  O30      1.0000 0.10620  0.01850  0.73400  Biso   1.000  O
  O31      1.0000 0.04750  0.63990  0.64310  Biso   1.000  O
  O32      1.0000 0.93800  0.53100  0.74880  Biso   1.000  O
  C37      1.0000 0.65140  0.79530  0.76030  Biso   1.000  C
  C38      1.0000 0.79730  0.00660  0.60720  Biso   1.000  C
  H13      1.0000 0.74520  0.01900  0.57440  Biso   1.000  H
  O33      1.0000 0.03120  0.19710  0.79120  Biso   1.000  O
  C39      1.0000 0.15790  0.71820  0.83840  Biso   1.000  C
  C40      1.0000 0.77170  0.94110  0.68550  Biso   1.000  C
  C41      1.0000 0.66300  0.89070  0.72030  Biso   1.000  C
  C42      1.0000 0.34090  0.75570  0.84080  Biso   1.000  C
  C43      1.0000 0.25510  0.77050  0.80130  Biso   1.000  C
  H14      1.0000 0.26340  0.81670  0.74850  Biso   1.000  H
  C44      1.0000 0.54660  0.75320  0.79920  Biso   1.000  C
  H15      1.0000 0.54020  0.68780  0.82640  Biso   1.000  H
  C45      1.0000 0.94640  0.98060  0.70470  Biso   1.000  C
  C46      1.0000 0.45170  0.80560  0.79880  Biso   1.000  C
  C47      1.0000 0.06860  0.72390  0.79480  Biso   1.000  C
  C48      1.0000 0.89960  0.05500  0.57610  Biso   1.000  C
  C49      1.0000 0.56740  0.94330  0.71890  Biso   1.000  C
  H16      1.0000 0.57430  0.00840  0.69050  Biso   1.000  H
  C50      1.0000 0.46230  0.90300  0.75780  Biso   1.000  C
  C51      1.0000 0.02440  0.55670  0.69160  Biso   1.000  C
  C52      1.0000 0.74990  0.73350  0.76050  Biso   1.000  C
  C53      1.0000 0.36900  0.96660  0.76050  Biso   1.000  C
  C54      1.0000 0.32570  0.69120  0.91870  Biso   1.000  C
  H17      1.0000 0.38400  0.68230  0.94580  Biso   1.000  H
  C55      1.0000 0.14400  0.65100  0.91730  Biso   1.000  C
  H18      1.0000 0.07780  0.61410  0.94210  Biso   1.000  H
  C56      1.0000 0.97210  0.04180  0.62430  Biso   1.000  C
  H19      1.0000 0.04120  0.07490  0.60280  Biso   1.000  H
  C57      1.0000 0.22820  0.63840  0.95920  Biso   1.000  C
  C58      1.0000 0.92160  0.12630  0.49170  Biso   1.000  C
  C59      1.0000 0.10420  0.48270  0.67910  Biso   1.000  C
  C60      1.0000 0.84630  0.92900  0.73560  Biso   1.000  C
  H20      1.0000 0.82880  0.88600  0.79010  Biso   1.000  H
  C61      1.0000 0.21350  0.56580  0.04220  Biso   1.000  C
  C62      1.0000 0.49480  0.43530  0.57510  Biso   1.000  C
  C63      1.0000 0.01760  0.97150  0.76310  Biso   1.000  C
  C64      1.0000 0.07970  0.39050  0.72670  Biso   1.000  C
  H21      1.0000 0.01020  0.37270  0.76500  Biso   1.000  H
  C65      1.0000 0.15800  0.32430  0.71770  Biso   1.000  C
  C66      1.0000 0.39650  0.47040  0.55690  Biso   1.000  C
  C67      1.0000 0.26130  0.34980  0.66530  Biso   1.000  C
  H22      1.0000 0.31510  0.30370  0.66250  Biso   1.000  H
  C68      1.0000 0.20860  0.51000  0.62270  Biso   1.000  C
  H23      1.0000 0.22470  0.57330  0.58960  Biso   1.000  H
  C69      1.0000 0.28810  0.44190  0.61650  Biso   1.000  C
  C70      1.0000 0.12970  0.22310  0.76670  Biso   1.000  C
  C71      1.0000 0.59640  0.46300  0.52060  Biso   1.000  C
  H24      1.0000 0.66200  0.43650  0.53600  Biso   1.000  H
  O34      1.0000 0.98310  0.92230  0.83620  Biso   1.000  O
  O35      1.0000 0.47790  0.37300  0.71790  Biso   1.000  O
  O36      1.0000 0.57080  0.28310  0.65010  Biso   1.000  O
  C72      1.0000 0.51730  0.35810  0.65090  Biso   1.000  C
