data_image0
_cell_length_a       9.5137
_cell_length_b       16.1134
_cell_length_c       27.5845
_cell_angle_alpha    91.802
_cell_angle_beta     91.489
_cell_angle_gamma    94.441

_symmetry_space_group_name_H-M    "P 1"
_symmetry_int_tables_number       1

loop_
  _symmetry_equiv_pos_as_xyz
  'x, y, z'

loop_
  _atom_site_label
  _atom_site_occupancy
  _atom_site_fract_x
  _atom_site_fract_y
  _atom_site_fract_z
  _atom_site_thermal_displace_type
  _atom_site_B_iso_or_equiv
  _atom_site_type_symbol
  Zn1      1.0000 0.97161  0.01331  0.15163  Biso   1.000  Zn
  Zn2      1.0000 0.37893  0.46171  0.03075  Biso   1.000  Zn
  Zn3      1.0000 0.12525  0.04650  0.47407  Biso   1.000  Zn
  Zn4      1.0000 0.52723  0.53236  0.34459  Biso   1.000  Zn
  O1       1.0000 0.40430  0.59245  0.30059  Biso   1.000  O
  O2       1.0000 0.30140  0.09479  0.44689  Biso   1.000  O
  O3       1.0000 0.57580  0.63457  0.01718  Biso   1.000  O
  O4       1.0000 0.94630  0.09313  0.20771  Biso   1.000  O
  O5       1.0000 0.20190  0.41608  0.05759  Biso   1.000  O
  O6       1.0000 0.54320  0.42824  0.07127  Biso   1.000  O
  O7       1.0000 0.40990  0.57762  0.06478  Biso   1.000  O
  O8       1.0000 0.10360  0.94803  0.19152  Biso   1.000  O
  O9       1.0000 0.54940  0.42708  0.30686  Biso   1.000  O
  O10      1.0000 0.69680  0.39143  0.36534  Biso   1.000  O
  O11      1.0000 0.84220  0.14432  0.14463  Biso   1.000  O
  O12      1.0000 0.71540  0.48034  0.02428  Biso   1.000  O
  O13      1.0000 0.26050  0.20671  0.40403  Biso   1.000  O
  O14      1.0000 0.90740  0.87055  0.46977  Biso   1.000  O
  O15      1.0000 0.78377  0.02565  0.47753  Biso   1.000  O
  O16      1.0000 0.79182  0.94879  0.14784  Biso   1.000  O
  O17      1.0000 0.95853  0.09179  0.43989  Biso   1.000  O
  O18      1.0000 0.66307  0.61560  0.38321  Biso   1.000  O
  O19      1.0000 0.23804  0.90137  0.13301  Biso   1.000  O
  O20      1.0000 0.83805  0.90373  0.07329  Biso   1.000  O
  C1       1.0000 0.08975  0.81644  0.36212  Biso   1.000  C
  H1       1.0000 0.16320  0.86000  0.36390  Biso   1.000  H
  C2       1.0000 0.81520  0.20980  0.22308  Biso   1.000  C
  O21      1.0000 0.73190  0.58713  0.30955  Biso   1.000  O
  C3       1.0000 0.87020  0.14620  0.18901  Biso   1.000  C
  C4       1.0000 0.16090  0.82490  0.25139  Biso   1.000  C
  H2       1.0000 0.08670  0.85980  0.25730  Biso   1.000  H
  O22      1.0000 0.33070  0.67635  0.35890  Biso   1.000  O
  C5       1.0000 0.83210  0.07520  0.44802  Biso   1.000  C
  C6       1.0000 0.73130  0.34380  0.24281  Biso   1.000  C
  H3       1.0000 0.71630  0.39890  0.23370  Biso   1.000  H
  C7       1.0000 0.64380  0.38320  0.32376  Biso   1.000  C
  C8       1.0000 0.77940  0.18550  0.26944  Biso   1.000  C
  H4       1.0000 0.79680  0.13080  0.27870  Biso   1.000  H
  C9       1.0000 0.83410  0.32450  0.16145  Biso   1.000  C
  C10      1.0000 0.33790  0.15350  0.41934  Biso   1.000  C
  C11      1.0000 0.72720  0.11910  0.41875  Biso   1.000  C
  O23      1.0000 0.24990  0.32219  0.11322  Biso   1.000  O
  C12      1.0000 0.58740  0.11540  0.43110  Biso   1.000  C
  H5       1.0000 0.55700  0.08330  0.45780  Biso   1.000  H
  O24      1.0000 0.07890  0.94030  0.43218  Biso   1.000  O
  C13      1.0000 0.30030  0.71510  0.27762  Biso   1.000  C
  C14      1.0000 0.71920  0.23740  0.30268  Biso   1.000  C
  C15      1.0000 0.23690  0.83590  0.20964  Biso   1.000  C
  C16      1.0000 0.16930  0.36620  0.09127  Biso   1.000  C
  C17      1.0000 0.97280  0.32430  0.14692  Biso   1.000  C
  H6       1.0000 0.03890  0.29730  0.16600  Biso   1.000  H
  C18      1.0000 0.79060  0.29090  0.20932  Biso   1.000  C
  C19      1.0000 0.34630  0.78380  0.20119  Biso   1.000  C
  C20      1.0000 0.34770  0.65690  0.31564  Biso   1.000  C
  C21      1.0000 0.51000  0.71220  0.08613  Biso   1.000  C
  C22      1.0000 0.08690  0.75580  0.32519  Biso   1.000  C
  C23      1.0000 0.67090  0.43961  0.05946  Biso   1.000  C
  C24      1.0000 0.76960  0.16200  0.37761  Biso   1.000  C
  H7       1.0000 0.86530  0.16350  0.36840  Biso   1.000  H
  C25      1.0000 0.69310  0.31930  0.28908  Biso   1.000  C
  C26      1.0000 0.76470  0.90190  0.11010  Biso   1.000  C
  C27      1.0000 0.01650  0.36330  0.10474  Biso   1.000  C
  C28      1.0000 0.77710  0.39940  0.08987  Biso   1.000  C
  C29      1.0000 0.48990  0.15800  0.40495  Biso   1.000  C
  C30      1.0000 0.18780  0.76550  0.28502  Biso   1.000  C
  C31      1.0000 0.91730  0.40180  0.07677  Biso   1.000  C
  H8       1.0000 0.94600  0.42990  0.04850  Biso   1.000  H
  C32      1.0000 0.67340  0.20260  0.35002  Biso   1.000  C
  C33      1.0000 0.87550  0.75110  0.39337  Biso   1.000  C
  H9       1.0000 0.80290  0.74970  0.41640  Biso   1.000  H
  C34      1.0000 0.42100  0.71780  0.12460  Biso   1.000  C
  H10      1.0000 0.34830  0.67500  0.12880  Biso   1.000  H
  C35      1.0000 0.62020  0.77390  0.08004  Biso   1.000  C
  H11      1.0000 0.68160  0.76980  0.05360  Biso   1.000  H
  C36      1.0000 0.73490  0.36060  0.13267  Biso   1.000  C
  H12      1.0000 0.63920  0.35910  0.14190  Biso   1.000  H
  C37      1.0000 0.49670  0.63530  0.05344  Biso   1.000  C
  C38      1.0000 0.99110  0.88150  0.43612  Biso   1.000  C
  C39      1.0000 0.98450  0.81360  0.39679  Biso   1.000  C
  C40      1.0000 0.37630  0.72510  0.23553  Biso   1.000  C
  H13      1.0000 0.45140  0.69080  0.22990  Biso   1.000  H
  C41      1.0000 0.63840  0.84160  0.11338  Biso   1.000  C
  C42      1.0000 0.54500  0.84680  0.15170  Biso   1.000  C
  H14      1.0000 0.55630  0.89300  0.17410  Biso   1.000  H
  C43      1.0000 0.53390  0.20300  0.36475  Biso   1.000  C
  H15      1.0000 0.46900  0.23380  0.34750  Biso   1.000  H
  C44      1.0000 0.97920  0.69340  0.32265  Biso   1.000  C
  H16      1.0000 0.97790  0.65160  0.29750  Biso   1.000  H
  C45      1.0000 0.74930  0.62630  0.34867  Biso   1.000  C
  C46      1.0000 0.87260  0.69050  0.35615  Biso   1.000  C
  C47      1.0000 0.43680  0.78590  0.15751  Biso   1.000  C
  C48      1.0000 0.19160  0.89940  0.17470  Biso   1.000  C
  Zn5      1.0000 0.02839  0.98669  0.84837  Biso   1.000  Zn
  Zn6      1.0000 0.62107  0.53829  0.96925  Biso   1.000  Zn
  Zn7      1.0000 0.87475  0.95350  0.52593  Biso   1.000  Zn
  Zn8      1.0000 0.47277  0.46764  0.65541  Biso   1.000  Zn
  O25      1.0000 0.59570  0.40755  0.69941  Biso   1.000  O
  O26      1.0000 0.69860  0.90521  0.55311  Biso   1.000  O
  O27      1.0000 0.42420  0.36543  0.98282  Biso   1.000  O
  O28      1.0000 0.05370  0.90687  0.79229  Biso   1.000  O
  O29      1.0000 0.79810  0.58392  0.94241  Biso   1.000  O
  O30      1.0000 0.45680  0.57176  0.92873  Biso   1.000  O
  O31      1.0000 0.59010  0.42238  0.93522  Biso   1.000  O
  O32      1.0000 0.89640  0.05197  0.80848  Biso   1.000  O
  O33      1.0000 0.45060  0.57292  0.69314  Biso   1.000  O
  O34      1.0000 0.30320  0.60857  0.63466  Biso   1.000  O
  O35      1.0000 0.15780  0.85568  0.85537  Biso   1.000  O
  O36      1.0000 0.28460  0.51966  0.97572  Biso   1.000  O
  O37      1.0000 0.73950  0.79329  0.59597  Biso   1.000  O
  O38      1.0000 0.09260  0.12945  0.53023  Biso   1.000  O
  O39      1.0000 0.21623  0.97435  0.52247  Biso   1.000  O
  O40      1.0000 0.20818  0.05121  0.85216  Biso   1.000  O
  O41      1.0000 0.04147  0.90821  0.56011  Biso   1.000  O
  O42      1.0000 0.33693  0.38440  0.61679  Biso   1.000  O
  O43      1.0000 0.76196  0.09863  0.86699  Biso   1.000  O
  O44      1.0000 0.16195  0.09627  0.92671  Biso   1.000  O
  C49      1.0000 0.91025  0.18356  0.63788  Biso   1.000  C
  H17      1.0000 0.83680  0.14000  0.63610  Biso   1.000  H
  C50      1.0000 0.18480  0.79020  0.77692  Biso   1.000  C
  O45      1.0000 0.26810  0.41287  0.69045  Biso   1.000  O
  C51      1.0000 0.12980  0.85380  0.81099  Biso   1.000  C
  C52      1.0000 0.83910  0.17510  0.74861  Biso   1.000  C
  H18      1.0000 0.91330  0.14020  0.74270  Biso   1.000  H
  O46      1.0000 0.66930  0.32365  0.64110  Biso   1.000  O
  C53      1.0000 0.16790  0.92480  0.55198  Biso   1.000  C
  C54      1.0000 0.26870  0.65620  0.75719  Biso   1.000  C
  H19      1.0000 0.28370  0.60110  0.76630  Biso   1.000  H
  C55      1.0000 0.35620  0.61680  0.67624  Biso   1.000  C
  C56      1.0000 0.22060  0.81450  0.73056  Biso   1.000  C
  H20      1.0000 0.20320  0.86920  0.72130  Biso   1.000  H
  C57      1.0000 0.16590  0.67550  0.83855  Biso   1.000  C
  C58      1.0000 0.66210  0.84650  0.58066  Biso   1.000  C
  C59      1.0000 0.27280  0.88090  0.58125  Biso   1.000  C
  O47      1.0000 0.75010  0.67781  0.88678  Biso   1.000  O
  C60      1.0000 0.41260  0.88460  0.56890  Biso   1.000  C
  H21      1.0000 0.44300  0.91670  0.54220  Biso   1.000  H
  O48      1.0000 0.92110  0.05970  0.56782  Biso   1.000  O
  C61      1.0000 0.69970  0.28490  0.72238  Biso   1.000  C
  C62      1.0000 0.28080  0.76260  0.69732  Biso   1.000  C
  C63      1.0000 0.76310  0.16410  0.79036  Biso   1.000  C
  C64      1.0000 0.83070  0.63380  0.90873  Biso   1.000  C
  C65      1.0000 0.02720  0.67570  0.85308  Biso   1.000  C
  H22      1.0000 0.96110  0.70270  0.83400  Biso   1.000  H
  C66      1.0000 0.20940  0.70910  0.79068  Biso   1.000  C
  C67      1.0000 0.65370  0.21620  0.79881  Biso   1.000  C
  C68      1.0000 0.65230  0.34310  0.68436  Biso   1.000  C
  C69      1.0000 0.49000  0.28780  0.91387  Biso   1.000  C
  C70      1.0000 0.91310  0.24420  0.67481  Biso   1.000  C
  C71      1.0000 0.32910  0.56039  0.94054  Biso   1.000  C
  C72      1.0000 0.23040  0.83800  0.62239  Biso   1.000  C
  H23      1.0000 0.13470  0.83650  0.63160  Biso   1.000  H
  C73      1.0000 0.30690  0.68070  0.71092  Biso   1.000  C
  C74      1.0000 0.23530  0.09810  0.88990  Biso   1.000  C
  C75      1.0000 0.98350  0.63670  0.89526  Biso   1.000  C
  C76      1.0000 0.22290  0.60060  0.91013  Biso   1.000  C
  C77      1.0000 0.51010  0.84200  0.59505  Biso   1.000  C
  C78      1.0000 0.81220  0.23450  0.71498  Biso   1.000  C
  C79      1.0000 0.08270  0.59820  0.92323  Biso   1.000  C
  H24      1.0000 0.05400  0.57010  0.95150  Biso   1.000  H
  C80      1.0000 0.32660  0.79740  0.64998  Biso   1.000  C
  C81      1.0000 0.12450  0.24890  0.60663  Biso   1.000  C
  H25      1.0000 0.19710  0.25030  0.58360  Biso   1.000  H
  C82      1.0000 0.57900  0.28220  0.87540  Biso   1.000  C
  H26      1.0000 0.65170  0.32500  0.87120  Biso   1.000  H
  C83      1.0000 0.37980  0.22610  0.91996  Biso   1.000  C
  H27      1.0000 0.31840  0.23020  0.94640  Biso   1.000  H
  C84      1.0000 0.26510  0.63940  0.86733  Biso   1.000  C
  H28      1.0000 0.36080  0.64090  0.85810  Biso   1.000  H
  C85      1.0000 0.50330  0.36470  0.94656  Biso   1.000  C
  C86      1.0000 0.00890  0.11850  0.56388  Biso   1.000  C
  C87      1.0000 0.01550  0.18640  0.60321  Biso   1.000  C
  C88      1.0000 0.62370  0.27490  0.76447  Biso   1.000  C
  H29      1.0000 0.54860  0.30920  0.77010  Biso   1.000  H
  C89      1.0000 0.36160  0.15840  0.88662  Biso   1.000  C
  C90      1.0000 0.45500  0.15320  0.84830  Biso   1.000  C
  H30      1.0000 0.44370  0.10700  0.82590  Biso   1.000  H
  C91      1.0000 0.46610  0.79700  0.63525  Biso   1.000  C
  H31      1.0000 0.53100  0.76620  0.65250  Biso   1.000  H
  C92      1.0000 0.02080  0.30660  0.67735  Biso   1.000  C
  H32      1.0000 0.02210  0.34840  0.70250  Biso   1.000  H
  C93      1.0000 0.25070  0.37370  0.65133  Biso   1.000  C
  C94      1.0000 0.12740  0.30950  0.64385  Biso   1.000  C
  C95      1.0000 0.56320  0.21410  0.84249  Biso   1.000  C
  C96      1.0000 0.80840  0.10060  0.82530  Biso   1.000  C
