data_image0
_cell_length_a       15.273
_cell_length_b       8.881
_cell_length_c       15.39
_cell_angle_alpha    90
_cell_angle_beta     109.92
_cell_angle_gamma    90

_symmetry_space_group_name_H-M    "P 1"
_symmetry_int_tables_number       1

loop_
  _symmetry_equiv_pos_as_xyz
  'x, y, z'

loop_
  _atom_site_label
  _atom_site_occupancy
  _atom_site_fract_x
  _atom_site_fract_y
  _atom_site_fract_z
  _atom_site_thermal_displace_type
  _atom_site_B_iso_or_equiv
  _atom_site_type_symbol
  C1       1.0000 0.17649  0.23557  0.09250  Biso   1.000  C
  N1       1.0000 0.13539  0.22720  0.14250  Biso   1.000  N
  C2       1.0000 0.16837  0.07492  0.92278  Biso   1.000  C
  N2       1.0000 0.12288  0.97944  0.87996  Biso   1.000  N
  C3       1.0000 0.34533  0.09249  0.08028  Biso   1.000  C
  N3       1.0000 0.39591  0.00446  0.12492  Biso   1.000  N
  C4       1.0000 0.82351  0.23557  0.40750  Biso   1.000  C
  N4       1.0000 0.86461  0.22720  0.35750  Biso   1.000  N
  C5       1.0000 0.83163  0.07492  0.57722  Biso   1.000  C
  N5       1.0000 0.87712  0.97944  0.62004  Biso   1.000  N
  C6       1.0000 0.65467  0.09249  0.41972  Biso   1.000  C
  N6       1.0000 0.60409  0.00446  0.37508  Biso   1.000  N
  C7       1.0000 0.32351  0.26443  0.90750  Biso   1.000  C
  N7       1.0000 0.36461  0.27280  0.85750  Biso   1.000  N
  C8       1.0000 0.33163  0.42508  0.07722  Biso   1.000  C
  N8       1.0000 0.37712  0.52056  0.12004  Biso   1.000  N
  C9       1.0000 0.15467  0.40751  0.91972  Biso   1.000  C
  N9       1.0000 0.10409  0.49554  0.87508  Biso   1.000  N
  C10      1.0000 0.67649  0.26443  0.59250  Biso   1.000  C
  N10      1.0000 0.63539  0.27280  0.64250  Biso   1.000  N
  C11      1.0000 0.66837  0.42508  0.42278  Biso   1.000  C
  N11      1.0000 0.62288  0.52056  0.37996  Biso   1.000  N
  C12      1.0000 0.84533  0.40751  0.58028  Biso   1.000  C
  N12      1.0000 0.89591  0.49554  0.62492  Biso   1.000  N
  K1       1.0000 0.50000  0.74894  0.25000  Biso   1.000  K
  K2       1.0000 0.00000  0.75106  0.75000  Biso   1.000  K
  Cr1      1.0000 0.25000  0.25000  0.00000  Biso   1.000  Cr
  Cr2      1.0000 0.75000  0.25000  0.50000  Biso   1.000  Cr
  C13      1.0000 0.67649  0.73557  0.09250  Biso   1.000  C
  N13      1.0000 0.63539  0.72720  0.14250  Biso   1.000  N
  C14      1.0000 0.66837  0.57492  0.92278  Biso   1.000  C
  N14      1.0000 0.62288  0.47944  0.87996  Biso   1.000  N
  C15      1.0000 0.84533  0.59249  0.08028  Biso   1.000  C
  N15      1.0000 0.89591  0.50446  0.12492  Biso   1.000  N
  C16      1.0000 0.32351  0.73557  0.40750  Biso   1.000  C
  N16      1.0000 0.36461  0.72720  0.35750  Biso   1.000  N
  C17      1.0000 0.33163  0.57492  0.57722  Biso   1.000  C
  N17      1.0000 0.37712  0.47944  0.62004  Biso   1.000  N
  C18      1.0000 0.15467  0.59249  0.41972  Biso   1.000  C
  N18      1.0000 0.10409  0.50446  0.37508  Biso   1.000  N
  C19      1.0000 0.82351  0.76443  0.90750  Biso   1.000  C
  N19      1.0000 0.86461  0.77280  0.85750  Biso   1.000  N
  C20      1.0000 0.83163  0.92508  0.07722  Biso   1.000  C
  N20      1.0000 0.87712  0.02056  0.12004  Biso   1.000  N
  C21      1.0000 0.65467  0.90751  0.91972  Biso   1.000  C
  N21      1.0000 0.60409  0.99554  0.87508  Biso   1.000  N
  C22      1.0000 0.17649  0.76443  0.59250  Biso   1.000  C
  N22      1.0000 0.13539  0.77280  0.64250  Biso   1.000  N
  C23      1.0000 0.16837  0.92508  0.42278  Biso   1.000  C
  N23      1.0000 0.12288  0.02056  0.37996  Biso   1.000  N
  C24      1.0000 0.34533  0.90751  0.58028  Biso   1.000  C
  N24      1.0000 0.39591  0.99554  0.62492  Biso   1.000  N
  K3       1.0000 0.00000  0.24894  0.25000  Biso   1.000  K
  K4       1.0000 0.50000  0.25106  0.75000  Biso   1.000  K
  Cr3      1.0000 0.75000  0.75000  0.00000  Biso   1.000  Cr
  Cr4      1.0000 0.25000  0.75000  0.50000  Biso   1.000  Cr
