data_image0
_cell_length_a       20.3157
_cell_length_b       20.3157
_cell_length_c       19.918
_cell_angle_alpha    90
_cell_angle_beta     90
_cell_angle_gamma    90

_symmetry_space_group_name_H-M    "P 1"
_symmetry_int_tables_number       1

loop_
  _symmetry_equiv_pos_as_xyz
  'x, y, z'

loop_
  _atom_site_label
  _atom_site_occupancy
  _atom_site_fract_x
  _atom_site_fract_y
  _atom_site_fract_z
  _atom_site_thermal_displace_type
  _atom_site_B_iso_or_equiv
  _atom_site_type_symbol
  N1       1.0000 0.05469  0.17932  0.12765  Biso   1.000  N
  N2       1.0000 0.03192  0.14304  0.07726  Biso   1.000  N
  C1       1.0000 0.94120  0.30870  0.29920  Biso   1.000  C
  H1       1.0000 0.90150  0.32260  0.31750  Biso   1.000  H
  C2       1.0000 0.94290  0.26470  0.24450  Biso   1.000  C
  H2       1.0000 0.90330  0.24970  0.22660  Biso   1.000  H
  N3       1.0000 0.94531  0.82068  0.12765  Biso   1.000  N
  N4       1.0000 0.96808  0.85696  0.07726  Biso   1.000  N
  C3       1.0000 0.05880  0.69130  0.29920  Biso   1.000  C
  H3       1.0000 0.09850  0.67740  0.31750  Biso   1.000  H
  C4       1.0000 0.05710  0.73530  0.24450  Biso   1.000  C
  H4       1.0000 0.09670  0.75030  0.22660  Biso   1.000  H
  N5       1.0000 0.82068  0.05469  0.12765  Biso   1.000  N
  N6       1.0000 0.85696  0.03192  0.07726  Biso   1.000  N
  C5       1.0000 0.69130  0.94120  0.29920  Biso   1.000  C
  H5       1.0000 0.67740  0.90150  0.31750  Biso   1.000  H
  C6       1.0000 0.73530  0.94290  0.24450  Biso   1.000  C
  H6       1.0000 0.75030  0.90330  0.22660  Biso   1.000  H
  N7       1.0000 0.17932  0.94531  0.12765  Biso   1.000  N
  N8       1.0000 0.14304  0.96808  0.07726  Biso   1.000  N
  C7       1.0000 0.30870  0.05880  0.29920  Biso   1.000  C
  H7       1.0000 0.32260  0.09850  0.31750  Biso   1.000  H
  C8       1.0000 0.26470  0.05710  0.24450  Biso   1.000  C
  H8       1.0000 0.24970  0.09670  0.22660  Biso   1.000  H
  N9       1.0000 0.94531  0.17932  0.87235  Biso   1.000  N
  N10      1.0000 0.96808  0.14304  0.92274  Biso   1.000  N
  C9       1.0000 0.05880  0.30870  0.70080  Biso   1.000  C
  H9       1.0000 0.09850  0.32260  0.68250  Biso   1.000  H
  C10      1.0000 0.05710  0.26470  0.75550  Biso   1.000  C
  H10      1.0000 0.09670  0.24970  0.77340  Biso   1.000  H
  N11      1.0000 0.05469  0.82068  0.87235  Biso   1.000  N
  N12      1.0000 0.03192  0.85696  0.92274  Biso   1.000  N
  C11      1.0000 0.94120  0.69130  0.70080  Biso   1.000  C
  H11      1.0000 0.90150  0.67740  0.68250  Biso   1.000  H
  C12      1.0000 0.94290  0.73530  0.75550  Biso   1.000  C
  H12      1.0000 0.90330  0.75030  0.77340  Biso   1.000  H
  N13      1.0000 0.17932  0.05469  0.87235  Biso   1.000  N
  N14      1.0000 0.14304  0.03192  0.92274  Biso   1.000  N
  C13      1.0000 0.30870  0.94120  0.70080  Biso   1.000  C
  H13      1.0000 0.32260  0.90150  0.68250  Biso   1.000  H
  C14      1.0000 0.26470  0.94290  0.75550  Biso   1.000  C
  H14      1.0000 0.24970  0.90330  0.77340  Biso   1.000  H
  N15      1.0000 0.82068  0.94531  0.87235  Biso   1.000  N
  N16      1.0000 0.85696  0.96808  0.92274  Biso   1.000  N
  C15      1.0000 0.69130  0.05880  0.70080  Biso   1.000  C
  H15      1.0000 0.67740  0.09850  0.68250  Biso   1.000  H
  C16      1.0000 0.73530  0.05710  0.75550  Biso   1.000  C
  H16      1.0000 0.75030  0.09670  0.77340  Biso   1.000  H
  N17      1.0000 0.94531  0.82068  0.87235  Biso   1.000  N
  N18      1.0000 0.96808  0.85696  0.92274  Biso   1.000  N
  C17      1.0000 0.05880  0.69130  0.70080  Biso   1.000  C
  H17      1.0000 0.09850  0.67740  0.68250  Biso   1.000  H
  C18      1.0000 0.05710  0.73530  0.75550  Biso   1.000  C
  H18      1.0000 0.09670  0.75030  0.77340  Biso   1.000  H
  N19      1.0000 0.05469  0.17932  0.87235  Biso   1.000  N
  N20      1.0000 0.03192  0.14304  0.92274  Biso   1.000  N
  C19      1.0000 0.94120  0.30870  0.70080  Biso   1.000  C
  H19      1.0000 0.90150  0.32260  0.68250  Biso   1.000  H
  C20      1.0000 0.94290  0.26470  0.75550  Biso   1.000  C
  H20      1.0000 0.90330  0.24970  0.77340  Biso   1.000  H
  N21      1.0000 0.17932  0.94531  0.87235  Biso   1.000  N
  N22      1.0000 0.14304  0.96808  0.92274  Biso   1.000  N
  C21      1.0000 0.30870  0.05880  0.70080  Biso   1.000  C
  H21      1.0000 0.32260  0.09850  0.68250  Biso   1.000  H
  C22      1.0000 0.26470  0.05710  0.75550  Biso   1.000  C
  H22      1.0000 0.24970  0.09670  0.77340  Biso   1.000  H
  N23      1.0000 0.82068  0.05469  0.87235  Biso   1.000  N
  N24      1.0000 0.85696  0.03192  0.92274  Biso   1.000  N
  C23      1.0000 0.69130  0.94120  0.70080  Biso   1.000  C
  H23      1.0000 0.67740  0.90150  0.68250  Biso   1.000  H
  C24      1.0000 0.73530  0.94290  0.75550  Biso   1.000  C
  H24      1.0000 0.75030  0.90330  0.77340  Biso   1.000  H
  N25      1.0000 0.05469  0.82068  0.12765  Biso   1.000  N
  N26      1.0000 0.03192  0.85696  0.07726  Biso   1.000  N
  C25      1.0000 0.94120  0.69130  0.29920  Biso   1.000  C
  H25      1.0000 0.90150  0.67740  0.31750  Biso   1.000  H
  C26      1.0000 0.94290  0.73530  0.24450  Biso   1.000  C
  H26      1.0000 0.90330  0.75030  0.22660  Biso   1.000  H
  N27      1.0000 0.94531  0.17932  0.12765  Biso   1.000  N
  N28      1.0000 0.96808  0.14304  0.07726  Biso   1.000  N
  C27      1.0000 0.05880  0.30870  0.29920  Biso   1.000  C
  H27      1.0000 0.09850  0.32260  0.31750  Biso   1.000  H
  C28      1.0000 0.05710  0.26470  0.24450  Biso   1.000  C
  H28      1.0000 0.09670  0.24970  0.22660  Biso   1.000  H
  N29      1.0000 0.82068  0.94531  0.12765  Biso   1.000  N
  N30      1.0000 0.85696  0.96808  0.07726  Biso   1.000  N
  C29      1.0000 0.69130  0.05880  0.29920  Biso   1.000  C
  H29      1.0000 0.67740  0.09850  0.31750  Biso   1.000  H
  C30      1.0000 0.73530  0.05710  0.24450  Biso   1.000  C
  H30      1.0000 0.75030  0.09670  0.22660  Biso   1.000  H
  N31      1.0000 0.17932  0.05469  0.12765  Biso   1.000  N
  N32      1.0000 0.14304  0.03192  0.07726  Biso   1.000  N
  C31      1.0000 0.30870  0.94120  0.29920  Biso   1.000  C
  H31      1.0000 0.32260  0.90150  0.31750  Biso   1.000  H
  C32      1.0000 0.26470  0.94290  0.24450  Biso   1.000  C
  H32      1.0000 0.24970  0.90330  0.22660  Biso   1.000  H
  Mn1      1.0000 0.00000  0.50000  0.50000  Biso   1.000  Mn
  Mn2      1.0000 0.50000  0.00000  0.50000  Biso   1.000  Mn
  Mn3      1.0000 0.09427  0.09427  0.00000  Biso   1.000  Mn
  Mn4      1.0000 0.90573  0.90573  0.00000  Biso   1.000  Mn
  Mn5      1.0000 0.90573  0.09427  0.00000  Biso   1.000  Mn
  Mn6      1.0000 0.09427  0.90573  0.00000  Biso   1.000  Mn
  Cl1      1.0000 0.00000  0.00000  0.00000  Biso   1.000  Cl
  N33      1.0000 0.00000  0.40160  0.50000  Biso   1.000  N
  N34      1.0000 0.00000  0.59840  0.50000  Biso   1.000  N
  N35      1.0000 0.59840  0.00000  0.50000  Biso   1.000  N
  N36      1.0000 0.40160  0.00000  0.50000  Biso   1.000  N
  N37      1.0000 0.00000  0.50000  0.40020  Biso   1.000  N
  N38      1.0000 0.50000  0.00000  0.40020  Biso   1.000  N
  N39      1.0000 0.00000  0.50000  0.59980  Biso   1.000  N
  N40      1.0000 0.50000  0.00000  0.59980  Biso   1.000  N
  C33      1.0000 0.00000  0.36020  0.44470  Biso   1.000  C
  C34      1.0000 0.00000  0.37970  0.37950  Biso   1.000  C
  C35      1.0000 0.00000  0.44740  0.35820  Biso   1.000  C
  C36      1.0000 0.00000  0.29300  0.46720  Biso   1.000  C
  H33      1.0000 0.00000  0.25590  0.43980  Biso   1.000  H
  C37      1.0000 0.00000  0.46780  0.29040  Biso   1.000  C
  H34      1.0000 0.00000  0.44060  0.25280  Biso   1.000  H
  C38      1.0000 0.00000  0.33040  0.32470  Biso   1.000  C
  C39      1.0000 0.00000  0.24340  0.21710  Biso   1.000  C
  C40      1.0000 0.00000  0.20010  0.15760  Biso   1.000  C
  C41      1.0000 0.00000  0.63980  0.44470  Biso   1.000  C
  C42      1.0000 0.00000  0.62030  0.37950  Biso   1.000  C
  C43      1.0000 0.00000  0.55260  0.35820  Biso   1.000  C
  C44      1.0000 0.00000  0.70700  0.46720  Biso   1.000  C
  H35      1.0000 0.00000  0.74410  0.43980  Biso   1.000  H
  C45      1.0000 0.00000  0.53220  0.29040  Biso   1.000  C
  H36      1.0000 0.00000  0.55940  0.25280  Biso   1.000  H
  C46      1.0000 0.00000  0.66960  0.32470  Biso   1.000  C
  C47      1.0000 0.00000  0.75660  0.21710  Biso   1.000  C
  C48      1.0000 0.00000  0.79990  0.15760  Biso   1.000  C
  C49      1.0000 0.63980  0.00000  0.44470  Biso   1.000  C
  C50      1.0000 0.62030  0.00000  0.37950  Biso   1.000  C
  C51      1.0000 0.55260  0.00000  0.35820  Biso   1.000  C
  C52      1.0000 0.70700  0.00000  0.46720  Biso   1.000  C
  H37      1.0000 0.74410  0.00000  0.43980  Biso   1.000  H
  C53      1.0000 0.53220  0.00000  0.29040  Biso   1.000  C
  H38      1.0000 0.55940  0.00000  0.25280  Biso   1.000  H
  C54      1.0000 0.66960  0.00000  0.32470  Biso   1.000  C
  C55      1.0000 0.75660  0.00000  0.21710  Biso   1.000  C
  C56      1.0000 0.79990  0.00000  0.15760  Biso   1.000  C
  C57      1.0000 0.36020  0.00000  0.44470  Biso   1.000  C
  C58      1.0000 0.37970  0.00000  0.37950  Biso   1.000  C
  C59      1.0000 0.44740  0.00000  0.35820  Biso   1.000  C
  C60      1.0000 0.29300  0.00000  0.46720  Biso   1.000  C
  H39      1.0000 0.25590  0.00000  0.43980  Biso   1.000  H
  C61      1.0000 0.46780  0.00000  0.29040  Biso   1.000  C
  H40      1.0000 0.44060  0.00000  0.25280  Biso   1.000  H
  C62      1.0000 0.33040  0.00000  0.32470  Biso   1.000  C
  C63      1.0000 0.24340  0.00000  0.21710  Biso   1.000  C
  C64      1.0000 0.20010  0.00000  0.15760  Biso   1.000  C
  C65      1.0000 0.00000  0.36020  0.55530  Biso   1.000  C
  C66      1.0000 0.00000  0.37970  0.62050  Biso   1.000  C
  C67      1.0000 0.00000  0.44740  0.64180  Biso   1.000  C
  C68      1.0000 0.00000  0.29300  0.53280  Biso   1.000  C
  H41      1.0000 0.00000  0.25590  0.56020  Biso   1.000  H
  C69      1.0000 0.00000  0.46780  0.70960  Biso   1.000  C
  H42      1.0000 0.00000  0.44060  0.74720  Biso   1.000  H
  C70      1.0000 0.00000  0.33040  0.67530  Biso   1.000  C
  C71      1.0000 0.00000  0.24340  0.78290  Biso   1.000  C
  C72      1.0000 0.00000  0.20010  0.84240  Biso   1.000  C
  C73      1.0000 0.00000  0.63980  0.55530  Biso   1.000  C
  C74      1.0000 0.00000  0.62030  0.62050  Biso   1.000  C
  C75      1.0000 0.00000  0.55260  0.64180  Biso   1.000  C
  C76      1.0000 0.00000  0.70700  0.53280  Biso   1.000  C
  H43      1.0000 0.00000  0.74410  0.56020  Biso   1.000  H
  C77      1.0000 0.00000  0.53220  0.70960  Biso   1.000  C
  H44      1.0000 0.00000  0.55940  0.74720  Biso   1.000  H
  C78      1.0000 0.00000  0.66960  0.67530  Biso   1.000  C
  C79      1.0000 0.00000  0.75660  0.78290  Biso   1.000  C
  C80      1.0000 0.00000  0.79990  0.84240  Biso   1.000  C
  C81      1.0000 0.36020  0.00000  0.55530  Biso   1.000  C
  C82      1.0000 0.37970  0.00000  0.62050  Biso   1.000  C
  C83      1.0000 0.44740  0.00000  0.64180  Biso   1.000  C
  C84      1.0000 0.29300  0.00000  0.53280  Biso   1.000  C
  H45      1.0000 0.25590  0.00000  0.56020  Biso   1.000  H
  C85      1.0000 0.46780  0.00000  0.70960  Biso   1.000  C
  H46      1.0000 0.44060  0.00000  0.74720  Biso   1.000  H
  C86      1.0000 0.33040  0.00000  0.67530  Biso   1.000  C
  C87      1.0000 0.24340  0.00000  0.78290  Biso   1.000  C
  C88      1.0000 0.20010  0.00000  0.84240  Biso   1.000  C
  C89      1.0000 0.63980  0.00000  0.55530  Biso   1.000  C
  C90      1.0000 0.62030  0.00000  0.62050  Biso   1.000  C
  C91      1.0000 0.55260  0.00000  0.64180  Biso   1.000  C
  C92      1.0000 0.70700  0.00000  0.53280  Biso   1.000  C
  H47      1.0000 0.74410  0.00000  0.56020  Biso   1.000  H
  C93      1.0000 0.53220  0.00000  0.70960  Biso   1.000  C
  H48      1.0000 0.55940  0.00000  0.74720  Biso   1.000  H
  C94      1.0000 0.66960  0.00000  0.67530  Biso   1.000  C
  C95      1.0000 0.75660  0.00000  0.78290  Biso   1.000  C
  C96      1.0000 0.79990  0.00000  0.84240  Biso   1.000  C
  Cl2      1.0000 0.12580  0.50000  0.50000  Biso   1.000  Cl
  Cl3      1.0000 0.87420  0.50000  0.50000  Biso   1.000  Cl
  Cl4      1.0000 0.50000  0.12580  0.50000  Biso   1.000  Cl
  Cl5      1.0000 0.50000  0.87420  0.50000  Biso   1.000  Cl
