data_image0
_cell_length_a       10.2187
_cell_length_b       11.5176
_cell_length_c       16.3127
_cell_angle_alpha    82.71
_cell_angle_beta     75.911
_cell_angle_gamma    77.542

_symmetry_space_group_name_H-M    "P 1"
_symmetry_int_tables_number       1

loop_
  _symmetry_equiv_pos_as_xyz
  'x, y, z'

loop_
  _atom_site_label
  _atom_site_occupancy
  _atom_site_fract_x
  _atom_site_fract_y
  _atom_site_fract_z
  _atom_site_thermal_displace_type
  _atom_site_B_iso_or_equiv
  _atom_site_type_symbol
  C1       1.0000 0.51430  0.91010  0.35030  Biso   1.000  C
  C2       1.0000 0.53130  0.86720  0.26600  Biso   1.000  C
  C3       1.0000 0.44370  0.91970  0.21180  Biso   1.000  C
  H1       1.0000 0.37660  0.98640  0.22760  Biso   1.000  H
  C4       1.0000 0.45520  0.87460  0.13580  Biso   1.000  C
  C5       1.0000 0.55760  0.77510  0.11230  Biso   1.000  C
  H2       1.0000 0.56380  0.74270  0.06180  Biso   1.000  H
  C6       1.0000 0.64800  0.72480  0.16090  Biso   1.000  C
  C7       1.0000 0.63360  0.77050  0.23900  Biso   1.000  C
  H3       1.0000 0.69400  0.73530  0.27340  Biso   1.000  H
  C8       1.0000 0.75990  0.61770  0.13700  Biso   1.000  C
  C9       1.0000 0.84900  0.60960  0.05730  Biso   1.000  C
  C10      1.0000 0.95320  0.50590  0.04090  Biso   1.000  C
  C11      1.0000 0.96530  0.40910  0.10480  Biso   1.000  C
  C12      1.0000 0.87610  0.42210  0.18500  Biso   1.000  C
  C13      1.0000 0.77590  0.52350  0.19790  Biso   1.000  C
  H4       1.0000 0.71530  0.52900  0.25060  Biso   1.000  H
  C14      1.0000 0.88060  0.32630  0.25660  Biso   1.000  C
  C15      1.0000 0.76400  0.28290  0.29600  Biso   1.000  C
  H5       1.0000 0.68340  0.31250  0.27720  Biso   1.000  H
  C16      1.0000 0.76330  0.19440  0.36450  Biso   1.000  C
  C17      1.0000 0.88420  0.15270  0.39150  Biso   1.000  C
  H6       1.0000 0.88710  0.09250  0.43520  Biso   1.000  H
  C18      1.0000 0.00030  0.19870  0.35520  Biso   1.000  C
  C19      1.0000 0.99690  0.28530  0.28740  Biso   1.000  C
  H7       1.0000 0.07560  0.31610  0.26250  Biso   1.000  H
  C20      1.0000 0.63320  0.15580  0.40510  Biso   1.000  C
  C21      1.0000 0.12470  0.16440  0.39190  Biso   1.000  C
  C22      1.0000 0.06530  0.30430  0.08480  Biso   1.000  C
  H8       1.0000 0.07050  0.23980  0.12520  Biso   1.000  H
  C23      1.0000 0.84720  0.70360  0.99170  Biso   1.000  C
  H9       1.0000 0.78280  0.77370  0.00210  Biso   1.000  H
  C24      1.0000 0.35760  0.92960  0.08290  Biso   1.000  C
  Eu1      1.0000 0.33850  0.12977  0.47841  Biso   1.000  Eu
  O1       1.0000 0.43050  0.00480  0.36690  Biso   1.000  O
  O2       1.0000 0.58680  0.84960  0.39840  Biso   1.000  O
  O3       1.0000 0.26830  0.01740  0.10020  Biso   1.000  O
  O4       1.0000 0.37210  0.87860  0.01340  Biso   1.000  O
  O5       1.0000 0.52400  0.21680  0.39300  Biso   1.000  O
  O6       1.0000 0.63600  0.06210  0.45320  Biso   1.000  O
  O7       1.0000 0.13730  0.07480  0.44220  Biso   1.000  O
  O8       1.0000 0.21350  0.23050  0.37220  Biso   1.000  O
  C25      1.0000 0.48570  0.08990  0.64970  Biso   1.000  C
  C26      1.0000 0.46870  0.13280  0.73400  Biso   1.000  C
  C27      1.0000 0.55630  0.08030  0.78820  Biso   1.000  C
  H10      1.0000 0.62340  0.01360  0.77240  Biso   1.000  H
  C28      1.0000 0.54480  0.12540  0.86420  Biso   1.000  C
  C29      1.0000 0.44240  0.22490  0.88770  Biso   1.000  C
  H11      1.0000 0.43620  0.25730  0.93820  Biso   1.000  H
  C30      1.0000 0.35200  0.27520  0.83910  Biso   1.000  C
  C31      1.0000 0.36640  0.22950  0.76100  Biso   1.000  C
  H12      1.0000 0.30600  0.26470  0.72660  Biso   1.000  H
  C32      1.0000 0.24010  0.38230  0.86300  Biso   1.000  C
  C33      1.0000 0.15100  0.39040  0.94270  Biso   1.000  C
  C34      1.0000 0.04680  0.49410  0.95910  Biso   1.000  C
  C35      1.0000 0.03470  0.59090  0.89520  Biso   1.000  C
  C36      1.0000 0.12390  0.57790  0.81500  Biso   1.000  C
  C37      1.0000 0.22410  0.47650  0.80210  Biso   1.000  C
  H13      1.0000 0.28470  0.47100  0.74940  Biso   1.000  H
  C38      1.0000 0.11940  0.67370  0.74340  Biso   1.000  C
  C39      1.0000 0.23600  0.71710  0.70400  Biso   1.000  C
  H14      1.0000 0.31660  0.68750  0.72280  Biso   1.000  H
  C40      1.0000 0.23670  0.80560  0.63550  Biso   1.000  C
  C41      1.0000 0.11580  0.84730  0.60850  Biso   1.000  C
  H15      1.0000 0.11290  0.90750  0.56480  Biso   1.000  H
  C42      1.0000 0.99970  0.80130  0.64480  Biso   1.000  C
  C43      1.0000 0.00310  0.71470  0.71260  Biso   1.000  C
  H16      1.0000 0.92440  0.68390  0.73750  Biso   1.000  H
  C44      1.0000 0.36680  0.84420  0.59490  Biso   1.000  C
  C45      1.0000 0.87530  0.83560  0.60810  Biso   1.000  C
  C46      1.0000 0.93470  0.69570  0.91520  Biso   1.000  C
  H17      1.0000 0.92950  0.76020  0.87480  Biso   1.000  H
  C47      1.0000 0.15280  0.29640  0.00830  Biso   1.000  C
  H18      1.0000 0.21720  0.22630  0.99790  Biso   1.000  H
  C48      1.0000 0.64240  0.07040  0.91710  Biso   1.000  C
  Eu2      1.0000 0.66150  0.87023  0.52159  Biso   1.000  Eu
  O9       1.0000 0.56950  0.99520  0.63310  Biso   1.000  O
  O10      1.0000 0.41320  0.15040  0.60160  Biso   1.000  O
  O11      1.0000 0.73170  0.98260  0.89980  Biso   1.000  O
  O12      1.0000 0.62790  0.12140  0.98660  Biso   1.000  O
  O13      1.0000 0.47600  0.78320  0.60700  Biso   1.000  O
  O14      1.0000 0.36400  0.93790  0.54680  Biso   1.000  O
  O15      1.0000 0.86270  0.92520  0.55780  Biso   1.000  O
  O16      1.0000 0.78650  0.76950  0.62780  Biso   1.000  O
