data_image0
_cell_length_a       8.5146
_cell_length_b       16.2049
_cell_length_c       28.547
_cell_angle_alpha    90
_cell_angle_beta     96.212
_cell_angle_gamma    90

_symmetry_space_group_name_H-M    "P 1"
_symmetry_int_tables_number       1

loop_
  _symmetry_equiv_pos_as_xyz
  'x, y, z'

loop_
  _atom_site_label
  _atom_site_occupancy
  _atom_site_fract_x
  _atom_site_fract_y
  _atom_site_fract_z
  _atom_site_thermal_displace_type
  _atom_site_B_iso_or_equiv
  _atom_site_type_symbol
  Er1      1.0000 0.82105  0.28764  0.33210  Biso   1.000  Er
  Er2      1.0000 0.19001  0.17334  0.17127  Biso   1.000  Er
  Er3      1.0000 0.45121  0.19153  0.49608  Biso   1.000  Er
  P1       1.0000 0.08046  0.26870  0.43704  Biso   1.000  P
  P2       1.0000 0.56657  0.25143  0.22542  Biso   1.000  P
  O1       1.0000 0.93190  0.26130  0.46420  Biso   1.000  O
  H1       1.0000 0.93380  0.27350  0.49790  Biso   1.000  H
  O2       1.0000 0.13790  0.36170  0.44180  Biso   1.000  O
  H2       1.0000 0.10430  0.40080  0.41830  Biso   1.000  H
  O3       1.0000 0.21170  0.21470  0.45876  Biso   1.000  O
  O4       1.0000 0.02640  0.25020  0.38637  Biso   1.000  O
  O5       1.0000 0.11910  0.28660  0.21684  Biso   1.000  O
  O6       1.0000 0.05960  0.12860  0.23651  Biso   1.000  O
  O7       1.0000 0.97300  0.32800  0.27293  Biso   1.000  O
  O8       1.0000 0.92640  0.17000  0.29583  Biso   1.000  O
  O9       1.0000 0.57830  0.13830  0.43204  Biso   1.000  O
  O10      1.0000 0.52020  0.29840  0.44675  Biso   1.000  O
  O11      1.0000 0.70590  0.17380  0.37027  Biso   1.000  O
  O12      1.0000 0.66830  0.33250  0.39001  Biso   1.000  O
  O13      1.0000 0.95390  0.41410  0.36399  Biso   1.000  O
  O14      1.0000 0.69630  0.41150  0.30136  Biso   1.000  O
  O15      1.0000 0.95390  0.55300  0.36119  Biso   1.000  O
  O16      1.0000 0.68420  0.54830  0.30417  Biso   1.000  O
  O17      1.0000 0.42530  0.19790  0.21318  Biso   1.000  O
  O18      1.0000 0.62050  0.25470  0.27651  Biso   1.000  O
  O19      1.0000 0.71170  0.22480  0.19963  Biso   1.000  O
  H3       1.0000 0.67040  0.23320  0.16840  Biso   1.000  H
  O20      1.0000 0.52230  0.34210  0.20731  Biso   1.000  O
  H4       1.0000 0.41330  0.33820  0.19250  Biso   1.000  H
  O21      1.0000 0.37570  0.19050  0.03549  Biso   1.000  O
  O22      1.0000 0.34150  0.34520  0.06522  Biso   1.000  O
  O23      1.0000 0.30730  0.14230  0.10391  Biso   1.000  O
  O24      1.0000 0.27760  0.29660  0.13407  Biso   1.000  O
  O25      1.0000 0.64940  0.24910  0.10901  Biso   1.000  O
  O26      1.0000 0.95890  0.21710  0.13072  Biso   1.000  O
  O27      1.0000 0.68680  0.25990  0.03360  Biso   1.000  O
  O28      1.0000 0.99390  0.22120  0.05475  Biso   1.000  O
  O29      1.0000 0.61440  0.07740  0.52869  Biso   1.000  O
  O30      1.0000 0.66320  0.94310  0.52280  Biso   1.000  O
  C1       1.0000 0.03420  0.27360  0.24899  Biso   1.000  C
  C2       1.0000 0.00270  0.18310  0.26160  Biso   1.000  C
  C3       1.0000 0.63320  0.19070  0.40430  Biso   1.000  C
  C4       1.0000 0.60460  0.28200  0.41467  Biso   1.000  C
  C5       1.0000 0.74810  0.48030  0.31610  Biso   1.000  C
  C6       1.0000 0.89710  0.48280  0.34990  Biso   1.000  C
  C7       1.0000 0.33260  0.19940  0.07550  Biso   1.000  C
  C8       1.0000 0.31570  0.28800  0.09308  Biso   1.000  C
  C9       1.0000 0.91190  0.22540  0.08770  Biso   1.000  C
  C10      1.0000 0.73320  0.24620  0.07630  Biso   1.000  C
  C11      1.0000 0.57920  0.00730  0.51475  Biso   1.000  C
  Er4      1.0000 0.17895  0.78764  0.16790  Biso   1.000  Er
  Er5      1.0000 0.80999  0.67334  0.32873  Biso   1.000  Er
  Er6      1.0000 0.54879  0.69153  0.00392  Biso   1.000  Er
  P3       1.0000 0.91954  0.76870  0.06296  Biso   1.000  P
  P4       1.0000 0.43343  0.75143  0.27458  Biso   1.000  P
  O31      1.0000 0.06810  0.76130  0.03580  Biso   1.000  O
  H5       1.0000 0.06620  0.77350  0.00210  Biso   1.000  H
  O32      1.0000 0.86210  0.86170  0.05820  Biso   1.000  O
  H6       1.0000 0.89570  0.90080  0.08170  Biso   1.000  H
  O33      1.0000 0.78830  0.71470  0.04124  Biso   1.000  O
  O34      1.0000 0.97360  0.75020  0.11363  Biso   1.000  O
  O35      1.0000 0.88090  0.78660  0.28316  Biso   1.000  O
  O36      1.0000 0.94040  0.62860  0.26349  Biso   1.000  O
  O37      1.0000 0.02700  0.82800  0.22707  Biso   1.000  O
  O38      1.0000 0.07360  0.67000  0.20417  Biso   1.000  O
  O39      1.0000 0.42170  0.63830  0.06796  Biso   1.000  O
  O40      1.0000 0.47980  0.79840  0.05325  Biso   1.000  O
  O41      1.0000 0.29410  0.67380  0.12973  Biso   1.000  O
  O42      1.0000 0.33170  0.83250  0.10999  Biso   1.000  O
  O43      1.0000 0.04610  0.91410  0.13601  Biso   1.000  O
  O44      1.0000 0.30370  0.91150  0.19864  Biso   1.000  O
  O45      1.0000 0.04610  0.05300  0.13881  Biso   1.000  O
  O46      1.0000 0.31580  0.04830  0.19583  Biso   1.000  O
  O47      1.0000 0.57470  0.69790  0.28682  Biso   1.000  O
  O48      1.0000 0.37950  0.75470  0.22349  Biso   1.000  O
  O49      1.0000 0.28830  0.72480  0.30037  Biso   1.000  O
  H7       1.0000 0.32960  0.73320  0.33160  Biso   1.000  H
  O50      1.0000 0.47770  0.84210  0.29269  Biso   1.000  O
  H8       1.0000 0.58670  0.83820  0.30750  Biso   1.000  H
  O51      1.0000 0.62430  0.69050  0.46451  Biso   1.000  O
  O52      1.0000 0.65850  0.84520  0.43478  Biso   1.000  O
  O53      1.0000 0.69270  0.64230  0.39609  Biso   1.000  O
  O54      1.0000 0.72240  0.79660  0.36593  Biso   1.000  O
  O55      1.0000 0.35060  0.74910  0.39099  Biso   1.000  O
  O56      1.0000 0.04110  0.71710  0.36928  Biso   1.000  O
  O57      1.0000 0.31320  0.75990  0.46640  Biso   1.000  O
  O58      1.0000 0.00610  0.72120  0.44525  Biso   1.000  O
  O59      1.0000 0.38560  0.57740  0.97131  Biso   1.000  O
  O60      1.0000 0.33680  0.44310  0.97720  Biso   1.000  O
  C12      1.0000 0.96580  0.77360  0.25101  Biso   1.000  C
  C13      1.0000 0.99730  0.68310  0.23840  Biso   1.000  C
  C14      1.0000 0.36680  0.69070  0.09570  Biso   1.000  C
  C15      1.0000 0.39540  0.78200  0.08533  Biso   1.000  C
  C16      1.0000 0.25190  0.98030  0.18390  Biso   1.000  C
  C17      1.0000 0.10290  0.98280  0.15010  Biso   1.000  C
  C18      1.0000 0.66740  0.69940  0.42450  Biso   1.000  C
  C19      1.0000 0.68430  0.78800  0.40692  Biso   1.000  C
  C20      1.0000 0.08810  0.72540  0.41230  Biso   1.000  C
  C21      1.0000 0.26680  0.74620  0.42370  Biso   1.000  C
  C22      1.0000 0.42080  0.50730  0.98525  Biso   1.000  C
  Er7      1.0000 0.17895  0.71236  0.66790  Biso   1.000  Er
  Er8      1.0000 0.80999  0.82666  0.82873  Biso   1.000  Er
  Er9      1.0000 0.54879  0.80847  0.50392  Biso   1.000  Er
  P5       1.0000 0.91954  0.73130  0.56296  Biso   1.000  P
  P6       1.0000 0.43343  0.74857  0.77458  Biso   1.000  P
  O61      1.0000 0.06810  0.73870  0.53580  Biso   1.000  O
  H9       1.0000 0.06620  0.72650  0.50210  Biso   1.000  H
  O62      1.0000 0.86210  0.63830  0.55820  Biso   1.000  O
  H10      1.0000 0.89570  0.59920  0.58170  Biso   1.000  H
  O63      1.0000 0.78830  0.78530  0.54124  Biso   1.000  O
  O64      1.0000 0.97360  0.74980  0.61363  Biso   1.000  O
  O65      1.0000 0.88090  0.71340  0.78316  Biso   1.000  O
  O66      1.0000 0.94040  0.87140  0.76349  Biso   1.000  O
  O67      1.0000 0.02700  0.67200  0.72707  Biso   1.000  O
  O68      1.0000 0.07360  0.83000  0.70417  Biso   1.000  O
  O69      1.0000 0.42170  0.86170  0.56796  Biso   1.000  O
  O70      1.0000 0.47980  0.70160  0.55325  Biso   1.000  O
  O71      1.0000 0.29410  0.82620  0.62973  Biso   1.000  O
  O72      1.0000 0.33170  0.66750  0.60999  Biso   1.000  O
  O73      1.0000 0.04610  0.58590  0.63601  Biso   1.000  O
  O74      1.0000 0.30370  0.58850  0.69864  Biso   1.000  O
  O75      1.0000 0.04610  0.44700  0.63881  Biso   1.000  O
  O76      1.0000 0.31580  0.45170  0.69583  Biso   1.000  O
  O77      1.0000 0.57470  0.80210  0.78682  Biso   1.000  O
  O78      1.0000 0.37950  0.74530  0.72349  Biso   1.000  O
  O79      1.0000 0.28830  0.77520  0.80037  Biso   1.000  O
  H11      1.0000 0.32960  0.76680  0.83160  Biso   1.000  H
  O80      1.0000 0.47770  0.65790  0.79269  Biso   1.000  O
  H12      1.0000 0.58670  0.66180  0.80750  Biso   1.000  H
  O81      1.0000 0.62430  0.80950  0.96451  Biso   1.000  O
  O82      1.0000 0.65850  0.65480  0.93478  Biso   1.000  O
  O83      1.0000 0.69270  0.85770  0.89609  Biso   1.000  O
  O84      1.0000 0.72240  0.70340  0.86593  Biso   1.000  O
  O85      1.0000 0.35060  0.75090  0.89099  Biso   1.000  O
  O86      1.0000 0.04110  0.78290  0.86928  Biso   1.000  O
  O87      1.0000 0.31320  0.74010  0.96640  Biso   1.000  O
  O88      1.0000 0.00610  0.77880  0.94525  Biso   1.000  O
  O89      1.0000 0.38560  0.92260  0.47131  Biso   1.000  O
  O90      1.0000 0.33680  0.05690  0.47720  Biso   1.000  O
  C23      1.0000 0.96580  0.72640  0.75101  Biso   1.000  C
  C24      1.0000 0.99730  0.81690  0.73840  Biso   1.000  C
  C25      1.0000 0.36680  0.80930  0.59570  Biso   1.000  C
  C26      1.0000 0.39540  0.71800  0.58533  Biso   1.000  C
  C27      1.0000 0.25190  0.51970  0.68390  Biso   1.000  C
  C28      1.0000 0.10290  0.51720  0.65010  Biso   1.000  C
  C29      1.0000 0.66740  0.80060  0.92450  Biso   1.000  C
  C30      1.0000 0.68430  0.71200  0.90692  Biso   1.000  C
  C31      1.0000 0.08810  0.77460  0.91230  Biso   1.000  C
  C32      1.0000 0.26680  0.75380  0.92370  Biso   1.000  C
  C33      1.0000 0.42080  0.99270  0.48525  Biso   1.000  C
  Er10     1.0000 0.82105  0.21236  0.83210  Biso   1.000  Er
  Er11     1.0000 0.19001  0.32666  0.67127  Biso   1.000  Er
  Er12     1.0000 0.45121  0.30847  0.99608  Biso   1.000  Er
  P7       1.0000 0.08046  0.23130  0.93704  Biso   1.000  P
  P8       1.0000 0.56657  0.24857  0.72542  Biso   1.000  P
  O91      1.0000 0.93190  0.23870  0.96420  Biso   1.000  O
  H13      1.0000 0.93380  0.22650  0.99790  Biso   1.000  H
  O92      1.0000 0.13790  0.13830  0.94180  Biso   1.000  O
  H14      1.0000 0.10430  0.09920  0.91830  Biso   1.000  H
  O93      1.0000 0.21170  0.28530  0.95876  Biso   1.000  O
  O94      1.0000 0.02640  0.24980  0.88637  Biso   1.000  O
  O95      1.0000 0.11910  0.21340  0.71684  Biso   1.000  O
  O96      1.0000 0.05960  0.37140  0.73651  Biso   1.000  O
  O97      1.0000 0.97300  0.17200  0.77293  Biso   1.000  O
  O98      1.0000 0.92640  0.33000  0.79583  Biso   1.000  O
  O99      1.0000 0.57830  0.36170  0.93204  Biso   1.000  O
  O100     1.0000 0.52020  0.20160  0.94675  Biso   1.000  O
  O101     1.0000 0.70590  0.32620  0.87027  Biso   1.000  O
  O102     1.0000 0.66830  0.16750  0.89001  Biso   1.000  O
  O103     1.0000 0.95390  0.08590  0.86399  Biso   1.000  O
  O104     1.0000 0.69630  0.08850  0.80136  Biso   1.000  O
  O105     1.0000 0.95390  0.94700  0.86119  Biso   1.000  O
  O106     1.0000 0.68420  0.95170  0.80417  Biso   1.000  O
  O107     1.0000 0.42530  0.30210  0.71318  Biso   1.000  O
  O108     1.0000 0.62050  0.24530  0.77651  Biso   1.000  O
  O109     1.0000 0.71170  0.27520  0.69963  Biso   1.000  O
  H15      1.0000 0.67040  0.26680  0.66840  Biso   1.000  H
  O110     1.0000 0.52230  0.15790  0.70731  Biso   1.000  O
  H16      1.0000 0.41330  0.16180  0.69250  Biso   1.000  H
  O111     1.0000 0.37570  0.30950  0.53549  Biso   1.000  O
  O112     1.0000 0.34150  0.15480  0.56522  Biso   1.000  O
  O113     1.0000 0.30730  0.35770  0.60391  Biso   1.000  O
  O114     1.0000 0.27760  0.20340  0.63407  Biso   1.000  O
  O115     1.0000 0.64940  0.25090  0.60901  Biso   1.000  O
  O116     1.0000 0.95890  0.28290  0.63072  Biso   1.000  O
  O117     1.0000 0.68680  0.24010  0.53360  Biso   1.000  O
  O118     1.0000 0.99390  0.27880  0.55475  Biso   1.000  O
  O119     1.0000 0.61440  0.42260  0.02869  Biso   1.000  O
  O120     1.0000 0.66320  0.55690  0.02280  Biso   1.000  O
  C34      1.0000 0.03420  0.22640  0.74899  Biso   1.000  C
  C35      1.0000 0.00270  0.31690  0.76160  Biso   1.000  C
  C36      1.0000 0.63320  0.30930  0.90430  Biso   1.000  C
  C37      1.0000 0.60460  0.21800  0.91467  Biso   1.000  C
  C38      1.0000 0.74810  0.01970  0.81610  Biso   1.000  C
  C39      1.0000 0.89710  0.01720  0.84990  Biso   1.000  C
  C40      1.0000 0.33260  0.30060  0.57550  Biso   1.000  C
  C41      1.0000 0.31570  0.21200  0.59308  Biso   1.000  C
  C42      1.0000 0.91190  0.27460  0.58770  Biso   1.000  C
  C43      1.0000 0.73320  0.25380  0.57630  Biso   1.000  C
  C44      1.0000 0.57920  0.49270  0.01475  Biso   1.000  C
