data_DUCHEP_clean
_audit_creation_date              2014-07-02
_audit_creation_method            'Materials Studio'
_symmetry_space_group_name_H-M    'P1'
_symmetry_Int_Tables_number       1
_symmetry_cell_setting            triclinic
loop_
_symmetry_equiv_pos_as_xyz
  x,y,z
_cell_length_a                    8.1800
_cell_length_b                    8.8900
_cell_length_c                    29.9000
_cell_angle_alpha                 90.0000
_cell_angle_beta                  90.0000
_cell_angle_gamma                 104.0600
loop_
_atom_site_label
_atom_site_type_symbol
_atom_site_fract_x
_atom_site_fract_y
_atom_site_fract_z
_atom_site_U_iso_or_equiv
_atom_site_adp_type
_atom_site_occupancy
Zn1    Zn    0.94002   0.49896   0.90955   0.01267  Uiso   1.00
Zn2    Zn    0.55998   0.50104   0.40955   0.01267  Uiso   1.00
Zn3    Zn    0.05998   0.50104   0.09045   0.01267  Uiso   1.00
Zn4    Zn    0.44002   0.49896   0.59045   0.01267  Uiso   1.00
Mo1    Mo    0.75636   0.06236   0.92203   0.01267  Uiso   1.00
Mo2    Mo    0.95460   0.08681   0.04392   0.01267  Uiso   1.00
Mo3    Mo    0.55119   0.82487   0.99755   0.01267  Uiso   1.00
Mo4    Mo    0.74364   0.93764   0.42203   0.01267  Uiso   1.00
Mo5    Mo    0.54540   0.91319   0.54392   0.01267  Uiso   1.00
Mo6    Mo    0.94881   0.17513   0.49755   0.01267  Uiso   1.00
Mo7    Mo    0.24364   0.93764   0.07797   0.01267  Uiso   1.00
Mo8    Mo    0.04540   0.91319   0.95608   0.01267  Uiso   1.00
Mo9    Mo    0.44881   0.17513   0.00245   0.01267  Uiso   1.00
Mo10   Mo    0.25636   0.06236   0.57797   0.01267  Uiso   1.00
Mo11   Mo    0.45460   0.08681   0.45608   0.01267  Uiso   1.00
Mo12   Mo    0.05119   0.82487   0.50245   0.01267  Uiso   1.00
H1     H     0.87250   0.42550   0.80140   0.01267  Uiso   1.00
H2     H     0.78500   0.66000   0.64600   0.01267  Uiso   1.00
H3     H     0.74720   0.74710   0.87060   0.01267  Uiso   1.00
H4     H     0.50770   0.72850   0.77480   0.01267  Uiso   1.00
H5     H     0.57720   0.85170   0.81200   0.01267  Uiso   1.00
H6     H     0.84120   0.06210   0.79400   0.01267  Uiso   1.00
H7     H     0.97200   0.23340   0.73970   0.01267  Uiso   1.00
H8     H     0.72420   0.95050   0.64540   0.01267  Uiso   1.00
H9     H     0.59450   0.77930   0.69950   0.01267  Uiso   1.00
H10    H     0.05200   0.27500   0.65870   0.01267  Uiso   1.00
H11    H     0.94020   0.16930   0.62260   0.01267  Uiso   1.00
H12    H     0.63390   0.23660   0.61170   0.01267  Uiso   1.00
H13    H     0.62750   0.57450   0.30140   0.01267  Uiso   1.00
H14    H     0.71500   0.34000   0.14600   0.01267  Uiso   1.00
H15    H     0.75280   0.25290   0.37060   0.01267  Uiso   1.00
H16    H     0.99230   0.27150   0.27480   0.01267  Uiso   1.00
H17    H     0.92280   0.14830   0.31200   0.01267  Uiso   1.00
H18    H     0.65880   0.93790   0.29400   0.01267  Uiso   1.00
H19    H     0.52800   0.76660   0.23970   0.01267  Uiso   1.00
H20    H     0.77580   0.04950   0.14540   0.01267  Uiso   1.00
H21    H     0.90550   0.22070   0.19950   0.01267  Uiso   1.00
H22    H     0.44800   0.72500   0.15870   0.01267  Uiso   1.00
H23    H     0.55980   0.83070   0.12260   0.01267  Uiso   1.00
H24    H     0.86610   0.76340   0.11170   0.01267  Uiso   1.00
H25    H     0.12750   0.57450   0.19860   0.01267  Uiso   1.00
H26    H     0.21500   0.34000   0.35400   0.01267  Uiso   1.00
H27    H     0.25280   0.25290   0.12940   0.01267  Uiso   1.00
H28    H     0.49230   0.27150   0.22520   0.01267  Uiso   1.00
H29    H     0.42280   0.14830   0.18800   0.01267  Uiso   1.00
H30    H     0.15880   0.93790   0.20600   0.01267  Uiso   1.00
H31    H     0.02800   0.76660   0.26030   0.01267  Uiso   1.00
H32    H     0.27580   0.04950   0.35460   0.01267  Uiso   1.00
H33    H     0.40550   0.22070   0.30050   0.01267  Uiso   1.00
H34    H     0.94800   0.72500   0.34130   0.01267  Uiso   1.00
H35    H     0.05980   0.83070   0.37740   0.01267  Uiso   1.00
H36    H     0.36610   0.76340   0.38830   0.01267  Uiso   1.00
H37    H     0.37250   0.42550   0.69860   0.01267  Uiso   1.00
H38    H     0.28500   0.66000   0.85400   0.01267  Uiso   1.00
H39    H     0.24720   0.74710   0.62940   0.01267  Uiso   1.00
H40    H     0.00770   0.72850   0.72520   0.01267  Uiso   1.00
H41    H     0.07720   0.85170   0.68800   0.01267  Uiso   1.00
H42    H     0.34120   0.06210   0.70600   0.01267  Uiso   1.00
H43    H     0.47200   0.23340   0.76030   0.01267  Uiso   1.00
H44    H     0.22420   0.95050   0.85460   0.01267  Uiso   1.00
H45    H     0.09450   0.77930   0.80050   0.01267  Uiso   1.00
H46    H     0.55200   0.27500   0.84130   0.01267  Uiso   1.00
H47    H     0.44020   0.16930   0.87740   0.01267  Uiso   1.00
H48    H     0.13390   0.23660   0.88830   0.01267  Uiso   1.00
C1     C     0.82940   0.50960   0.80920   0.01267  Uiso   1.00
C2     C     0.77810   0.55470   0.64240   0.01267  Uiso   1.00
C3     C     0.76330   0.68280   0.84730   0.01267  Uiso   1.00
C4     C     0.60970   0.79250   0.78780   0.01267  Uiso   1.00
C5     C     0.70250   0.90260   0.75280   0.01267  Uiso   1.00
C6     C     0.81670   0.03910   0.76410   0.01267  Uiso   1.00
C7     C     0.89510   0.14240   0.73140   0.01267  Uiso   1.00
C8     C     0.85990   0.11120   0.68630   0.01267  Uiso   1.00
C9     C     0.74800   0.97430   0.67540   0.01267  Uiso   1.00
C10    C     0.66990   0.87110   0.70790   0.01267  Uiso   1.00
C11    C     0.93700   0.22450   0.65050   0.01267  Uiso   1.00
C12    C     0.69590   0.32810   0.62450   0.01267  Uiso   1.00
C13    C     0.67060   0.49040   0.30920   0.01267  Uiso   1.00
C14    C     0.72190   0.44530   0.14240   0.01267  Uiso   1.00
C15    C     0.73670   0.31720   0.34730   0.01267  Uiso   1.00
C16    C     0.89030   0.20750   0.28780   0.01267  Uiso   1.00
C17    C     0.79750   0.09740   0.25280   0.01267  Uiso   1.00
C18    C     0.68330   0.96090   0.26410   0.01267  Uiso   1.00
C19    C     0.60490   0.85760   0.23140   0.01267  Uiso   1.00
C20    C     0.64010   0.88880   0.18630   0.01267  Uiso   1.00
C21    C     0.75200   0.02570   0.17540   0.01267  Uiso   1.00
C22    C     0.83010   0.12890   0.20790   0.01267  Uiso   1.00
C23    C     0.56300   0.77550   0.15050   0.01267  Uiso   1.00
C24    C     0.80410   0.67190   0.12450   0.01267  Uiso   1.00
C25    C     0.17060   0.49040   0.19080   0.01267  Uiso   1.00
C26    C     0.22190   0.44530   0.35760   0.01267  Uiso   1.00
C27    C     0.23670   0.31720   0.15270   0.01267  Uiso   1.00
C28    C     0.39030   0.20750   0.21220   0.01267  Uiso   1.00
C29    C     0.29750   0.09740   0.24720   0.01267  Uiso   1.00
C30    C     0.18330   0.96090   0.23590   0.01267  Uiso   1.00
C31    C     0.10490   0.85760   0.26860   0.01267  Uiso   1.00
C32    C     0.14010   0.88880   0.31370   0.01267  Uiso   1.00
C33    C     0.25200   0.02570   0.32460   0.01267  Uiso   1.00
C34    C     0.33010   0.12890   0.29210   0.01267  Uiso   1.00
C35    C     0.06300   0.77550   0.34950   0.01267  Uiso   1.00
C36    C     0.30410   0.67190   0.37550   0.01267  Uiso   1.00
C37    C     0.32940   0.50960   0.69080   0.01267  Uiso   1.00
C38    C     0.27810   0.55470   0.85760   0.01267  Uiso   1.00
C39    C     0.26330   0.68280   0.65270   0.01267  Uiso   1.00
C40    C     0.10970   0.79250   0.71220   0.01267  Uiso   1.00
C41    C     0.20250   0.90260   0.74720   0.01267  Uiso   1.00
C42    C     0.31670   0.03910   0.73590   0.01267  Uiso   1.00
C43    C     0.39510   0.14240   0.76860   0.01267  Uiso   1.00
C44    C     0.35990   0.11120   0.81370   0.01267  Uiso   1.00
C45    C     0.24800   0.97430   0.82460   0.01267  Uiso   1.00
C46    C     0.16990   0.87110   0.79210   0.01267  Uiso   1.00
C47    C     0.43700   0.22450   0.84950   0.01267  Uiso   1.00
C48    C     0.19590   0.32810   0.87550   0.01267  Uiso   1.00
N1     N     0.84030   0.56890   0.85113   0.01267  Uiso   1.00
N2     N     0.71230   0.69240   0.80574   0.01267  Uiso   1.00
N3     N     0.64800   0.45820   0.62500   0.01267  Uiso   1.00
N4     N     0.84010   0.34220   0.64402   0.01267  Uiso   1.00
N5     N     0.75270   0.58100   0.78041   0.01267  Uiso   1.00
N6     N     0.89940   0.48810   0.65440   0.01267  Uiso   1.00
N7     N     0.65970   0.43110   0.35113   0.01267  Uiso   1.00
N8     N     0.78770   0.30760   0.30574   0.01267  Uiso   1.00
N9     N     0.85200   0.54180   0.12500   0.01267  Uiso   1.00
N10    N     0.65990   0.65780   0.14402   0.01267  Uiso   1.00
N11    N     0.74730   0.41900   0.28041   0.01267  Uiso   1.00
N12    N     0.60060   0.51190   0.15440   0.01267  Uiso   1.00
N13    N     0.15970   0.43110   0.14887   0.01267  Uiso   1.00
N14    N     0.28770   0.30760   0.19426   0.01267  Uiso   1.00
N15    N     0.35200   0.54180   0.37500   0.01267  Uiso   1.00
N16    N     0.15990   0.65780   0.35598   0.01267  Uiso   1.00
N17    N     0.24730   0.41900   0.21959   0.01267  Uiso   1.00
N18    N     0.10060   0.51190   0.34560   0.01267  Uiso   1.00
N19    N     0.34030   0.56890   0.64887   0.01267  Uiso   1.00
N20    N     0.21230   0.69240   0.69426   0.01267  Uiso   1.00
N21    N     0.14800   0.45820   0.87500   0.01267  Uiso   1.00
N22    N     0.34010   0.34220   0.85598   0.01267  Uiso   1.00
N23    N     0.25270   0.58100   0.71959   0.01267  Uiso   1.00
N24    N     0.39940   0.48810   0.84560   0.01267  Uiso   1.00
O1     O     0.96600   0.12040   0.98269   0.01267  Uiso   1.00
O2     O     0.74630   0.98940   0.04971   0.01267  Uiso   1.00
O3     O     0.74640   0.84980   0.96144   0.01267  Uiso   1.00
O4     O     0.81040   0.25820   0.90887   0.01267  Uiso   1.00
O5     O     0.59570   0.06060   0.96990   0.01267  Uiso   1.00
O6     O     0.96550   0.26720   0.06686   0.01267  Uiso   1.00
O7     O     0.95260   0.00250   0.90465   0.01267  Uiso   1.00
O8     O     0.53400   0.87960   0.48269   0.01267  Uiso   1.00
O9     O     0.75370   0.01060   0.54971   0.01267  Uiso   1.00
O10    O     0.75360   0.15020   0.46144   0.01267  Uiso   1.00
O11    O     0.68960   0.74180   0.40887   0.01267  Uiso   1.00
O12    O     0.90430   0.93940   0.46990   0.01267  Uiso   1.00
O13    O     0.53450   0.73280   0.56686   0.01267  Uiso   1.00
O14    O     0.54740   0.99750   0.40465   0.01267  Uiso   1.00
O15    O     0.03400   0.87960   0.01731   0.01267  Uiso   1.00
O16    O     0.25370   0.01060   0.95029   0.01267  Uiso   1.00
O17    O     0.25360   0.15020   0.03856   0.01267  Uiso   1.00
O18    O     0.18960   0.74180   0.09113   0.01267  Uiso   1.00
O19    O     0.40430   0.93940   0.03010   0.01267  Uiso   1.00
O20    O     0.03450   0.73280   0.93314   0.01267  Uiso   1.00
O21    O     0.04740   0.99750   0.09535   0.01267  Uiso   1.00
O22    O     0.46600   0.12040   0.51731   0.01267  Uiso   1.00
O23    O     0.24630   0.98940   0.45029   0.01267  Uiso   1.00
O24    O     0.24640   0.84980   0.53856   0.01267  Uiso   1.00
O25    O     0.31040   0.25820   0.59113   0.01267  Uiso   1.00
O26    O     0.09570   0.06060   0.53010   0.01267  Uiso   1.00
O27    O     0.46550   0.26720   0.43314   0.01267  Uiso   1.00
O28    O     0.45260   0.00250   0.59535   0.01267  Uiso   1.00
