data_image0
_cell_length_a       14.4225
_cell_length_b       14.2601
_cell_length_c       22.5106
_cell_angle_alpha    90
_cell_angle_beta     100.154
_cell_angle_gamma    90

_symmetry_space_group_name_H-M    "P 1"
_symmetry_int_tables_number       1

loop_
  _symmetry_equiv_pos_as_xyz
  'x, y, z'

loop_
  _atom_site_label
  _atom_site_occupancy
  _atom_site_fract_x
  _atom_site_fract_y
  _atom_site_fract_z
  _atom_site_thermal_displace_type
  _atom_site_B_iso_or_equiv
  _atom_site_type_symbol
  Cd1      1.0000 0.25605  0.75113  0.24017  Biso   1.000  Cd
  Cd2      1.0000 0.18455  0.62409  0.36043  Biso   1.000  Cd
  O1       1.0000 0.09760  0.60330  0.26800  Biso   1.000  O
  O2       1.0000 0.31550  0.65250  0.31690  Biso   1.000  O
  O3       1.0000 0.61690  0.36060  0.24870  Biso   1.000  O
  O4       1.0000 0.84760  0.35790  0.23790  Biso   1.000  O
  O5       1.0000 0.69390  0.32140  0.33910  Biso   1.000  O
  O6       1.0000 0.37550  0.61820  0.23630  Biso   1.000  O
  O7       1.0000 0.82150  0.28320  0.15050  Biso   1.000  O
  N1       1.0000 0.52350  0.47100  0.48800  Biso   1.000  N
  N2       1.0000 0.97210  0.47350  0.00970  Biso   1.000  N
  C1       1.0000 0.62970  0.36600  0.30550  Biso   1.000  C
  C2       1.0000 0.03220  0.54260  0.17270  Biso   1.000  C
  C3       1.0000 0.43940  0.53980  0.32750  Biso   1.000  C
  C4       1.0000 0.51200  0.47950  0.42360  Biso   1.000  C
  C5       1.0000 0.49910  0.48410  0.29970  Biso   1.000  C
  H1       1.0000 0.49420  0.48540  0.25800  Biso   1.000  H
  C6       1.0000 0.57230  0.42510  0.39670  Biso   1.000  C
  H2       1.0000 0.61710  0.38730  0.42020  Biso   1.000  H
  C7       1.0000 0.44490  0.53670  0.38950  Biso   1.000  C
  H3       1.0000 0.40420  0.57240  0.40810  Biso   1.000  H
  C8       1.0000 0.97570  0.47950  0.07350  Biso   1.000  C
  C9       1.0000 0.91930  0.41700  0.09750  Biso   1.000  C
  H4       1.0000 0.88180  0.37480  0.07250  Biso   1.000  H
  C10      1.0000 0.56550  0.42730  0.33390  Biso   1.000  C
  C11      1.0000 0.97480  0.48000  0.19660  Biso   1.000  C
  H5       1.0000 0.97400  0.48020  0.23780  Biso   1.000  H
  C12      1.0000 0.03220  0.54280  0.11110  Biso   1.000  C
  H6       1.0000 0.07000  0.58510  0.09480  Biso   1.000  H
  C13      1.0000 0.09760  0.60870  0.21270  Biso   1.000  C
  C14      1.0000 0.91860  0.41720  0.15930  Biso   1.000  C
  C15      1.0000 0.37270  0.60530  0.28980  Biso   1.000  C
  C16      1.0000 0.85820  0.34680  0.18420  Biso   1.000  C
  O8       1.0000 0.14620  0.66230  0.18760  Biso   1.000  O
  Cd3      1.0000 0.74395  0.25113  0.25983  Biso   1.000  Cd
  Cd4      1.0000 0.81545  0.12409  0.13957  Biso   1.000  Cd
  O9       1.0000 0.90240  0.10330  0.23200  Biso   1.000  O
  O10      1.0000 0.68450  0.15250  0.18310  Biso   1.000  O
  O11      1.0000 0.38310  0.86060  0.25130  Biso   1.000  O
  O12      1.0000 0.15240  0.85790  0.26210  Biso   1.000  O
  O13      1.0000 0.30610  0.82140  0.16090  Biso   1.000  O
  O14      1.0000 0.62450  0.11820  0.26370  Biso   1.000  O
  O15      1.0000 0.17850  0.78320  0.34950  Biso   1.000  O
  N3       1.0000 0.47650  0.97100  0.01200  Biso   1.000  N
  N4       1.0000 0.02790  0.97350  0.49030  Biso   1.000  N
  C17      1.0000 0.37030  0.86600  0.19450  Biso   1.000  C
  C18      1.0000 0.96780  0.04260  0.32730  Biso   1.000  C
  C19      1.0000 0.56060  0.03980  0.17250  Biso   1.000  C
  C20      1.0000 0.48800  0.97950  0.07640  Biso   1.000  C
  C21      1.0000 0.50090  0.98410  0.20030  Biso   1.000  C
  H7       1.0000 0.50580  0.98540  0.24200  Biso   1.000  H
  C22      1.0000 0.42770  0.92510  0.10330  Biso   1.000  C
  H8       1.0000 0.38290  0.88730  0.07980  Biso   1.000  H
  C23      1.0000 0.55510  0.03670  0.11050  Biso   1.000  C
  H9       1.0000 0.59580  0.07240  0.09190  Biso   1.000  H
  C24      1.0000 0.02430  0.97950  0.42650  Biso   1.000  C
  C25      1.0000 0.08070  0.91700  0.40250  Biso   1.000  C
  H10      1.0000 0.11820  0.87480  0.42750  Biso   1.000  H
  C26      1.0000 0.43450  0.92730  0.16610  Biso   1.000  C
  C27      1.0000 0.02520  0.98000  0.30340  Biso   1.000  C
  H11      1.0000 0.02600  0.98020  0.26220  Biso   1.000  H
  C28      1.0000 0.96780  0.04280  0.38890  Biso   1.000  C
  H12      1.0000 0.93000  0.08510  0.40520  Biso   1.000  H
  C29      1.0000 0.90240  0.10870  0.28730  Biso   1.000  C
  C30      1.0000 0.08140  0.91720  0.34070  Biso   1.000  C
  C31      1.0000 0.62730  0.10530  0.21020  Biso   1.000  C
  C32      1.0000 0.14180  0.84680  0.31580  Biso   1.000  C
  O16      1.0000 0.85380  0.16230  0.31240  Biso   1.000  O
  Cd5      1.0000 0.74395  0.24887  0.75983  Biso   1.000  Cd
  Cd6      1.0000 0.81545  0.37591  0.63957  Biso   1.000  Cd
  O17      1.0000 0.90240  0.39670  0.73200  Biso   1.000  O
  O18      1.0000 0.68450  0.34750  0.68310  Biso   1.000  O
  O19      1.0000 0.38310  0.63940  0.75130  Biso   1.000  O
  O20      1.0000 0.15240  0.64210  0.76210  Biso   1.000  O
  O21      1.0000 0.30610  0.67860  0.66090  Biso   1.000  O
  O22      1.0000 0.62450  0.38180  0.76370  Biso   1.000  O
  O23      1.0000 0.17850  0.71680  0.84950  Biso   1.000  O
  N5       1.0000 0.47650  0.52900  0.51200  Biso   1.000  N
  N6       1.0000 0.02790  0.52650  0.99030  Biso   1.000  N
  C33      1.0000 0.37030  0.63400  0.69450  Biso   1.000  C
  C34      1.0000 0.96780  0.45740  0.82730  Biso   1.000  C
  C35      1.0000 0.56060  0.46020  0.67250  Biso   1.000  C
  C36      1.0000 0.48800  0.52050  0.57640  Biso   1.000  C
  C37      1.0000 0.50090  0.51590  0.70030  Biso   1.000  C
  H13      1.0000 0.50580  0.51460  0.74200  Biso   1.000  H
  C38      1.0000 0.42770  0.57490  0.60330  Biso   1.000  C
  H14      1.0000 0.38290  0.61270  0.57980  Biso   1.000  H
  C39      1.0000 0.55510  0.46330  0.61050  Biso   1.000  C
  H15      1.0000 0.59580  0.42760  0.59190  Biso   1.000  H
  C40      1.0000 0.02430  0.52050  0.92650  Biso   1.000  C
  C41      1.0000 0.08070  0.58300  0.90250  Biso   1.000  C
  H16      1.0000 0.11820  0.62520  0.92750  Biso   1.000  H
  C42      1.0000 0.43450  0.57270  0.66610  Biso   1.000  C
  C43      1.0000 0.02520  0.52000  0.80340  Biso   1.000  C
  H17      1.0000 0.02600  0.51980  0.76220  Biso   1.000  H
  C44      1.0000 0.96780  0.45720  0.88890  Biso   1.000  C
  H18      1.0000 0.93000  0.41490  0.90520  Biso   1.000  H
  C45      1.0000 0.90240  0.39130  0.78730  Biso   1.000  C
  C46      1.0000 0.08140  0.58280  0.84070  Biso   1.000  C
  C47      1.0000 0.62730  0.39470  0.71020  Biso   1.000  C
  C48      1.0000 0.14180  0.65320  0.81580  Biso   1.000  C
  O24      1.0000 0.85380  0.33770  0.81240  Biso   1.000  O
  Cd7      1.0000 0.25605  0.74887  0.74017  Biso   1.000  Cd
  Cd8      1.0000 0.18455  0.87591  0.86043  Biso   1.000  Cd
  O25      1.0000 0.09760  0.89670  0.76800  Biso   1.000  O
  O26      1.0000 0.31550  0.84750  0.81690  Biso   1.000  O
  O27      1.0000 0.61690  0.13940  0.74870  Biso   1.000  O
  O28      1.0000 0.84760  0.14210  0.73790  Biso   1.000  O
  O29      1.0000 0.69390  0.17860  0.83910  Biso   1.000  O
  O30      1.0000 0.37550  0.88180  0.73630  Biso   1.000  O
  O31      1.0000 0.82150  0.21680  0.65050  Biso   1.000  O
  N7       1.0000 0.52350  0.02900  0.98800  Biso   1.000  N
  N8       1.0000 0.97210  0.02650  0.50970  Biso   1.000  N
  C49      1.0000 0.62970  0.13400  0.80550  Biso   1.000  C
  C50      1.0000 0.03220  0.95740  0.67270  Biso   1.000  C
  C51      1.0000 0.43940  0.96020  0.82750  Biso   1.000  C
  C52      1.0000 0.51200  0.02050  0.92360  Biso   1.000  C
  C53      1.0000 0.49910  0.01590  0.79970  Biso   1.000  C
  H19      1.0000 0.49420  0.01460  0.75800  Biso   1.000  H
  C54      1.0000 0.57230  0.07490  0.89670  Biso   1.000  C
  H20      1.0000 0.61710  0.11270  0.92020  Biso   1.000  H
  C55      1.0000 0.44490  0.96330  0.88950  Biso   1.000  C
  H21      1.0000 0.40420  0.92760  0.90810  Biso   1.000  H
  C56      1.0000 0.97570  0.02050  0.57350  Biso   1.000  C
  C57      1.0000 0.91930  0.08300  0.59750  Biso   1.000  C
  H22      1.0000 0.88180  0.12520  0.57250  Biso   1.000  H
  C58      1.0000 0.56550  0.07270  0.83390  Biso   1.000  C
  C59      1.0000 0.97480  0.02000  0.69660  Biso   1.000  C
  H23      1.0000 0.97400  0.01980  0.73780  Biso   1.000  H
  C60      1.0000 0.03220  0.95720  0.61110  Biso   1.000  C
  H24      1.0000 0.07000  0.91490  0.59480  Biso   1.000  H
  C61      1.0000 0.09760  0.89130  0.71270  Biso   1.000  C
  C62      1.0000 0.91860  0.08280  0.65930  Biso   1.000  C
  C63      1.0000 0.37270  0.89470  0.78980  Biso   1.000  C
  C64      1.0000 0.85820  0.15320  0.68420  Biso   1.000  C
  O32      1.0000 0.14620  0.83770  0.68760  Biso   1.000  O
