data_image0
_cell_length_a       21.7672
_cell_length_b       19.633
_cell_length_c       29.4028
_cell_angle_alpha    90
_cell_angle_beta     99.478
_cell_angle_gamma    90

_symmetry_space_group_name_H-M    "P 1"
_symmetry_int_tables_number       1

loop_
  _symmetry_equiv_pos_as_xyz
  'x, y, z'

loop_
  _atom_site_label
  _atom_site_occupancy
  _atom_site_fract_x
  _atom_site_fract_y
  _atom_site_fract_z
  _atom_site_thermal_displace_type
  _atom_site_B_iso_or_equiv
  _atom_site_type_symbol
  Zn1      1.0000 0.69148  0.25752  0.51808  Biso   1.000  Zn
  Zn2      1.0000 0.80750  0.19318  0.49533  Biso   1.000  Zn
  Zn3      1.0000 0.52373  0.47481  0.20486  Biso   1.000  Zn
  O1       1.0000 0.68018  0.15426  0.50813  Biso   1.000  O
  O2       1.0000 0.76353  0.10140  0.48887  Biso   1.000  O
  O3       1.0000 0.66160  0.27171  0.44921  Biso   1.000  O
  O4       1.0000 0.75053  0.22377  0.43609  Biso   1.000  O
  O5       1.0000 0.74399  0.23650  0.58012  Biso   1.000  O
  O6       1.0000 0.82589  0.17717  0.56378  Biso   1.000  O
  O7       1.0000 0.75934  0.84609  0.48393  Biso   1.000  O
  O8       1.0000 0.67095  0.79382  0.49316  Biso   1.000  O
  O9       1.0000 0.53516  0.39852  0.31810  Biso   1.000  O
  O10      1.0000 0.57329  0.40721  0.25203  Biso   1.000  O
  O11      1.0000 0.92975  0.05109  0.75903  Biso   1.000  O
  O12      1.0000 0.95057  0.04069  0.68712  Biso   1.000  O
  N1       1.0000 0.51286  0.97184  0.49974  Biso   1.000  N
  N2       1.0000 0.75440  0.23989  0.27015  Biso   1.000  N
  N3       1.0000 0.77134  0.23037  0.75644  Biso   1.000  N
  C1       1.0000 0.70864  0.10266  0.49756  Biso   1.000  C
  C2       1.0000 0.67395  0.03624  0.49565  Biso   1.000  C
  C3       1.0000 0.70371  0.97420  0.49100  Biso   1.000  C
  H1       1.0000 0.74550  0.97360  0.48780  Biso   1.000  H
  C4       1.0000 0.67124  0.91342  0.49115  Biso   1.000  C
  C5       1.0000 0.60821  0.91460  0.49467  Biso   1.000  C
  H2       1.0000 0.58630  0.87400  0.49500  Biso   1.000  H
  C6       1.0000 0.57807  0.97656  0.49765  Biso   1.000  C
  C7       1.0000 0.61104  0.03679  0.49888  Biso   1.000  C
  H3       1.0000 0.59100  0.07800  0.50190  Biso   1.000  H
  C8       1.0000 0.69953  0.25445  0.42357  Biso   1.000  C
  C9       1.0000 0.68453  0.27262  0.37339  Biso   1.000  C
  C10      1.0000 0.72310  0.24890  0.34334  Biso   1.000  C
  H4       1.0000 0.75640  0.22040  0.35430  Biso   1.000  H
  C11      1.0000 0.71221  0.26740  0.29740  Biso   1.000  C
  C12      1.0000 0.66301  0.31070  0.28070  Biso   1.000  C
  H5       1.0000 0.65620  0.32360  0.24990  Biso   1.000  H
  C13      1.0000 0.62443  0.33436  0.31005  Biso   1.000  C
  C14      1.0000 0.63481  0.31455  0.35623  Biso   1.000  C
  H6       1.0000 0.60810  0.32960  0.37570  Biso   1.000  H
  C15      1.0000 0.57311  0.38404  0.29166  Biso   1.000  C
  C16      1.0000 0.79239  0.20134  0.59108  Biso   1.000  C
  C17      1.0000 0.81168  0.18525  0.64145  Biso   1.000  C
  C18      1.0000 0.78142  0.21660  0.67370  Biso   1.000  C
  H7       1.0000 0.75000  0.24820  0.66440  Biso   1.000  H
  C19      1.0000 0.79853  0.20030  0.72023  Biso   1.000  C
  C20      1.0000 0.84391  0.15190  0.73400  Biso   1.000  C
  H8       1.0000 0.85410  0.14030  0.76500  Biso   1.000  H
  C21      1.0000 0.87440  0.12024  0.70161  Biso   1.000  C
  C22      1.0000 0.85872  0.13812  0.65553  Biso   1.000  C
  H9       1.0000 0.87990  0.11840  0.63380  Biso   1.000  H
  C23      1.0000 0.92229  0.06649  0.71689  Biso   1.000  C
  C24      1.0000 0.70326  0.84581  0.48899  Biso   1.000  C
  Zn4      1.0000 0.19148  0.75752  0.01808  Biso   1.000  Zn
  Zn5      1.0000 0.30750  0.69318  0.99533  Biso   1.000  Zn
  Zn6      1.0000 0.02373  0.97481  0.70486  Biso   1.000  Zn
  O13      1.0000 0.18018  0.65426  0.00813  Biso   1.000  O
  O14      1.0000 0.26353  0.60140  0.98887  Biso   1.000  O
  O15      1.0000 0.16160  0.77171  0.94921  Biso   1.000  O
  O16      1.0000 0.25053  0.72377  0.93609  Biso   1.000  O
  O17      1.0000 0.24399  0.73650  0.08012  Biso   1.000  O
  O18      1.0000 0.32589  0.67717  0.06378  Biso   1.000  O
  O19      1.0000 0.25934  0.34609  0.98393  Biso   1.000  O
  O20      1.0000 0.17095  0.29382  0.99316  Biso   1.000  O
  O21      1.0000 0.03516  0.89852  0.81810  Biso   1.000  O
  O22      1.0000 0.07329  0.90721  0.75203  Biso   1.000  O
  O23      1.0000 0.42975  0.55109  0.25903  Biso   1.000  O
  O24      1.0000 0.45057  0.54069  0.18712  Biso   1.000  O
  N4       1.0000 0.01286  0.47184  0.99974  Biso   1.000  N
  N5       1.0000 0.25440  0.73989  0.77015  Biso   1.000  N
  N6       1.0000 0.27134  0.73037  0.25644  Biso   1.000  N
  C25      1.0000 0.20864  0.60266  0.99756  Biso   1.000  C
  C26      1.0000 0.17395  0.53624  0.99565  Biso   1.000  C
  C27      1.0000 0.20371  0.47420  0.99100  Biso   1.000  C
  H10      1.0000 0.24550  0.47360  0.98780  Biso   1.000  H
  C28      1.0000 0.17124  0.41342  0.99115  Biso   1.000  C
  C29      1.0000 0.10821  0.41460  0.99467  Biso   1.000  C
  H11      1.0000 0.08630  0.37400  0.99500  Biso   1.000  H
  C30      1.0000 0.07807  0.47656  0.99765  Biso   1.000  C
  C31      1.0000 0.11104  0.53679  0.99888  Biso   1.000  C
  H12      1.0000 0.09100  0.57800  0.00190  Biso   1.000  H
  C32      1.0000 0.19953  0.75445  0.92357  Biso   1.000  C
  C33      1.0000 0.18453  0.77262  0.87339  Biso   1.000  C
  C34      1.0000 0.22310  0.74890  0.84334  Biso   1.000  C
  H13      1.0000 0.25640  0.72040  0.85430  Biso   1.000  H
  C35      1.0000 0.21221  0.76740  0.79740  Biso   1.000  C
  C36      1.0000 0.16301  0.81070  0.78070  Biso   1.000  C
  H14      1.0000 0.15620  0.82360  0.74990  Biso   1.000  H
  C37      1.0000 0.12443  0.83436  0.81005  Biso   1.000  C
  C38      1.0000 0.13481  0.81455  0.85623  Biso   1.000  C
  H15      1.0000 0.10810  0.82960  0.87570  Biso   1.000  H
  C39      1.0000 0.07311  0.88404  0.79166  Biso   1.000  C
  C40      1.0000 0.29239  0.70134  0.09108  Biso   1.000  C
  C41      1.0000 0.31168  0.68525  0.14145  Biso   1.000  C
  C42      1.0000 0.28142  0.71660  0.17370  Biso   1.000  C
  H16      1.0000 0.25000  0.74820  0.16440  Biso   1.000  H
  C43      1.0000 0.29853  0.70030  0.22023  Biso   1.000  C
  C44      1.0000 0.34391  0.65190  0.23400  Biso   1.000  C
  H17      1.0000 0.35410  0.64030  0.26500  Biso   1.000  H
  C45      1.0000 0.37440  0.62024  0.20161  Biso   1.000  C
  C46      1.0000 0.35872  0.63812  0.15553  Biso   1.000  C
  H18      1.0000 0.37990  0.61840  0.13380  Biso   1.000  H
  C47      1.0000 0.42229  0.56649  0.21689  Biso   1.000  C
  C48      1.0000 0.20326  0.34581  0.98899  Biso   1.000  C
  Zn7      1.0000 0.30852  0.25752  0.98192  Biso   1.000  Zn
  Zn8      1.0000 0.19250  0.19318  0.00467  Biso   1.000  Zn
  Zn9      1.0000 0.47627  0.47481  0.29514  Biso   1.000  Zn
  O25      1.0000 0.31982  0.15426  0.99187  Biso   1.000  O
  O26      1.0000 0.23647  0.10140  0.01113  Biso   1.000  O
  O27      1.0000 0.33840  0.27171  0.05079  Biso   1.000  O
  O28      1.0000 0.24947  0.22377  0.06391  Biso   1.000  O
  O29      1.0000 0.25601  0.23650  0.91988  Biso   1.000  O
  O30      1.0000 0.17411  0.17717  0.93622  Biso   1.000  O
  O31      1.0000 0.24066  0.84609  0.01607  Biso   1.000  O
  O32      1.0000 0.32905  0.79382  0.00684  Biso   1.000  O
  O33      1.0000 0.46484  0.39852  0.18190  Biso   1.000  O
  O34      1.0000 0.42671  0.40721  0.24797  Biso   1.000  O
  O35      1.0000 0.07025  0.05109  0.74097  Biso   1.000  O
  O36      1.0000 0.04943  0.04069  0.81288  Biso   1.000  O
  N7       1.0000 0.48714  0.97184  0.00026  Biso   1.000  N
  N8       1.0000 0.24560  0.23989  0.22985  Biso   1.000  N
  N9       1.0000 0.22866  0.23037  0.74356  Biso   1.000  N
  C49      1.0000 0.29136  0.10266  0.00244  Biso   1.000  C
  C50      1.0000 0.32605  0.03624  0.00435  Biso   1.000  C
  C51      1.0000 0.29629  0.97420  0.00900  Biso   1.000  C
  H19      1.0000 0.25450  0.97360  0.01220  Biso   1.000  H
  C52      1.0000 0.32876  0.91342  0.00885  Biso   1.000  C
  C53      1.0000 0.39179  0.91460  0.00533  Biso   1.000  C
  H20      1.0000 0.41370  0.87400  0.00500  Biso   1.000  H
  C54      1.0000 0.42193  0.97656  0.00235  Biso   1.000  C
  C55      1.0000 0.38896  0.03679  0.00112  Biso   1.000  C
  H21      1.0000 0.40900  0.07800  0.99810  Biso   1.000  H
  C56      1.0000 0.30047  0.25445  0.07643  Biso   1.000  C
  C57      1.0000 0.31547  0.27262  0.12661  Biso   1.000  C
  C58      1.0000 0.27690  0.24890  0.15666  Biso   1.000  C
  H22      1.0000 0.24360  0.22040  0.14570  Biso   1.000  H
  C59      1.0000 0.28779  0.26740  0.20260  Biso   1.000  C
  C60      1.0000 0.33699  0.31070  0.21930  Biso   1.000  C
  H23      1.0000 0.34380  0.32360  0.25010  Biso   1.000  H
  C61      1.0000 0.37557  0.33436  0.18995  Biso   1.000  C
  C62      1.0000 0.36519  0.31455  0.14377  Biso   1.000  C
  H24      1.0000 0.39190  0.32960  0.12430  Biso   1.000  H
  C63      1.0000 0.42689  0.38404  0.20834  Biso   1.000  C
  C64      1.0000 0.20761  0.20134  0.90892  Biso   1.000  C
  C65      1.0000 0.18832  0.18525  0.85855  Biso   1.000  C
  C66      1.0000 0.21858  0.21660  0.82630  Biso   1.000  C
  H25      1.0000 0.25000  0.24820  0.83560  Biso   1.000  H
  C67      1.0000 0.20147  0.20030  0.77977  Biso   1.000  C
  C68      1.0000 0.15609  0.15190  0.76600  Biso   1.000  C
  H26      1.0000 0.14590  0.14030  0.73500  Biso   1.000  H
  C69      1.0000 0.12560  0.12024  0.79839  Biso   1.000  C
  C70      1.0000 0.14128  0.13812  0.84447  Biso   1.000  C
  H27      1.0000 0.12010  0.11840  0.86620  Biso   1.000  H
  C71      1.0000 0.07771  0.06649  0.78311  Biso   1.000  C
  C72      1.0000 0.29674  0.84581  0.01101  Biso   1.000  C
  Zn10     1.0000 0.80852  0.75752  0.48192  Biso   1.000  Zn
  Zn11     1.0000 0.69250  0.69318  0.50467  Biso   1.000  Zn
  Zn12     1.0000 0.97627  0.97481  0.79514  Biso   1.000  Zn
  O37      1.0000 0.81982  0.65426  0.49187  Biso   1.000  O
  O38      1.0000 0.73647  0.60140  0.51113  Biso   1.000  O
  O39      1.0000 0.83840  0.77171  0.55079  Biso   1.000  O
  O40      1.0000 0.74947  0.72377  0.56391  Biso   1.000  O
  O41      1.0000 0.75601  0.73650  0.41988  Biso   1.000  O
  O42      1.0000 0.67411  0.67717  0.43622  Biso   1.000  O
  O43      1.0000 0.74066  0.34609  0.51607  Biso   1.000  O
  O44      1.0000 0.82905  0.29382  0.50684  Biso   1.000  O
  O45      1.0000 0.96484  0.89852  0.68190  Biso   1.000  O
  O46      1.0000 0.92671  0.90721  0.74797  Biso   1.000  O
  O47      1.0000 0.57025  0.55109  0.24097  Biso   1.000  O
  O48      1.0000 0.54943  0.54069  0.31288  Biso   1.000  O
  N10      1.0000 0.98714  0.47184  0.50026  Biso   1.000  N
  N11      1.0000 0.74560  0.73989  0.72985  Biso   1.000  N
  N12      1.0000 0.72866  0.73037  0.24356  Biso   1.000  N
  C73      1.0000 0.79136  0.60266  0.50244  Biso   1.000  C
  C74      1.0000 0.82605  0.53624  0.50435  Biso   1.000  C
  C75      1.0000 0.79629  0.47420  0.50900  Biso   1.000  C
  H28      1.0000 0.75450  0.47360  0.51220  Biso   1.000  H
  C76      1.0000 0.82876  0.41342  0.50885  Biso   1.000  C
  C77      1.0000 0.89179  0.41460  0.50533  Biso   1.000  C
  H29      1.0000 0.91370  0.37400  0.50500  Biso   1.000  H
  C78      1.0000 0.92193  0.47656  0.50235  Biso   1.000  C
  C79      1.0000 0.88896  0.53679  0.50112  Biso   1.000  C
  H30      1.0000 0.90900  0.57800  0.49810  Biso   1.000  H
  C80      1.0000 0.80047  0.75445  0.57643  Biso   1.000  C
  C81      1.0000 0.81547  0.77262  0.62661  Biso   1.000  C
  C82      1.0000 0.77690  0.74890  0.65666  Biso   1.000  C
  H31      1.0000 0.74360  0.72040  0.64570  Biso   1.000  H
  C83      1.0000 0.78779  0.76740  0.70260  Biso   1.000  C
  C84      1.0000 0.83699  0.81070  0.71930  Biso   1.000  C
  H32      1.0000 0.84380  0.82360  0.75010  Biso   1.000  H
  C85      1.0000 0.87557  0.83436  0.68995  Biso   1.000  C
  C86      1.0000 0.86519  0.81455  0.64377  Biso   1.000  C
  H33      1.0000 0.89190  0.82960  0.62430  Biso   1.000  H
  C87      1.0000 0.92689  0.88404  0.70834  Biso   1.000  C
  C88      1.0000 0.70761  0.70134  0.40892  Biso   1.000  C
  C89      1.0000 0.68832  0.68525  0.35855  Biso   1.000  C
  C90      1.0000 0.71858  0.71660  0.32630  Biso   1.000  C
  H34      1.0000 0.75000  0.74820  0.33560  Biso   1.000  H
  C91      1.0000 0.70147  0.70030  0.27977  Biso   1.000  C
  C92      1.0000 0.65609  0.65190  0.26600  Biso   1.000  C
  H35      1.0000 0.64590  0.64030  0.23500  Biso   1.000  H
  C93      1.0000 0.62560  0.62024  0.29839  Biso   1.000  C
  C94      1.0000 0.64128  0.63812  0.34447  Biso   1.000  C
  H36      1.0000 0.62010  0.61840  0.36620  Biso   1.000  H
  C95      1.0000 0.57771  0.56649  0.28311  Biso   1.000  C
  C96      1.0000 0.79674  0.34581  0.51101  Biso   1.000  C
  Zn13     1.0000 0.30852  0.74248  0.48192  Biso   1.000  Zn
  Zn14     1.0000 0.19250  0.80682  0.50467  Biso   1.000  Zn
  Zn15     1.0000 0.47627  0.52519  0.79514  Biso   1.000  Zn
  O49      1.0000 0.31982  0.84574  0.49187  Biso   1.000  O
  O50      1.0000 0.23647  0.89860  0.51113  Biso   1.000  O
  O51      1.0000 0.33840  0.72829  0.55079  Biso   1.000  O
  O52      1.0000 0.24947  0.77623  0.56391  Biso   1.000  O
  O53      1.0000 0.25601  0.76350  0.41988  Biso   1.000  O
  O54      1.0000 0.17411  0.82283  0.43622  Biso   1.000  O
  O55      1.0000 0.24066  0.15391  0.51607  Biso   1.000  O
  O56      1.0000 0.32905  0.20618  0.50684  Biso   1.000  O
  O57      1.0000 0.46484  0.60148  0.68190  Biso   1.000  O
  O58      1.0000 0.42671  0.59279  0.74797  Biso   1.000  O
  O59      1.0000 0.07025  0.94891  0.24097  Biso   1.000  O
  O60      1.0000 0.04943  0.95931  0.31288  Biso   1.000  O
  N13      1.0000 0.48714  0.02816  0.50026  Biso   1.000  N
  N14      1.0000 0.24560  0.76011  0.72985  Biso   1.000  N
  N15      1.0000 0.22866  0.76963  0.24356  Biso   1.000  N
  C97      1.0000 0.29136  0.89734  0.50244  Biso   1.000  C
  C98      1.0000 0.32605  0.96376  0.50435  Biso   1.000  C
  C99      1.0000 0.29629  0.02580  0.50900  Biso   1.000  C
  H37      1.0000 0.25450  0.02640  0.51220  Biso   1.000  H
  C100     1.0000 0.32876  0.08658  0.50885  Biso   1.000  C
  C101     1.0000 0.39179  0.08540  0.50533  Biso   1.000  C
  H38      1.0000 0.41370  0.12600  0.50500  Biso   1.000  H
  C102     1.0000 0.42193  0.02344  0.50235  Biso   1.000  C
  C103     1.0000 0.38896  0.96321  0.50112  Biso   1.000  C
  H39      1.0000 0.40900  0.92200  0.49810  Biso   1.000  H
  C104     1.0000 0.30047  0.74555  0.57643  Biso   1.000  C
  C105     1.0000 0.31547  0.72738  0.62661  Biso   1.000  C
  C106     1.0000 0.27690  0.75110  0.65666  Biso   1.000  C
  H40      1.0000 0.24360  0.77960  0.64570  Biso   1.000  H
  C107     1.0000 0.28779  0.73260  0.70260  Biso   1.000  C
  C108     1.0000 0.33699  0.68930  0.71930  Biso   1.000  C
  H41      1.0000 0.34380  0.67640  0.75010  Biso   1.000  H
  C109     1.0000 0.37557  0.66564  0.68995  Biso   1.000  C
  C110     1.0000 0.36519  0.68545  0.64377  Biso   1.000  C
  H42      1.0000 0.39190  0.67040  0.62430  Biso   1.000  H
  C111     1.0000 0.42689  0.61596  0.70834  Biso   1.000  C
  C112     1.0000 0.20761  0.79866  0.40892  Biso   1.000  C
  C113     1.0000 0.18832  0.81475  0.35855  Biso   1.000  C
  C114     1.0000 0.21858  0.78340  0.32630  Biso   1.000  C
  H43      1.0000 0.25000  0.75180  0.33560  Biso   1.000  H
  C115     1.0000 0.20147  0.79970  0.27977  Biso   1.000  C
  C116     1.0000 0.15609  0.84810  0.26600  Biso   1.000  C
  H44      1.0000 0.14590  0.85970  0.23500  Biso   1.000  H
  C117     1.0000 0.12560  0.87976  0.29839  Biso   1.000  C
  C118     1.0000 0.14128  0.86188  0.34447  Biso   1.000  C
  H45      1.0000 0.12010  0.88160  0.36620  Biso   1.000  H
  C119     1.0000 0.07771  0.93351  0.28311  Biso   1.000  C
  C120     1.0000 0.29674  0.15419  0.51101  Biso   1.000  C
  Zn16     1.0000 0.80852  0.24248  0.98192  Biso   1.000  Zn
  Zn17     1.0000 0.69250  0.30682  0.00467  Biso   1.000  Zn
  Zn18     1.0000 0.97627  0.02519  0.29514  Biso   1.000  Zn
  O61      1.0000 0.81982  0.34574  0.99187  Biso   1.000  O
  O62      1.0000 0.73647  0.39860  0.01113  Biso   1.000  O
  O63      1.0000 0.83840  0.22829  0.05079  Biso   1.000  O
  O64      1.0000 0.74947  0.27623  0.06391  Biso   1.000  O
  O65      1.0000 0.75601  0.26350  0.91988  Biso   1.000  O
  O66      1.0000 0.67411  0.32283  0.93622  Biso   1.000  O
  O67      1.0000 0.74066  0.65391  0.01607  Biso   1.000  O
  O68      1.0000 0.82905  0.70618  0.00684  Biso   1.000  O
  O69      1.0000 0.96484  0.10148  0.18190  Biso   1.000  O
  O70      1.0000 0.92671  0.09279  0.24797  Biso   1.000  O
  O71      1.0000 0.57025  0.44891  0.74097  Biso   1.000  O
  O72      1.0000 0.54943  0.45931  0.81288  Biso   1.000  O
  N16      1.0000 0.98714  0.52816  0.00026  Biso   1.000  N
  N17      1.0000 0.74560  0.26011  0.22985  Biso   1.000  N
  N18      1.0000 0.72866  0.26963  0.74356  Biso   1.000  N
  C121     1.0000 0.79136  0.39734  0.00244  Biso   1.000  C
  C122     1.0000 0.82605  0.46376  0.00435  Biso   1.000  C
  C123     1.0000 0.79629  0.52580  0.00900  Biso   1.000  C
  H46      1.0000 0.75450  0.52640  0.01220  Biso   1.000  H
  C124     1.0000 0.82876  0.58658  0.00885  Biso   1.000  C
  C125     1.0000 0.89179  0.58540  0.00533  Biso   1.000  C
  H47      1.0000 0.91370  0.62600  0.00500  Biso   1.000  H
  C126     1.0000 0.92193  0.52344  0.00235  Biso   1.000  C
  C127     1.0000 0.88896  0.46321  0.00112  Biso   1.000  C
  H48      1.0000 0.90900  0.42200  0.99810  Biso   1.000  H
  C128     1.0000 0.80047  0.24555  0.07643  Biso   1.000  C
  C129     1.0000 0.81547  0.22738  0.12661  Biso   1.000  C
  C130     1.0000 0.77690  0.25110  0.15666  Biso   1.000  C
  H49      1.0000 0.74360  0.27960  0.14570  Biso   1.000  H
  C131     1.0000 0.78779  0.23260  0.20260  Biso   1.000  C
  C132     1.0000 0.83699  0.18930  0.21930  Biso   1.000  C
  H50      1.0000 0.84380  0.17640  0.25010  Biso   1.000  H
  C133     1.0000 0.87557  0.16564  0.18995  Biso   1.000  C
  C134     1.0000 0.86519  0.18545  0.14377  Biso   1.000  C
  H51      1.0000 0.89190  0.17040  0.12430  Biso   1.000  H
  C135     1.0000 0.92689  0.11596  0.20834  Biso   1.000  C
  C136     1.0000 0.70761  0.29866  0.90892  Biso   1.000  C
  C137     1.0000 0.68832  0.31475  0.85855  Biso   1.000  C
  C138     1.0000 0.71858  0.28340  0.82630  Biso   1.000  C
  H52      1.0000 0.75000  0.25180  0.83560  Biso   1.000  H
  C139     1.0000 0.70147  0.29970  0.77977  Biso   1.000  C
  C140     1.0000 0.65609  0.34810  0.76600  Biso   1.000  C
  H53      1.0000 0.64590  0.35970  0.73500  Biso   1.000  H
  C141     1.0000 0.62560  0.37976  0.79839  Biso   1.000  C
  C142     1.0000 0.64128  0.36188  0.84447  Biso   1.000  C
  H54      1.0000 0.62010  0.38160  0.86620  Biso   1.000  H
  C143     1.0000 0.57771  0.43351  0.78311  Biso   1.000  C
  C144     1.0000 0.79674  0.65419  0.01101  Biso   1.000  C
  Zn19     1.0000 0.69148  0.74248  0.01808  Biso   1.000  Zn
  Zn20     1.0000 0.80750  0.80682  0.99533  Biso   1.000  Zn
  Zn21     1.0000 0.52373  0.52519  0.70486  Biso   1.000  Zn
  O73      1.0000 0.68018  0.84574  0.00813  Biso   1.000  O
  O74      1.0000 0.76353  0.89860  0.98887  Biso   1.000  O
  O75      1.0000 0.66160  0.72829  0.94921  Biso   1.000  O
  O76      1.0000 0.75053  0.77623  0.93609  Biso   1.000  O
  O77      1.0000 0.74399  0.76350  0.08012  Biso   1.000  O
  O78      1.0000 0.82589  0.82283  0.06378  Biso   1.000  O
  O79      1.0000 0.75934  0.15391  0.98393  Biso   1.000  O
  O80      1.0000 0.67095  0.20618  0.99316  Biso   1.000  O
  O81      1.0000 0.53516  0.60148  0.81810  Biso   1.000  O
  O82      1.0000 0.57329  0.59279  0.75203  Biso   1.000  O
  O83      1.0000 0.92975  0.94891  0.25903  Biso   1.000  O
  O84      1.0000 0.95057  0.95931  0.18712  Biso   1.000  O
  N19      1.0000 0.51286  0.02816  0.99974  Biso   1.000  N
  N20      1.0000 0.75440  0.76011  0.77015  Biso   1.000  N
  N21      1.0000 0.77134  0.76963  0.25644  Biso   1.000  N
  C145     1.0000 0.70864  0.89734  0.99756  Biso   1.000  C
  C146     1.0000 0.67395  0.96376  0.99565  Biso   1.000  C
  C147     1.0000 0.70371  0.02580  0.99100  Biso   1.000  C
  H55      1.0000 0.74550  0.02640  0.98780  Biso   1.000  H
  C148     1.0000 0.67124  0.08658  0.99115  Biso   1.000  C
  C149     1.0000 0.60821  0.08540  0.99467  Biso   1.000  C
  H56      1.0000 0.58630  0.12600  0.99500  Biso   1.000  H
  C150     1.0000 0.57807  0.02344  0.99765  Biso   1.000  C
  C151     1.0000 0.61104  0.96321  0.99888  Biso   1.000  C
  H57      1.0000 0.59100  0.92200  0.00190  Biso   1.000  H
  C152     1.0000 0.69953  0.74555  0.92357  Biso   1.000  C
  C153     1.0000 0.68453  0.72738  0.87339  Biso   1.000  C
  C154     1.0000 0.72310  0.75110  0.84334  Biso   1.000  C
  H58      1.0000 0.75640  0.77960  0.85430  Biso   1.000  H
  C155     1.0000 0.71221  0.73260  0.79740  Biso   1.000  C
  C156     1.0000 0.66301  0.68930  0.78070  Biso   1.000  C
  H59      1.0000 0.65620  0.67640  0.74990  Biso   1.000  H
  C157     1.0000 0.62443  0.66564  0.81005  Biso   1.000  C
  C158     1.0000 0.63481  0.68545  0.85623  Biso   1.000  C
  H60      1.0000 0.60810  0.67040  0.87570  Biso   1.000  H
  C159     1.0000 0.57311  0.61596  0.79166  Biso   1.000  C
  C160     1.0000 0.79239  0.79866  0.09108  Biso   1.000  C
  C161     1.0000 0.81168  0.81475  0.14145  Biso   1.000  C
  C162     1.0000 0.78142  0.78340  0.17370  Biso   1.000  C
  H61      1.0000 0.75000  0.75180  0.16440  Biso   1.000  H
  C163     1.0000 0.79853  0.79970  0.22023  Biso   1.000  C
  C164     1.0000 0.84391  0.84810  0.23400  Biso   1.000  C
  H62      1.0000 0.85410  0.85970  0.26500  Biso   1.000  H
  C165     1.0000 0.87440  0.87976  0.20161  Biso   1.000  C
  C166     1.0000 0.85872  0.86188  0.15553  Biso   1.000  C
  H63      1.0000 0.87990  0.88160  0.13380  Biso   1.000  H
  C167     1.0000 0.92229  0.93351  0.21689  Biso   1.000  C
  C168     1.0000 0.70326  0.15419  0.98899  Biso   1.000  C
  Zn22     1.0000 0.19148  0.24248  0.51808  Biso   1.000  Zn
  Zn23     1.0000 0.30750  0.30682  0.49533  Biso   1.000  Zn
  Zn24     1.0000 0.02373  0.02519  0.20486  Biso   1.000  Zn
  O85      1.0000 0.18018  0.34574  0.50813  Biso   1.000  O
  O86      1.0000 0.26353  0.39860  0.48887  Biso   1.000  O
  O87      1.0000 0.16160  0.22829  0.44921  Biso   1.000  O
  O88      1.0000 0.25053  0.27623  0.43609  Biso   1.000  O
  O89      1.0000 0.24399  0.26350  0.58012  Biso   1.000  O
  O90      1.0000 0.32589  0.32283  0.56378  Biso   1.000  O
  O91      1.0000 0.25934  0.65391  0.48393  Biso   1.000  O
  O92      1.0000 0.17095  0.70618  0.49316  Biso   1.000  O
  O93      1.0000 0.03516  0.10148  0.31810  Biso   1.000  O
  O94      1.0000 0.07329  0.09279  0.25203  Biso   1.000  O
  O95      1.0000 0.42975  0.44891  0.75903  Biso   1.000  O
  O96      1.0000 0.45057  0.45931  0.68712  Biso   1.000  O
  N22      1.0000 0.01286  0.52816  0.49974  Biso   1.000  N
  N23      1.0000 0.25440  0.26011  0.27015  Biso   1.000  N
  N24      1.0000 0.27134  0.26963  0.75644  Biso   1.000  N
  C169     1.0000 0.20864  0.39734  0.49756  Biso   1.000  C
  C170     1.0000 0.17395  0.46376  0.49565  Biso   1.000  C
  C171     1.0000 0.20371  0.52580  0.49100  Biso   1.000  C
  H64      1.0000 0.24550  0.52640  0.48780  Biso   1.000  H
  C172     1.0000 0.17124  0.58658  0.49115  Biso   1.000  C
  C173     1.0000 0.10821  0.58540  0.49467  Biso   1.000  C
  H65      1.0000 0.08630  0.62600  0.49500  Biso   1.000  H
  C174     1.0000 0.07807  0.52344  0.49765  Biso   1.000  C
  C175     1.0000 0.11104  0.46321  0.49888  Biso   1.000  C
  H66      1.0000 0.09100  0.42200  0.50190  Biso   1.000  H
  C176     1.0000 0.19953  0.24555  0.42357  Biso   1.000  C
  C177     1.0000 0.18453  0.22738  0.37339  Biso   1.000  C
  C178     1.0000 0.22310  0.25110  0.34334  Biso   1.000  C
  H67      1.0000 0.25640  0.27960  0.35430  Biso   1.000  H
  C179     1.0000 0.21221  0.23260  0.29740  Biso   1.000  C
  C180     1.0000 0.16301  0.18930  0.28070  Biso   1.000  C
  H68      1.0000 0.15620  0.17640  0.24990  Biso   1.000  H
  C181     1.0000 0.12443  0.16564  0.31005  Biso   1.000  C
  C182     1.0000 0.13481  0.18545  0.35623  Biso   1.000  C
  H69      1.0000 0.10810  0.17040  0.37570  Biso   1.000  H
  C183     1.0000 0.07311  0.11596  0.29166  Biso   1.000  C
  C184     1.0000 0.29239  0.29866  0.59108  Biso   1.000  C
  C185     1.0000 0.31168  0.31475  0.64145  Biso   1.000  C
  C186     1.0000 0.28142  0.28340  0.67370  Biso   1.000  C
  H70      1.0000 0.25000  0.25180  0.66440  Biso   1.000  H
  C187     1.0000 0.29853  0.29970  0.72023  Biso   1.000  C
  C188     1.0000 0.34391  0.34810  0.73400  Biso   1.000  C
  H71      1.0000 0.35410  0.35970  0.76500  Biso   1.000  H
  C189     1.0000 0.37440  0.37976  0.70161  Biso   1.000  C
  C190     1.0000 0.35872  0.36188  0.65553  Biso   1.000  C
  H72      1.0000 0.37990  0.38160  0.63380  Biso   1.000  H
  C191     1.0000 0.42229  0.43351  0.71689  Biso   1.000  C
  C192     1.0000 0.20326  0.65419  0.48899  Biso   1.000  C
