data_image0
_cell_length_a       24.2784
_cell_length_b       13.3684
_cell_length_c       15.9103
_cell_angle_alpha    90
_cell_angle_beta     90
_cell_angle_gamma    90

_symmetry_space_group_name_H-M    "P 1"
_symmetry_int_tables_number       1

loop_
  _symmetry_equiv_pos_as_xyz
  'x, y, z'

loop_
  _atom_site_label
  _atom_site_occupancy
  _atom_site_fract_x
  _atom_site_fract_y
  _atom_site_fract_z
  _atom_site_thermal_displace_type
  _atom_site_B_iso_or_equiv
  _atom_site_type_symbol
  Co1      1.0000 0.55092  0.35477  0.38927  Biso   1.000  Co
  Co2      1.0000 0.38720  0.06075  0.61349  Biso   1.000  Co
  Co3      1.0000 0.46217  0.24586  0.50505  Biso   1.000  Co
  O1       1.0000 0.91919  0.17930  0.91230  Biso   1.000  O
  O2       1.0000 0.83465  0.05190  0.49560  Biso   1.000  O
  O3       1.0000 0.50969  0.16970  0.59270  Biso   1.000  O
  O4       1.0000 0.91794  0.11030  0.51060  Biso   1.000  O
  O5       1.0000 0.60647  0.30120  0.30510  Biso   1.000  O
  O6       1.0000 0.41334  0.31260  0.59360  Biso   1.000  O
  O7       1.0000 0.51870  0.12650  0.98460  Biso   1.000  O
  O8       1.0000 0.52362  0.20310  0.42110  Biso   1.000  O
  O9       1.0000 0.58938  0.08920  0.40280  Biso   1.000  O
  O10      1.0000 0.45597  0.08840  0.68540  Biso   1.000  O
  O11      1.0000 0.98275  0.13320  0.81720  Biso   1.000  O
  C1       1.0000 0.79210  0.12170  0.74310  Biso   1.000  C
  O12      1.0000 0.60737  0.13730  0.00970  Biso   1.000  O
  N1       1.0000 0.73736  0.12350  0.77520  Biso   1.000  N
  O13      1.0000 0.35381  0.19760  0.64290  Biso   1.000  O
  N2       1.0000 0.70026  0.12590  0.72010  Biso   1.000  N
  C2       1.0000 0.53730  0.12280  0.80880  Biso   1.000  C
  H1       1.0000 0.50100  0.12160  0.82780  Biso   1.000  H
  C3       1.0000 0.87080  0.08860  0.54160  Biso   1.000  C
  C4       1.0000 0.54220  0.11400  0.42350  Biso   1.000  C
  H2       1.0000 0.51860  0.06400  0.44220  Biso   1.000  H
  C5       1.0000 0.64560  0.12460  0.75330  Biso   1.000  C
  C6       1.0000 0.83370  0.13430  0.80150  Biso   1.000  C
  H3       1.0000 0.82490  0.14350  0.85780  Biso   1.000  H
  C7       1.0000 0.88890  0.13310  0.77640  Biso   1.000  C
  C8       1.0000 0.80460  0.10530  0.65860  Biso   1.000  C
  H4       1.0000 0.77660  0.09430  0.61980  Biso   1.000  H
  C9       1.0000 0.90140  0.11830  0.69210  Biso   1.000  C
  H5       1.0000 0.93800  0.11690  0.67480  Biso   1.000  H
  C10      1.0000 0.85950  0.10550  0.63320  Biso   1.000  C
  C11      1.0000 0.54790  0.12460  0.72340  Biso   1.000  C
  C12      1.0000 0.63430  0.12190  0.83920  Biso   1.000  C
  H6       1.0000 0.66300  0.11950  0.87800  Biso   1.000  H
  C13      1.0000 0.56840  0.12900  0.95810  Biso   1.000  C
  C14      1.0000 0.60270  0.12720  0.69560  Biso   1.000  C
  H7       1.0000 0.61030  0.13080  0.63840  Biso   1.000  H
  C15      1.0000 0.58020  0.12280  0.86640  Biso   1.000  C
  C16      1.0000 0.93380  0.14960  0.84030  Biso   1.000  C
  C17      1.0000 0.50080  0.12830  0.66220  Biso   1.000  C
  C18      1.0000 0.37360  0.28300  0.63830  Biso   1.000  C
  H8       1.0000 0.35710  0.33130  0.67200  Biso   1.000  H
  Co4      1.0000 0.94908  0.64523  0.38927  Biso   1.000  Co
  Co5      1.0000 0.11280  0.93925  0.61349  Biso   1.000  Co
  Co6      1.0000 0.03783  0.75414  0.50505  Biso   1.000  Co
  O14      1.0000 0.58081  0.82070  0.91230  Biso   1.000  O
  O15      1.0000 0.66535  0.94810  0.49560  Biso   1.000  O
  O16      1.0000 0.99031  0.83030  0.59270  Biso   1.000  O
  O17      1.0000 0.58206  0.88970  0.51060  Biso   1.000  O
  O18      1.0000 0.89353  0.69880  0.30510  Biso   1.000  O
  O19      1.0000 0.08666  0.68740  0.59360  Biso   1.000  O
  O20      1.0000 0.98130  0.87350  0.98460  Biso   1.000  O
  O21      1.0000 0.97638  0.79690  0.42110  Biso   1.000  O
  O22      1.0000 0.91062  0.91080  0.40280  Biso   1.000  O
  O23      1.0000 0.04403  0.91160  0.68540  Biso   1.000  O
  O24      1.0000 0.51725  0.86680  0.81720  Biso   1.000  O
  C19      1.0000 0.70790  0.87830  0.74310  Biso   1.000  C
  O25      1.0000 0.89263  0.86270  0.00970  Biso   1.000  O
  N3       1.0000 0.76264  0.87650  0.77520  Biso   1.000  N
  O26      1.0000 0.14619  0.80240  0.64290  Biso   1.000  O
  N4       1.0000 0.79974  0.87410  0.72010  Biso   1.000  N
  C20      1.0000 0.96270  0.87720  0.80880  Biso   1.000  C
  H9       1.0000 0.99900  0.87840  0.82780  Biso   1.000  H
  C21      1.0000 0.62920  0.91140  0.54160  Biso   1.000  C
  C22      1.0000 0.95780  0.88600  0.42350  Biso   1.000  C
  H10      1.0000 0.98140  0.93600  0.44220  Biso   1.000  H
  C23      1.0000 0.85440  0.87540  0.75330  Biso   1.000  C
  C24      1.0000 0.66630  0.86570  0.80150  Biso   1.000  C
  H11      1.0000 0.67510  0.85650  0.85780  Biso   1.000  H
  C25      1.0000 0.61110  0.86690  0.77640  Biso   1.000  C
  C26      1.0000 0.69540  0.89470  0.65860  Biso   1.000  C
  H12      1.0000 0.72340  0.90570  0.61980  Biso   1.000  H
  C27      1.0000 0.59860  0.88170  0.69210  Biso   1.000  C
  H13      1.0000 0.56200  0.88310  0.67480  Biso   1.000  H
  C28      1.0000 0.64050  0.89450  0.63320  Biso   1.000  C
  C29      1.0000 0.95210  0.87540  0.72340  Biso   1.000  C
  C30      1.0000 0.86570  0.87810  0.83920  Biso   1.000  C
  H14      1.0000 0.83700  0.88050  0.87800  Biso   1.000  H
  C31      1.0000 0.93160  0.87100  0.95810  Biso   1.000  C
  C32      1.0000 0.89730  0.87280  0.69560  Biso   1.000  C
  H15      1.0000 0.88970  0.86920  0.63840  Biso   1.000  H
  C33      1.0000 0.91980  0.87720  0.86640  Biso   1.000  C
  C34      1.0000 0.56620  0.85040  0.84030  Biso   1.000  C
  C35      1.0000 0.99920  0.87170  0.66220  Biso   1.000  C
  C36      1.0000 0.12640  0.71700  0.63830  Biso   1.000  C
  H16      1.0000 0.14290  0.66870  0.67200  Biso   1.000  H
  Co7      1.0000 0.94908  0.85477  0.11073  Biso   1.000  Co
  Co8      1.0000 0.11280  0.56075  0.88651  Biso   1.000  Co
  Co9      1.0000 0.03783  0.74586  0.99495  Biso   1.000  Co
  O27      1.0000 0.58081  0.67930  0.58770  Biso   1.000  O
  O28      1.0000 0.66535  0.55190  0.00440  Biso   1.000  O
  O29      1.0000 0.99031  0.66970  0.90730  Biso   1.000  O
  O30      1.0000 0.58206  0.61030  0.98940  Biso   1.000  O
  O31      1.0000 0.89353  0.80120  0.19490  Biso   1.000  O
  O32      1.0000 0.08666  0.81260  0.90640  Biso   1.000  O
  O33      1.0000 0.98130  0.62650  0.51540  Biso   1.000  O
  O34      1.0000 0.97638  0.70310  0.07890  Biso   1.000  O
  O35      1.0000 0.91062  0.58920  0.09720  Biso   1.000  O
  O36      1.0000 0.04403  0.58840  0.81460  Biso   1.000  O
  O37      1.0000 0.51725  0.63320  0.68280  Biso   1.000  O
  C37      1.0000 0.70790  0.62170  0.75690  Biso   1.000  C
  O38      1.0000 0.89263  0.63730  0.49030  Biso   1.000  O
  N5       1.0000 0.76264  0.62350  0.72480  Biso   1.000  N
  O39      1.0000 0.14619  0.69760  0.85710  Biso   1.000  O
  N6       1.0000 0.79974  0.62590  0.77990  Biso   1.000  N
  C38      1.0000 0.96270  0.62280  0.69120  Biso   1.000  C
  H17      1.0000 0.99900  0.62160  0.67220  Biso   1.000  H
  C39      1.0000 0.62920  0.58860  0.95840  Biso   1.000  C
  C40      1.0000 0.95780  0.61400  0.07650  Biso   1.000  C
  H18      1.0000 0.98140  0.56400  0.05780  Biso   1.000  H
  C41      1.0000 0.85440  0.62460  0.74670  Biso   1.000  C
  C42      1.0000 0.66630  0.63430  0.69850  Biso   1.000  C
  H19      1.0000 0.67510  0.64350  0.64220  Biso   1.000  H
  C43      1.0000 0.61110  0.63310  0.72360  Biso   1.000  C
  C44      1.0000 0.69540  0.60530  0.84140  Biso   1.000  C
  H20      1.0000 0.72340  0.59430  0.88020  Biso   1.000  H
  C45      1.0000 0.59860  0.61830  0.80790  Biso   1.000  C
  H21      1.0000 0.56200  0.61690  0.82520  Biso   1.000  H
  C46      1.0000 0.64050  0.60550  0.86680  Biso   1.000  C
  C47      1.0000 0.95210  0.62460  0.77660  Biso   1.000  C
  C48      1.0000 0.86570  0.62190  0.66080  Biso   1.000  C
  H22      1.0000 0.83700  0.61950  0.62200  Biso   1.000  H
  C49      1.0000 0.93160  0.62900  0.54190  Biso   1.000  C
  C50      1.0000 0.89730  0.62720  0.80440  Biso   1.000  C
  H23      1.0000 0.88970  0.63080  0.86160  Biso   1.000  H
  C51      1.0000 0.91980  0.62280  0.63360  Biso   1.000  C
  C52      1.0000 0.56620  0.64960  0.65970  Biso   1.000  C
  C53      1.0000 0.99920  0.62830  0.83780  Biso   1.000  C
  C54      1.0000 0.12640  0.78300  0.86170  Biso   1.000  C
  H24      1.0000 0.14290  0.83130  0.82800  Biso   1.000  H
  Co10     1.0000 0.55092  0.14523  0.11073  Biso   1.000  Co
  Co11     1.0000 0.38720  0.43925  0.88651  Biso   1.000  Co
  Co12     1.0000 0.46217  0.25414  0.99495  Biso   1.000  Co
  O40      1.0000 0.91919  0.32070  0.58770  Biso   1.000  O
  O41      1.0000 0.83465  0.44810  0.00440  Biso   1.000  O
  O42      1.0000 0.50969  0.33030  0.90730  Biso   1.000  O
  O43      1.0000 0.91794  0.38970  0.98940  Biso   1.000  O
  O44      1.0000 0.60647  0.19880  0.19490  Biso   1.000  O
  O45      1.0000 0.41334  0.18740  0.90640  Biso   1.000  O
  O46      1.0000 0.51870  0.37350  0.51540  Biso   1.000  O
  O47      1.0000 0.52362  0.29690  0.07890  Biso   1.000  O
  O48      1.0000 0.58938  0.41080  0.09720  Biso   1.000  O
  O49      1.0000 0.45597  0.41160  0.81460  Biso   1.000  O
  O50      1.0000 0.98275  0.36680  0.68280  Biso   1.000  O
  C55      1.0000 0.79210  0.37830  0.75690  Biso   1.000  C
  O51      1.0000 0.60737  0.36270  0.49030  Biso   1.000  O
  N7       1.0000 0.73736  0.37650  0.72480  Biso   1.000  N
  O52      1.0000 0.35381  0.30240  0.85710  Biso   1.000  O
  N8       1.0000 0.70026  0.37410  0.77990  Biso   1.000  N
  C56      1.0000 0.53730  0.37720  0.69120  Biso   1.000  C
  H25      1.0000 0.50100  0.37840  0.67220  Biso   1.000  H
  C57      1.0000 0.87080  0.41140  0.95840  Biso   1.000  C
  C58      1.0000 0.54220  0.38600  0.07650  Biso   1.000  C
  H26      1.0000 0.51860  0.43600  0.05780  Biso   1.000  H
  C59      1.0000 0.64560  0.37540  0.74670  Biso   1.000  C
  C60      1.0000 0.83370  0.36570  0.69850  Biso   1.000  C
  H27      1.0000 0.82490  0.35650  0.64220  Biso   1.000  H
  C61      1.0000 0.88890  0.36690  0.72360  Biso   1.000  C
  C62      1.0000 0.80460  0.39470  0.84140  Biso   1.000  C
  H28      1.0000 0.77660  0.40570  0.88020  Biso   1.000  H
  C63      1.0000 0.90140  0.38170  0.80790  Biso   1.000  C
  H29      1.0000 0.93800  0.38310  0.82520  Biso   1.000  H
  C64      1.0000 0.85950  0.39450  0.86680  Biso   1.000  C
  C65      1.0000 0.54790  0.37540  0.77660  Biso   1.000  C
  C66      1.0000 0.63430  0.37810  0.66080  Biso   1.000  C
  H30      1.0000 0.66300  0.38050  0.62200  Biso   1.000  H
  C67      1.0000 0.56840  0.37100  0.54190  Biso   1.000  C
  C68      1.0000 0.60270  0.37280  0.80440  Biso   1.000  C
  H31      1.0000 0.61030  0.36920  0.86160  Biso   1.000  H
  C69      1.0000 0.58020  0.37720  0.63360  Biso   1.000  C
  C70      1.0000 0.93380  0.35040  0.65970  Biso   1.000  C
  C71      1.0000 0.50080  0.37170  0.83780  Biso   1.000  C
  C72      1.0000 0.37360  0.21700  0.86170  Biso   1.000  C
  H32      1.0000 0.35710  0.16870  0.82800  Biso   1.000  H
  Co13     1.0000 0.44908  0.64523  0.61073  Biso   1.000  Co
  Co14     1.0000 0.61280  0.93925  0.38651  Biso   1.000  Co
  Co15     1.0000 0.53783  0.75414  0.49495  Biso   1.000  Co
  O53      1.0000 0.08081  0.82070  0.08770  Biso   1.000  O
  O54      1.0000 0.16535  0.94810  0.50440  Biso   1.000  O
  O55      1.0000 0.49031  0.83030  0.40730  Biso   1.000  O
  O56      1.0000 0.08206  0.88970  0.48940  Biso   1.000  O
  O57      1.0000 0.39353  0.69880  0.69490  Biso   1.000  O
  O58      1.0000 0.58666  0.68740  0.40640  Biso   1.000  O
  O59      1.0000 0.48130  0.87350  0.01540  Biso   1.000  O
  O60      1.0000 0.47638  0.79690  0.57890  Biso   1.000  O
  O61      1.0000 0.41062  0.91080  0.59720  Biso   1.000  O
  O62      1.0000 0.54403  0.91160  0.31460  Biso   1.000  O
  O63      1.0000 0.01725  0.86680  0.18280  Biso   1.000  O
  C73      1.0000 0.20790  0.87830  0.25690  Biso   1.000  C
  O64      1.0000 0.39263  0.86270  0.99030  Biso   1.000  O
  N9       1.0000 0.26264  0.87650  0.22480  Biso   1.000  N
  O65      1.0000 0.64619  0.80240  0.35710  Biso   1.000  O
  N10      1.0000 0.29974  0.87410  0.27990  Biso   1.000  N
  C74      1.0000 0.46270  0.87720  0.19120  Biso   1.000  C
  H33      1.0000 0.49900  0.87840  0.17220  Biso   1.000  H
  C75      1.0000 0.12920  0.91140  0.45840  Biso   1.000  C
  C76      1.0000 0.45780  0.88600  0.57650  Biso   1.000  C
  H34      1.0000 0.48140  0.93600  0.55780  Biso   1.000  H
  C77      1.0000 0.35440  0.87540  0.24670  Biso   1.000  C
  C78      1.0000 0.16630  0.86570  0.19850  Biso   1.000  C
  H35      1.0000 0.17510  0.85650  0.14220  Biso   1.000  H
  C79      1.0000 0.11110  0.86690  0.22360  Biso   1.000  C
  C80      1.0000 0.19540  0.89470  0.34140  Biso   1.000  C
  H36      1.0000 0.22340  0.90570  0.38020  Biso   1.000  H
  C81      1.0000 0.09860  0.88170  0.30790  Biso   1.000  C
  H37      1.0000 0.06200  0.88310  0.32520  Biso   1.000  H
  C82      1.0000 0.14050  0.89450  0.36680  Biso   1.000  C
  C83      1.0000 0.45210  0.87540  0.27660  Biso   1.000  C
  C84      1.0000 0.36570  0.87810  0.16080  Biso   1.000  C
  H38      1.0000 0.33700  0.88050  0.12200  Biso   1.000  H
  C85      1.0000 0.43160  0.87100  0.04190  Biso   1.000  C
  C86      1.0000 0.39730  0.87280  0.30440  Biso   1.000  C
  H39      1.0000 0.38970  0.86920  0.36160  Biso   1.000  H
  C87      1.0000 0.41980  0.87720  0.13360  Biso   1.000  C
  C88      1.0000 0.06620  0.85040  0.15970  Biso   1.000  C
  C89      1.0000 0.49920  0.87170  0.33780  Biso   1.000  C
  C90      1.0000 0.62640  0.71700  0.36170  Biso   1.000  C
  H40      1.0000 0.64290  0.66870  0.32800  Biso   1.000  H
  Co16     1.0000 0.05092  0.35477  0.61073  Biso   1.000  Co
  Co17     1.0000 0.88720  0.06075  0.38651  Biso   1.000  Co
  Co18     1.0000 0.96217  0.24586  0.49495  Biso   1.000  Co
  O66      1.0000 0.41919  0.17930  0.08770  Biso   1.000  O
  O67      1.0000 0.33465  0.05190  0.50440  Biso   1.000  O
  O68      1.0000 0.00969  0.16970  0.40730  Biso   1.000  O
  O69      1.0000 0.41794  0.11030  0.48940  Biso   1.000  O
  O70      1.0000 0.10647  0.30120  0.69490  Biso   1.000  O
  O71      1.0000 0.91334  0.31260  0.40640  Biso   1.000  O
  O72      1.0000 0.01870  0.12650  0.01540  Biso   1.000  O
  O73      1.0000 0.02362  0.20310  0.57890  Biso   1.000  O
  O74      1.0000 0.08938  0.08920  0.59720  Biso   1.000  O
  O75      1.0000 0.95597  0.08840  0.31460  Biso   1.000  O
  O76      1.0000 0.48275  0.13320  0.18280  Biso   1.000  O
  C91      1.0000 0.29210  0.12170  0.25690  Biso   1.000  C
  O77      1.0000 0.10737  0.13730  0.99030  Biso   1.000  O
  N11      1.0000 0.23736  0.12350  0.22480  Biso   1.000  N
  O78      1.0000 0.85381  0.19760  0.35710  Biso   1.000  O
  N12      1.0000 0.20026  0.12590  0.27990  Biso   1.000  N
  C92      1.0000 0.03730  0.12280  0.19120  Biso   1.000  C
  H41      1.0000 0.00100  0.12160  0.17220  Biso   1.000  H
  C93      1.0000 0.37080  0.08860  0.45840  Biso   1.000  C
  C94      1.0000 0.04220  0.11400  0.57650  Biso   1.000  C
  H42      1.0000 0.01860  0.06400  0.55780  Biso   1.000  H
  C95      1.0000 0.14560  0.12460  0.24670  Biso   1.000  C
  C96      1.0000 0.33370  0.13430  0.19850  Biso   1.000  C
  H43      1.0000 0.32490  0.14350  0.14220  Biso   1.000  H
  C97      1.0000 0.38890  0.13310  0.22360  Biso   1.000  C
  C98      1.0000 0.30460  0.10530  0.34140  Biso   1.000  C
  H44      1.0000 0.27660  0.09430  0.38020  Biso   1.000  H
  C99      1.0000 0.40140  0.11830  0.30790  Biso   1.000  C
  H45      1.0000 0.43800  0.11690  0.32520  Biso   1.000  H
  C100     1.0000 0.35950  0.10550  0.36680  Biso   1.000  C
  C101     1.0000 0.04790  0.12460  0.27660  Biso   1.000  C
  C102     1.0000 0.13430  0.12190  0.16080  Biso   1.000  C
  H46      1.0000 0.16300  0.11950  0.12200  Biso   1.000  H
  C103     1.0000 0.06840  0.12900  0.04190  Biso   1.000  C
  C104     1.0000 0.10270  0.12720  0.30440  Biso   1.000  C
  H47      1.0000 0.11030  0.13080  0.36160  Biso   1.000  H
  C105     1.0000 0.08020  0.12280  0.13360  Biso   1.000  C
  C106     1.0000 0.43380  0.14960  0.15970  Biso   1.000  C
  C107     1.0000 0.00080  0.12830  0.33780  Biso   1.000  C
  C108     1.0000 0.87360  0.28300  0.36170  Biso   1.000  C
  H48      1.0000 0.85710  0.33130  0.32800  Biso   1.000  H
  Co19     1.0000 0.05092  0.14523  0.88927  Biso   1.000  Co
  Co20     1.0000 0.88720  0.43925  0.11349  Biso   1.000  Co
  Co21     1.0000 0.96217  0.25414  0.00505  Biso   1.000  Co
  O79      1.0000 0.41919  0.32070  0.41230  Biso   1.000  O
  O80      1.0000 0.33465  0.44810  0.99560  Biso   1.000  O
  O81      1.0000 0.00969  0.33030  0.09270  Biso   1.000  O
  O82      1.0000 0.41794  0.38970  0.01060  Biso   1.000  O
  O83      1.0000 0.10647  0.19880  0.80510  Biso   1.000  O
  O84      1.0000 0.91334  0.18740  0.09360  Biso   1.000  O
  O85      1.0000 0.01870  0.37350  0.48460  Biso   1.000  O
  O86      1.0000 0.02362  0.29690  0.92110  Biso   1.000  O
  O87      1.0000 0.08938  0.41080  0.90280  Biso   1.000  O
  O88      1.0000 0.95597  0.41160  0.18540  Biso   1.000  O
  O89      1.0000 0.48275  0.36680  0.31720  Biso   1.000  O
  C109     1.0000 0.29210  0.37830  0.24310  Biso   1.000  C
  O90      1.0000 0.10737  0.36270  0.50970  Biso   1.000  O
  N13      1.0000 0.23736  0.37650  0.27520  Biso   1.000  N
  O91      1.0000 0.85381  0.30240  0.14290  Biso   1.000  O
  N14      1.0000 0.20026  0.37410  0.22010  Biso   1.000  N
  C110     1.0000 0.03730  0.37720  0.30880  Biso   1.000  C
  H49      1.0000 0.00100  0.37840  0.32780  Biso   1.000  H
  C111     1.0000 0.37080  0.41140  0.04160  Biso   1.000  C
  C112     1.0000 0.04220  0.38600  0.92350  Biso   1.000  C
  H50      1.0000 0.01860  0.43600  0.94220  Biso   1.000  H
  C113     1.0000 0.14560  0.37540  0.25330  Biso   1.000  C
  C114     1.0000 0.33370  0.36570  0.30150  Biso   1.000  C
  H51      1.0000 0.32490  0.35650  0.35780  Biso   1.000  H
  C115     1.0000 0.38890  0.36690  0.27640  Biso   1.000  C
  C116     1.0000 0.30460  0.39470  0.15860  Biso   1.000  C
  H52      1.0000 0.27660  0.40570  0.11980  Biso   1.000  H
  C117     1.0000 0.40140  0.38170  0.19210  Biso   1.000  C
  H53      1.0000 0.43800  0.38310  0.17480  Biso   1.000  H
  C118     1.0000 0.35950  0.39450  0.13320  Biso   1.000  C
  C119     1.0000 0.04790  0.37540  0.22340  Biso   1.000  C
  C120     1.0000 0.13430  0.37810  0.33920  Biso   1.000  C
  H54      1.0000 0.16300  0.38050  0.37800  Biso   1.000  H
  C121     1.0000 0.06840  0.37100  0.45810  Biso   1.000  C
  C122     1.0000 0.10270  0.37280  0.19560  Biso   1.000  C
  H55      1.0000 0.11030  0.36920  0.13840  Biso   1.000  H
  C123     1.0000 0.08020  0.37720  0.36640  Biso   1.000  C
  C124     1.0000 0.43380  0.35040  0.34030  Biso   1.000  C
  C125     1.0000 0.00080  0.37170  0.16220  Biso   1.000  C
  C126     1.0000 0.87360  0.21700  0.13830  Biso   1.000  C
  H56      1.0000 0.85710  0.16870  0.17200  Biso   1.000  H
  Co22     1.0000 0.44908  0.85477  0.88927  Biso   1.000  Co
  Co23     1.0000 0.61280  0.56075  0.11349  Biso   1.000  Co
  Co24     1.0000 0.53783  0.74586  0.00505  Biso   1.000  Co
  O92      1.0000 0.08081  0.67930  0.41230  Biso   1.000  O
  O93      1.0000 0.16535  0.55190  0.99560  Biso   1.000  O
  O94      1.0000 0.49031  0.66970  0.09270  Biso   1.000  O
  O95      1.0000 0.08206  0.61030  0.01060  Biso   1.000  O
  O96      1.0000 0.39353  0.80120  0.80510  Biso   1.000  O
  O97      1.0000 0.58666  0.81260  0.09360  Biso   1.000  O
  O98      1.0000 0.48130  0.62650  0.48460  Biso   1.000  O
  O99      1.0000 0.47638  0.70310  0.92110  Biso   1.000  O
  O100     1.0000 0.41062  0.58920  0.90280  Biso   1.000  O
  O101     1.0000 0.54403  0.58840  0.18540  Biso   1.000  O
  O102     1.0000 0.01725  0.63320  0.31720  Biso   1.000  O
  C127     1.0000 0.20790  0.62170  0.24310  Biso   1.000  C
  O103     1.0000 0.39263  0.63730  0.50970  Biso   1.000  O
  N15      1.0000 0.26264  0.62350  0.27520  Biso   1.000  N
  O104     1.0000 0.64619  0.69760  0.14290  Biso   1.000  O
  N16      1.0000 0.29974  0.62590  0.22010  Biso   1.000  N
  C128     1.0000 0.46270  0.62280  0.30880  Biso   1.000  C
  H57      1.0000 0.49900  0.62160  0.32780  Biso   1.000  H
  C129     1.0000 0.12920  0.58860  0.04160  Biso   1.000  C
  C130     1.0000 0.45780  0.61400  0.92350  Biso   1.000  C
  H58      1.0000 0.48140  0.56400  0.94220  Biso   1.000  H
  C131     1.0000 0.35440  0.62460  0.25330  Biso   1.000  C
  C132     1.0000 0.16630  0.63430  0.30150  Biso   1.000  C
  H59      1.0000 0.17510  0.64350  0.35780  Biso   1.000  H
  C133     1.0000 0.11110  0.63310  0.27640  Biso   1.000  C
  C134     1.0000 0.19540  0.60530  0.15860  Biso   1.000  C
  H60      1.0000 0.22340  0.59430  0.11980  Biso   1.000  H
  C135     1.0000 0.09860  0.61830  0.19210  Biso   1.000  C
  H61      1.0000 0.06200  0.61690  0.17480  Biso   1.000  H
  C136     1.0000 0.14050  0.60550  0.13320  Biso   1.000  C
  C137     1.0000 0.45210  0.62460  0.22340  Biso   1.000  C
  C138     1.0000 0.36570  0.62190  0.33920  Biso   1.000  C
  H62      1.0000 0.33700  0.61950  0.37800  Biso   1.000  H
  C139     1.0000 0.43160  0.62900  0.45810  Biso   1.000  C
  C140     1.0000 0.39730  0.62720  0.19560  Biso   1.000  C
  H63      1.0000 0.38970  0.63080  0.13840  Biso   1.000  H
  C141     1.0000 0.41980  0.62280  0.36640  Biso   1.000  C
  C142     1.0000 0.06620  0.64960  0.34030  Biso   1.000  C
  C143     1.0000 0.49920  0.62830  0.16220  Biso   1.000  C
  C144     1.0000 0.62640  0.78300  0.13830  Biso   1.000  C
  H64      1.0000 0.64290  0.83130  0.17200  Biso   1.000  H
  C145     1.0000 0.58410  0.25000  0.25000  Biso   1.000  C
  H65      1.0000 0.54580  0.25000  0.25000  Biso   1.000  H
  C146     1.0000 0.91590  0.75000  0.25000  Biso   1.000  C
  H66      1.0000 0.95420  0.75000  0.25000  Biso   1.000  H
  C147     1.0000 0.41590  0.75000  0.75000  Biso   1.000  C
  H67      1.0000 0.45420  0.75000  0.75000  Biso   1.000  H
  C148     1.0000 0.08410  0.25000  0.75000  Biso   1.000  C
  H68      1.0000 0.04580  0.25000  0.75000  Biso   1.000  H
