data_image0
_cell_length_a       4.5054
_cell_length_b       10.3354
_cell_length_c       10.8017
_cell_angle_alpha    77.933
_cell_angle_beta     79.23
_cell_angle_gamma    83.148

_symmetry_space_group_name_H-M    "P 1"
_symmetry_int_tables_number       1

loop_
  _symmetry_equiv_pos_as_xyz
  'x, y, z'

loop_
  _atom_site_label
  _atom_site_occupancy
  _atom_site_fract_x
  _atom_site_fract_y
  _atom_site_fract_z
  _atom_site_thermal_displace_type
  _atom_site_B_iso_or_equiv
  _atom_site_type_symbol
  Gd1      1.0000 0.17178  0.11326  0.57849  Biso   1.000  Gd
  O1       1.0000 0.78490  0.25200  0.68000  Biso   1.000  O
  O2       1.0000 0.36760  0.14300  0.75830  Biso   1.000  O
  O3       1.0000 0.05180  0.04940  0.24820  Biso   1.000  O
  O4       1.0000 0.71280  0.08990  0.49930  Biso   1.000  O
  O5       1.0000 0.24900  0.17750  0.34980  Biso   1.000  O
  N1       1.0000 0.92500  0.46820  0.04900  Biso   1.000  N
  C1       1.0000 0.57330  0.20890  0.76920  Biso   1.000  C
  C2       1.0000 0.57100  0.24140  0.89990  Biso   1.000  C
  C3       1.0000 0.75250  0.33660  0.90780  Biso   1.000  C
  H1       1.0000 0.87540  0.37780  0.83460  Biso   1.000  H
  C4       1.0000 0.75090  0.37080  0.02640  Biso   1.000  C
  C5       1.0000 0.57460  0.30390  0.13500  Biso   1.000  C
  H2       1.0000 0.57540  0.32520  0.21440  Biso   1.000  H
  C6       1.0000 0.39770  0.20610  0.12700  Biso   1.000  C
  C7       1.0000 0.39160  0.17500  0.00940  Biso   1.000  C
  H3       1.0000 0.27010  0.11080  0.00290  Biso   1.000  H
  C8       1.0000 0.21900  0.13690  0.25070  Biso   1.000  C
  Gd2      1.0000 0.82822  0.88674  0.42151  Biso   1.000  Gd
  O6       1.0000 0.21510  0.74800  0.32000  Biso   1.000  O
  O7       1.0000 0.63240  0.85700  0.24170  Biso   1.000  O
  O8       1.0000 0.94820  0.95060  0.75180  Biso   1.000  O
  O9       1.0000 0.28720  0.91010  0.50070  Biso   1.000  O
  O10      1.0000 0.75100  0.82250  0.65020  Biso   1.000  O
  N2       1.0000 0.07500  0.53180  0.95100  Biso   1.000  N
  C9       1.0000 0.42670  0.79110  0.23080  Biso   1.000  C
  C10      1.0000 0.42900  0.75860  0.10010  Biso   1.000  C
  C11      1.0000 0.24750  0.66340  0.09220  Biso   1.000  C
  H4       1.0000 0.12460  0.62220  0.16540  Biso   1.000  H
  C12      1.0000 0.24910  0.62920  0.97360  Biso   1.000  C
  C13      1.0000 0.42540  0.69610  0.86500  Biso   1.000  C
  H5       1.0000 0.42460  0.67480  0.78560  Biso   1.000  H
  C14      1.0000 0.60230  0.79390  0.87300  Biso   1.000  C
  C15      1.0000 0.60840  0.82500  0.99060  Biso   1.000  C
  H6       1.0000 0.72990  0.88920  0.99710  Biso   1.000  H
  C16      1.0000 0.78100  0.86310  0.74930  Biso   1.000  C
