data_DUFGOB_clean
_audit_creation_date              2014-07-02
_audit_creation_method            'Materials Studio'
_symmetry_space_group_name_H-M    'P1'
_symmetry_Int_Tables_number       1
_symmetry_cell_setting            triclinic
loop_
_symmetry_equiv_pos_as_xyz
  x,y,z
_cell_length_a                    11.7341
_cell_length_b                    17.5189
_cell_length_c                    20.1579
_cell_angle_alpha                 99.5100
_cell_angle_beta                  90.0000
_cell_angle_gamma                 90.0000
loop_
_atom_site_label
_atom_site_type_symbol
_atom_site_fract_x
_atom_site_fract_y
_atom_site_fract_z
_atom_site_U_iso_or_equiv
_atom_site_adp_type
_atom_site_occupancy
K1     K     0.31190   0.59228   0.45430   0.01267  Uiso   1.00
K2     K     0.45040   0.94020   0.53456   0.01267  Uiso   1.00
K3     K     0.26020   0.01320   0.97086   0.01267  Uiso   1.00
K4     K     0.81190   0.40772   0.54570   0.01267  Uiso   1.00
K5     K     0.95040   0.05980   0.46544   0.01267  Uiso   1.00
K6     K     0.76020   0.98680   0.02914   0.01267  Uiso   1.00
U1     U     0.36631   0.96676   0.75381   0.01267  Uiso   1.00
U2     U     0.86631   0.03324   0.24619   0.01267  Uiso   1.00
H1     H     0.09390   0.96150   0.81610   0.01267  Uiso   1.00
H2     H     0.90270   0.96700   0.79790   0.01267  Uiso   1.00
H3     H     0.83910   0.96270   0.68450   0.01267  Uiso   1.00
H4     H     0.97740   0.96990   0.60300   0.01267  Uiso   1.00
H5     H     0.16560   0.96870   0.62850   0.01267  Uiso   1.00
H6     H     0.29650   0.81540   0.83270   0.01267  Uiso   1.00
H7     H     0.27400   0.68060   0.82040   0.01267  Uiso   1.00
H8     H     0.27810   0.61010   0.71640   0.01267  Uiso   1.00
H9     H     0.29250   0.67040   0.62020   0.01267  Uiso   1.00
H10    H     0.31360   0.80520   0.63870   0.01267  Uiso   1.00
H11    H     0.57900   0.84810   0.67670   0.01267  Uiso   1.00
H12    H     0.74650   0.78360   0.69050   0.01267  Uiso   1.00
H13    H     0.80820   0.77740   0.80060   0.01267  Uiso   1.00
H14    H     0.69300   0.83700   0.89140   0.01267  Uiso   1.00
H15    H     0.53690   0.90210   0.86910   0.01267  Uiso   1.00
H16    H     0.59150   0.05170   0.68400   0.01267  Uiso   1.00
H17    H     0.75620   0.12140   0.70020   0.01267  Uiso   1.00
H18    H     0.81030   0.16700   0.81100   0.01267  Uiso   1.00
H19    H     0.70380   0.13370   0.89910   0.01267  Uiso   1.00
H20    H     0.54250   0.06490   0.87610   0.01267  Uiso   1.00
H21    H     0.31760   0.10690   0.66480   0.01267  Uiso   1.00
H22    H     0.30490   0.22760   0.64860   0.01267  Uiso   1.00
H23    H     0.31800   0.31500   0.75060   0.01267  Uiso   1.00
H24    H     0.31540   0.27570   0.85420   0.01267  Uiso   1.00
H25    H     0.31420   0.14160   0.85970   0.01267  Uiso   1.00
H26    H     0.59390   0.03850   0.18390   0.01267  Uiso   1.00
H27    H     0.40270   0.03300   0.20210   0.01267  Uiso   1.00
H28    H     0.33910   0.03730   0.31550   0.01267  Uiso   1.00
H29    H     0.47740   0.03010   0.39700   0.01267  Uiso   1.00
H30    H     0.66560   0.03130   0.37150   0.01267  Uiso   1.00
H31    H     0.79650   0.18460   0.16730   0.01267  Uiso   1.00
H32    H     0.77400   0.31940   0.17960   0.01267  Uiso   1.00
H33    H     0.77810   0.38990   0.28360   0.01267  Uiso   1.00
H34    H     0.79250   0.32960   0.37980   0.01267  Uiso   1.00
H35    H     0.81360   0.19480   0.36130   0.01267  Uiso   1.00
H36    H     0.07900   0.15190   0.32330   0.01267  Uiso   1.00
H37    H     0.24650   0.21640   0.30950   0.01267  Uiso   1.00
H38    H     0.30820   0.22260   0.19940   0.01267  Uiso   1.00
H39    H     0.19300   0.16300   0.10860   0.01267  Uiso   1.00
H40    H     0.03690   0.09790   0.13090   0.01267  Uiso   1.00
H41    H     0.09150   0.94830   0.31600   0.01267  Uiso   1.00
H42    H     0.25620   0.87860   0.29980   0.01267  Uiso   1.00
H43    H     0.31030   0.83300   0.18900   0.01267  Uiso   1.00
H44    H     0.20380   0.86630   0.10090   0.01267  Uiso   1.00
H45    H     0.04250   0.93510   0.12390   0.01267  Uiso   1.00
H46    H     0.81760   0.89310   0.33520   0.01267  Uiso   1.00
H47    H     0.80490   0.77240   0.35140   0.01267  Uiso   1.00
H48    H     0.81800   0.68500   0.24940   0.01267  Uiso   1.00
H49    H     0.81540   0.72430   0.14580   0.01267  Uiso   1.00
H50    H     0.81420   0.85840   0.14030   0.01267  Uiso   1.00
C1     C     0.06920   0.96420   0.77270   0.01267  Uiso   1.00
C2     C     0.95400   0.96570   0.76250   0.01267  Uiso   1.00
C3     C     0.91620   0.96500   0.69540   0.01267  Uiso   1.00
C4     C     0.99920   0.96790   0.64700   0.01267  Uiso   1.00
C5     C     0.11230   0.96770   0.66250   0.01267  Uiso   1.00
C6     C     0.29630   0.78560   0.79000   0.01267  Uiso   1.00
C7     C     0.28320   0.70460   0.78290   0.01267  Uiso   1.00
C8     C     0.28420   0.66370   0.72150   0.01267  Uiso   1.00
C9     C     0.29410   0.69890   0.66340   0.01267  Uiso   1.00
C10    C     0.30650   0.77920   0.67520   0.01267  Uiso   1.00
C11    C     0.60370   0.84650   0.72020   0.01267  Uiso   1.00
C12    C     0.70490   0.80670   0.72770   0.01267  Uiso   1.00
C13    C     0.74120   0.80300   0.79290   0.01267  Uiso   1.00
C14    C     0.67300   0.83930   0.84710   0.01267  Uiso   1.00
C15    C     0.57950   0.87700   0.83310   0.01267  Uiso   1.00
C16    C     0.61530   0.06920   0.72790   0.01267  Uiso   1.00
C17    C     0.71330   0.11090   0.73650   0.01267  Uiso   1.00
C18    C     0.74520   0.13670   0.80200   0.01267  Uiso   1.00
C19    C     0.68110   0.11790   0.85470   0.01267  Uiso   1.00
C20    C     0.58580   0.07650   0.84040   0.01267  Uiso   1.00
C21    C     0.31510   0.14420   0.70340   0.01267  Uiso   1.00
C22    C     0.31040   0.21320   0.69090   0.01267  Uiso   1.00
C23    C     0.31490   0.26220   0.75160   0.01267  Uiso   1.00
C24    C     0.31530   0.23900   0.81510   0.01267  Uiso   1.00
C25    C     0.31560   0.15960   0.81880   0.01267  Uiso   1.00
C26    C     0.61000   0.61160   0.54430   0.01267  Uiso   1.00
C27    C     0.11850   0.81800   0.46160   0.01267  Uiso   1.00
C28    C     0.74200   0.82050   0.52100   0.01267  Uiso   1.00
C29    C     0.95600   0.18180   0.99740   0.01267  Uiso   1.00
C30    C     0.56920   0.03580   0.22730   0.01267  Uiso   1.00
C31    C     0.45400   0.03430   0.23750   0.01267  Uiso   1.00
C32    C     0.41620   0.03500   0.30460   0.01267  Uiso   1.00
C33    C     0.49920   0.03210   0.35300   0.01267  Uiso   1.00
C34    C     0.61230   0.03230   0.33750   0.01267  Uiso   1.00
C35    C     0.79630   0.21440   0.21000   0.01267  Uiso   1.00
C36    C     0.78320   0.29540   0.21710   0.01267  Uiso   1.00
C37    C     0.78420   0.33630   0.27850   0.01267  Uiso   1.00
C38    C     0.79410   0.30110   0.33660   0.01267  Uiso   1.00
C39    C     0.80650   0.22080   0.32480   0.01267  Uiso   1.00
C40    C     0.10370   0.15350   0.27980   0.01267  Uiso   1.00
C41    C     0.20490   0.19330   0.27230   0.01267  Uiso   1.00
C42    C     0.24120   0.19700   0.20710   0.01267  Uiso   1.00
C43    C     0.17300   0.16070   0.15290   0.01267  Uiso   1.00
C44    C     0.07950   0.12300   0.16690   0.01267  Uiso   1.00
C45    C     0.11530   0.93080   0.27210   0.01267  Uiso   1.00
C46    C     0.21330   0.88910   0.26350   0.01267  Uiso   1.00
C47    C     0.24520   0.86330   0.19800   0.01267  Uiso   1.00
C48    C     0.18110   0.88210   0.14530   0.01267  Uiso   1.00
C49    C     0.08580   0.92350   0.15960   0.01267  Uiso   1.00
C50    C     0.81510   0.85580   0.29660   0.01267  Uiso   1.00
C51    C     0.81040   0.78680   0.30910   0.01267  Uiso   1.00
C52    C     0.81490   0.73780   0.24840   0.01267  Uiso   1.00
C53    C     0.81530   0.76100   0.18490   0.01267  Uiso   1.00
C54    C     0.81560   0.84040   0.18120   0.01267  Uiso   1.00
C55    C     0.11000   0.38840   0.45570   0.01267  Uiso   1.00
C56    C     0.61850   0.18200   0.53840   0.01267  Uiso   1.00
C57    C     0.24200   0.17950   0.47900   0.01267  Uiso   1.00
C58    C     0.45600   0.81820   0.00260   0.01267  Uiso   1.00
S1     S     0.57620   0.50710   0.53067   0.01267  Uiso   1.00
S2     S     0.26380   0.78730   0.45710   0.01267  Uiso   1.00
S3     S     0.72590   0.92035   0.51168   0.01267  Uiso   1.00
S4     S     0.99120   0.09550   0.96260   0.01267  Uiso   1.00
S5     S     0.07620   0.49290   0.46933   0.01267  Uiso   1.00
S6     S     0.76380   0.21270   0.54290   0.01267  Uiso   1.00
S7     S     0.22590   0.07965   0.48832   0.01267  Uiso   1.00
S8     S     0.49120   0.90450   0.03740   0.01267  Uiso   1.00
N1     N     0.14940   0.96630   0.72600   0.01267  Uiso   1.00
N2     N     0.30830   0.81940   0.73670   0.01267  Uiso   1.00
N3     N     0.54140   0.88140   0.76940   0.01267  Uiso   1.00
N4     N     0.54930   0.05100   0.77840   0.01267  Uiso   1.00
N5     N     0.31790   0.11190   0.76030   0.01267  Uiso   1.00
N6     N     0.64940   0.03370   0.27400   0.01267  Uiso   1.00
N7     N     0.80830   0.18060   0.26330   0.01267  Uiso   1.00
N8     N     0.04140   0.11860   0.23060   0.01267  Uiso   1.00
N9     N     0.04930   0.94900   0.22160   0.01267  Uiso   1.00
N10    N     0.81790   0.88810   0.23970   0.01267  Uiso   1.00
O1     O     0.39620   0.95730   0.66410   0.01267  Uiso   1.00
O2     O     0.33300   0.97510   0.84410   0.01267  Uiso   1.00
O3     O     0.45670   0.50720   0.51480   0.01267  Uiso   1.00
O4     O     0.64550   0.47320   0.47510   0.01267  Uiso   1.00
O5     O     0.60860   0.48370   0.59410   0.01267  Uiso   1.00
O6     O     0.27010   0.72710   0.40040   0.01267  Uiso   1.00
O7     O     0.31700   0.78700   0.51980   0.01267  Uiso   1.00
O8     O     0.32180   0.85280   0.43280   0.01267  Uiso   1.00
O9     O     0.64340   0.92000   0.45890   0.01267  Uiso   1.00
O10    O     0.68690   0.95400   0.57600   0.01267  Uiso   1.00
O11    O     0.84150   0.94030   0.49600   0.01267  Uiso   1.00
O12    O     0.03990   0.05600   0.01530   0.01267  Uiso   1.00
O13    O     0.05560   0.09280   0.90490   0.01267  Uiso   1.00
O14    O     0.88510   0.05630   0.94780   0.01267  Uiso   1.00
O15    O     0.89620   0.04270   0.33590   0.01267  Uiso   1.00
O16    O     0.83300   0.02490   0.15590   0.01267  Uiso   1.00
O17    O     0.95670   0.49280   0.48520   0.01267  Uiso   1.00
O18    O     0.14550   0.52680   0.52490   0.01267  Uiso   1.00
O19    O     0.10860   0.51630   0.40590   0.01267  Uiso   1.00
O20    O     0.77010   0.27290   0.59960   0.01267  Uiso   1.00
O21    O     0.81700   0.21300   0.48020   0.01267  Uiso   1.00
O22    O     0.82180   0.14720   0.56720   0.01267  Uiso   1.00
O23    O     0.14340   0.08000   0.54110   0.01267  Uiso   1.00
O24    O     0.18690   0.04600   0.42400   0.01267  Uiso   1.00
O25    O     0.34150   0.05970   0.50400   0.01267  Uiso   1.00
O26    O     0.53990   0.94400   0.98470   0.01267  Uiso   1.00
O27    O     0.55560   0.90720   0.09510   0.01267  Uiso   1.00
O28    O     0.38510   0.94370   0.05220   0.01267  Uiso   1.00
F1     F     0.57650   0.63940   0.48990   0.01267  Uiso   1.00
F2     F     0.55550   0.64860   0.59630   0.01267  Uiso   1.00
F3     F     0.72020   0.62230   0.55360   0.01267  Uiso   1.00
F4     F     0.06480   0.77380   0.48580   0.01267  Uiso   1.00
F5     F     0.08180   0.84300   0.41140   0.01267  Uiso   1.00
F6     F     0.12100   0.88530   0.51040   0.01267  Uiso   1.00
F7     F     0.81770   0.81100   0.56760   0.01267  Uiso   1.00
F8     F     0.78200   0.77680   0.46620   0.01267  Uiso   1.00
F9     F     0.64100   0.79380   0.54040   0.01267  Uiso   1.00
F10    F     0.89390   0.18490   0.05160   0.01267  Uiso   1.00
F11    F     0.03760   0.22620   0.01790   0.01267  Uiso   1.00
F12    F     0.89160   0.22470   0.95220   0.01267  Uiso   1.00
F13    F     0.07650   0.36060   0.51010   0.01267  Uiso   1.00
F14    F     0.05550   0.35140   0.40370   0.01267  Uiso   1.00
F15    F     0.22020   0.37770   0.44640   0.01267  Uiso   1.00
F16    F     0.56480   0.22620   0.51420   0.01267  Uiso   1.00
F17    F     0.58180   0.15700   0.58860   0.01267  Uiso   1.00
F18    F     0.62100   0.11470   0.48960   0.01267  Uiso   1.00
F19    F     0.31770   0.18900   0.43240   0.01267  Uiso   1.00
F20    F     0.28200   0.22320   0.53380   0.01267  Uiso   1.00
F21    F     0.14100   0.20620   0.45960   0.01267  Uiso   1.00
F22    F     0.39390   0.81510   0.94840   0.01267  Uiso   1.00
F23    F     0.53760   0.77380   0.98210   0.01267  Uiso   1.00
F24    F     0.39160   0.77530   0.04780   0.01267  Uiso   1.00
