data_image0
_cell_length_a       7.1834
_cell_length_b       22.367
_cell_length_c       8.4852
_cell_angle_alpha    90
_cell_angle_beta     90
_cell_angle_gamma    90

_symmetry_space_group_name_H-M    "P 1"
_symmetry_int_tables_number       1

loop_
  _symmetry_equiv_pos_as_xyz
  'x, y, z'

loop_
  _atom_site_label
  _atom_site_occupancy
  _atom_site_fract_x
  _atom_site_fract_y
  _atom_site_fract_z
  _atom_site_thermal_displace_type
  _atom_site_B_iso_or_equiv
  _atom_site_type_symbol
  O1       1.0000 0.08330  0.68540  0.02470  Biso   1.000  O
  O2       1.0000 0.08330  0.18540  0.52470  Biso   1.000  O
  O3       1.0000 0.91670  0.31460  0.02470  Biso   1.000  O
  O4       1.0000 0.91670  0.81460  0.52470  Biso   1.000  O
  O5       1.0000 0.58330  0.31460  0.02470  Biso   1.000  O
  O6       1.0000 0.58330  0.81460  0.52470  Biso   1.000  O
  O7       1.0000 0.41670  0.68540  0.02470  Biso   1.000  O
  O8       1.0000 0.41670  0.18540  0.52470  Biso   1.000  O
  Sr1      1.0000 0.25000  0.81749  0.42428  Biso   1.000  Sr
  S1       1.0000 0.25000  0.68077  0.12030  Biso   1.000  S
  O9       1.0000 0.25000  0.72070  0.25350  Biso   1.000  O
  O10      1.0000 0.25000  0.39460  0.14610  Biso   1.000  O
  O11      1.0000 0.25000  0.44380  0.92490  Biso   1.000  O
  O12      1.0000 0.25000  0.47810  0.64590  Biso   1.000  O
  H1       1.0000 0.25000  0.47610  0.74240  Biso   1.000  H
  O13      1.0000 0.25000  0.57510  0.69880  Biso   1.000  O
  C1       1.0000 0.25000  0.44280  0.07080  Biso   1.000  C
  C2       1.0000 0.25000  0.53380  0.60270  Biso   1.000  C
  C3       1.0000 0.25000  0.60680  0.20320  Biso   1.000  C
  C4       1.0000 0.25000  0.55680  0.09990  Biso   1.000  C
  H2       1.0000 0.25000  0.56180  0.99110  Biso   1.000  H
  C5       1.0000 0.25000  0.49970  0.16780  Biso   1.000  C
  C6       1.0000 0.25000  0.49330  0.32960  Biso   1.000  C
  H3       1.0000 0.25000  0.45500  0.37270  Biso   1.000  H
  C7       1.0000 0.25000  0.54320  0.43100  Biso   1.000  C
  C8       1.0000 0.25000  0.59990  0.36330  Biso   1.000  C
  H4       1.0000 0.25000  0.63350  0.42780  Biso   1.000  H
  Sr2      1.0000 0.25000  0.31749  0.92428  Biso   1.000  Sr
  S2       1.0000 0.25000  0.18077  0.62030  Biso   1.000  S
  O14      1.0000 0.25000  0.22070  0.75350  Biso   1.000  O
  O15      1.0000 0.25000  0.89460  0.64610  Biso   1.000  O
  O16      1.0000 0.25000  0.94380  0.42490  Biso   1.000  O
  O17      1.0000 0.25000  0.97810  0.14590  Biso   1.000  O
  H5       1.0000 0.25000  0.97610  0.24240  Biso   1.000  H
  O18      1.0000 0.25000  0.07510  0.19880  Biso   1.000  O
  C9       1.0000 0.25000  0.94280  0.57080  Biso   1.000  C
  C10      1.0000 0.25000  0.03380  0.10270  Biso   1.000  C
  C11      1.0000 0.25000  0.10680  0.70320  Biso   1.000  C
  C12      1.0000 0.25000  0.05680  0.59990  Biso   1.000  C
  H6       1.0000 0.25000  0.06180  0.49110  Biso   1.000  H
  C13      1.0000 0.25000  0.99970  0.66780  Biso   1.000  C
  C14      1.0000 0.25000  0.99330  0.82960  Biso   1.000  C
  H7       1.0000 0.25000  0.95500  0.87270  Biso   1.000  H
  C15      1.0000 0.25000  0.04320  0.93100  Biso   1.000  C
  C16      1.0000 0.25000  0.09990  0.86330  Biso   1.000  C
  H8       1.0000 0.25000  0.13350  0.92780  Biso   1.000  H
  Sr3      1.0000 0.75000  0.18251  0.42428  Biso   1.000  Sr
  S3       1.0000 0.75000  0.31923  0.12030  Biso   1.000  S
  O19      1.0000 0.75000  0.27930  0.25350  Biso   1.000  O
  O20      1.0000 0.75000  0.60540  0.14610  Biso   1.000  O
  O21      1.0000 0.75000  0.55620  0.92490  Biso   1.000  O
  O22      1.0000 0.75000  0.52190  0.64590  Biso   1.000  O
  H9       1.0000 0.75000  0.52390  0.74240  Biso   1.000  H
  O23      1.0000 0.75000  0.42490  0.69880  Biso   1.000  O
  C17      1.0000 0.75000  0.55720  0.07080  Biso   1.000  C
  C18      1.0000 0.75000  0.46620  0.60270  Biso   1.000  C
  C19      1.0000 0.75000  0.39320  0.20320  Biso   1.000  C
  C20      1.0000 0.75000  0.44320  0.09990  Biso   1.000  C
  H10      1.0000 0.75000  0.43820  0.99110  Biso   1.000  H
  C21      1.0000 0.75000  0.50030  0.16780  Biso   1.000  C
  C22      1.0000 0.75000  0.50670  0.32960  Biso   1.000  C
  H11      1.0000 0.75000  0.54500  0.37270  Biso   1.000  H
  C23      1.0000 0.75000  0.45680  0.43100  Biso   1.000  C
  C24      1.0000 0.75000  0.40010  0.36330  Biso   1.000  C
  H12      1.0000 0.75000  0.36650  0.42780  Biso   1.000  H
  Sr4      1.0000 0.75000  0.68251  0.92428  Biso   1.000  Sr
  S4       1.0000 0.75000  0.81923  0.62030  Biso   1.000  S
  O24      1.0000 0.75000  0.77930  0.75350  Biso   1.000  O
  O25      1.0000 0.75000  0.10540  0.64610  Biso   1.000  O
  O26      1.0000 0.75000  0.05620  0.42490  Biso   1.000  O
  O27      1.0000 0.75000  0.02190  0.14590  Biso   1.000  O
  H13      1.0000 0.75000  0.02390  0.24240  Biso   1.000  H
  O28      1.0000 0.75000  0.92490  0.19880  Biso   1.000  O
  C25      1.0000 0.75000  0.05720  0.57080  Biso   1.000  C
  C26      1.0000 0.75000  0.96620  0.10270  Biso   1.000  C
  C27      1.0000 0.75000  0.89320  0.70320  Biso   1.000  C
  C28      1.0000 0.75000  0.94320  0.59990  Biso   1.000  C
  H14      1.0000 0.75000  0.93820  0.49110  Biso   1.000  H
  C29      1.0000 0.75000  0.00030  0.66780  Biso   1.000  C
  C30      1.0000 0.75000  0.00670  0.82960  Biso   1.000  C
  H15      1.0000 0.75000  0.04500  0.87270  Biso   1.000  H
  C31      1.0000 0.75000  0.95680  0.93100  Biso   1.000  C
  C32      1.0000 0.75000  0.90010  0.86330  Biso   1.000  C
  H16      1.0000 0.75000  0.86650  0.92780  Biso   1.000  H
