data_DUGBAJ_clean
_audit_creation_date              2014-07-02
_audit_creation_method            'Materials Studio'
_symmetry_space_group_name_H-M    'P1'
_symmetry_Int_Tables_number       1
_symmetry_cell_setting            triclinic
loop_
_symmetry_equiv_pos_as_xyz
  x,y,z
_cell_length_a                    15.1990
_cell_length_b                    15.1990
_cell_length_c                    15.5890
_cell_angle_alpha                 90.0000
_cell_angle_beta                  90.0000
_cell_angle_gamma                 120.0000
loop_
_atom_site_label
_atom_site_type_symbol
_atom_site_fract_x
_atom_site_fract_y
_atom_site_fract_z
_atom_site_U_iso_or_equiv
_atom_site_adp_type
_atom_site_occupancy
Tb1    Tb    0.66667   0.33334   0.75000   0.01267  Uiso   1.00
Tb2    Tb    0.33333   0.66666   0.75000   0.01267  Uiso   1.00
Tb3    Tb    0.33333   0.66666   0.25000   0.01267  Uiso   1.00
Tb4    Tb    0.66667   0.33334   0.25000   0.01267  Uiso   1.00
Fe1    Fe    0.50000   0.00000   0.00000   0.01267  Uiso   1.00
Fe2    Fe    0.50000   0.50000   0.00000   0.01267  Uiso   1.00
Fe3    Fe    0.00000   0.50000   0.00000   0.01267  Uiso   1.00
Fe4    Fe    0.50000   0.00000   0.50000   0.01267  Uiso   1.00
Fe5    Fe    0.00000   0.50000   0.50000   0.01267  Uiso   1.00
Fe6    Fe    0.50000   0.50000   0.50000   0.01267  Uiso   1.00
H1     H     0.28790   0.05550   0.84470   0.01267  Uiso   1.00
H2     H     0.76760   0.71210   0.84470   0.01267  Uiso   1.00
H3     H     0.94450   0.23240   0.84470   0.01267  Uiso   1.00
H4     H     0.71210   0.94450   0.84470   0.01267  Uiso   1.00
H5     H     0.23240   0.28790   0.84470   0.01267  Uiso   1.00
H6     H     0.05550   0.76760   0.84470   0.01267  Uiso   1.00
H7     H     0.23240   0.94450   0.65530   0.01267  Uiso   1.00
H8     H     0.05550   0.28790   0.65530   0.01267  Uiso   1.00
H9     H     0.71210   0.76760   0.65530   0.01267  Uiso   1.00
H10    H     0.76760   0.05550   0.65530   0.01267  Uiso   1.00
H11    H     0.94450   0.71210   0.65530   0.01267  Uiso   1.00
H12    H     0.28790   0.23240   0.65530   0.01267  Uiso   1.00
H13    H     0.71210   0.94450   0.15530   0.01267  Uiso   1.00
H14    H     0.23240   0.28790   0.15530   0.01267  Uiso   1.00
H15    H     0.05550   0.76760   0.15530   0.01267  Uiso   1.00
H16    H     0.28790   0.05550   0.15530   0.01267  Uiso   1.00
H17    H     0.76760   0.71210   0.15530   0.01267  Uiso   1.00
H18    H     0.94450   0.23240   0.15530   0.01267  Uiso   1.00
H19    H     0.76760   0.05550   0.34470   0.01267  Uiso   1.00
H20    H     0.94450   0.71210   0.34470   0.01267  Uiso   1.00
H21    H     0.28790   0.23240   0.34470   0.01267  Uiso   1.00
H22    H     0.23240   0.94450   0.34470   0.01267  Uiso   1.00
H23    H     0.05550   0.28790   0.34470   0.01267  Uiso   1.00
H24    H     0.71210   0.76760   0.34470   0.01267  Uiso   1.00
H25    H     0.19870   0.09935   0.75000   0.01267  Uiso   1.00
H26    H     0.90065   0.80130   0.75000   0.01267  Uiso   1.00
H27    H     0.90065   0.09935   0.75000   0.01267  Uiso   1.00
H28    H     0.80130   0.90065   0.75000   0.01267  Uiso   1.00
H29    H     0.09935   0.19870   0.75000   0.01267  Uiso   1.00
H30    H     0.09935   0.90065   0.75000   0.01267  Uiso   1.00
H31    H     0.80130   0.90065   0.25000   0.01267  Uiso   1.00
H32    H     0.09935   0.19870   0.25000   0.01267  Uiso   1.00
H33    H     0.09935   0.90065   0.25000   0.01267  Uiso   1.00
H34    H     0.19870   0.09935   0.25000   0.01267  Uiso   1.00
H35    H     0.90065   0.80130   0.25000   0.01267  Uiso   1.00
H36    H     0.90065   0.09935   0.25000   0.01267  Uiso   1.00
C1     C     0.32220   0.10850   0.80600   0.01267  Uiso   1.00
C2     C     0.42640   0.16170   0.80390   0.01267  Uiso   1.00
C3     C     0.49180   0.13890   0.86120   0.01267  Uiso   1.00
C4     C     0.78630   0.67780   0.80600   0.01267  Uiso   1.00
C5     C     0.73530   0.57360   0.80390   0.01267  Uiso   1.00
C6     C     0.64710   0.50820   0.86120   0.01267  Uiso   1.00
C7     C     0.89150   0.21370   0.80600   0.01267  Uiso   1.00
C8     C     0.83830   0.26470   0.80390   0.01267  Uiso   1.00
C9     C     0.86110   0.35290   0.86120   0.01267  Uiso   1.00
C10    C     0.67780   0.89150   0.80600   0.01267  Uiso   1.00
C11    C     0.57360   0.83830   0.80390   0.01267  Uiso   1.00
C12    C     0.50820   0.86110   0.86120   0.01267  Uiso   1.00
C13    C     0.21370   0.32220   0.80600   0.01267  Uiso   1.00
C14    C     0.26470   0.42640   0.80390   0.01267  Uiso   1.00
C15    C     0.35290   0.49180   0.86120   0.01267  Uiso   1.00
C16    C     0.10850   0.78630   0.80600   0.01267  Uiso   1.00
C17    C     0.16170   0.73530   0.80390   0.01267  Uiso   1.00
C18    C     0.13890   0.64710   0.86120   0.01267  Uiso   1.00
C19    C     0.21370   0.89150   0.69400   0.01267  Uiso   1.00
C20    C     0.26470   0.83830   0.69610   0.01267  Uiso   1.00
C21    C     0.35290   0.86110   0.63880   0.01267  Uiso   1.00
C22    C     0.10850   0.32220   0.69400   0.01267  Uiso   1.00
C23    C     0.16170   0.42640   0.69610   0.01267  Uiso   1.00
C24    C     0.13890   0.49180   0.63880   0.01267  Uiso   1.00
C25    C     0.67780   0.78630   0.69400   0.01267  Uiso   1.00
C26    C     0.57360   0.73530   0.69610   0.01267  Uiso   1.00
C27    C     0.50820   0.64710   0.63880   0.01267  Uiso   1.00
C28    C     0.78630   0.10850   0.69400   0.01267  Uiso   1.00
C29    C     0.73530   0.16170   0.69610   0.01267  Uiso   1.00
C30    C     0.64710   0.13890   0.63880   0.01267  Uiso   1.00
C31    C     0.89150   0.67780   0.69400   0.01267  Uiso   1.00
C32    C     0.83830   0.57360   0.69610   0.01267  Uiso   1.00
C33    C     0.86110   0.50820   0.63880   0.01267  Uiso   1.00
C34    C     0.32220   0.21370   0.69400   0.01267  Uiso   1.00
C35    C     0.42640   0.26470   0.69610   0.01267  Uiso   1.00
C36    C     0.49180   0.35290   0.63880   0.01267  Uiso   1.00
C37    C     0.67780   0.89150   0.19400   0.01267  Uiso   1.00
C38    C     0.57360   0.83830   0.19610   0.01267  Uiso   1.00
C39    C     0.50820   0.86110   0.13880   0.01267  Uiso   1.00
C40    C     0.21370   0.32220   0.19400   0.01267  Uiso   1.00
C41    C     0.26470   0.42640   0.19610   0.01267  Uiso   1.00
C42    C     0.35290   0.49180   0.13880   0.01267  Uiso   1.00
C43    C     0.10850   0.78630   0.19400   0.01267  Uiso   1.00
C44    C     0.16170   0.73530   0.19610   0.01267  Uiso   1.00
C45    C     0.13890   0.64710   0.13880   0.01267  Uiso   1.00
C46    C     0.32220   0.10850   0.19400   0.01267  Uiso   1.00
C47    C     0.42640   0.16170   0.19610   0.01267  Uiso   1.00
C48    C     0.49180   0.13890   0.13880   0.01267  Uiso   1.00
C49    C     0.78630   0.67780   0.19400   0.01267  Uiso   1.00
C50    C     0.73530   0.57360   0.19610   0.01267  Uiso   1.00
C51    C     0.64710   0.50820   0.13880   0.01267  Uiso   1.00
C52    C     0.89150   0.21370   0.19400   0.01267  Uiso   1.00
C53    C     0.83830   0.26470   0.19610   0.01267  Uiso   1.00
C54    C     0.86110   0.35290   0.13880   0.01267  Uiso   1.00
C55    C     0.78630   0.10850   0.30600   0.01267  Uiso   1.00
C56    C     0.73530   0.16170   0.30390   0.01267  Uiso   1.00
C57    C     0.64710   0.13890   0.36120   0.01267  Uiso   1.00
C58    C     0.89150   0.67780   0.30600   0.01267  Uiso   1.00
C59    C     0.83830   0.57360   0.30390   0.01267  Uiso   1.00
C60    C     0.86110   0.50820   0.36120   0.01267  Uiso   1.00
C61    C     0.32220   0.21370   0.30600   0.01267  Uiso   1.00
C62    C     0.42640   0.26470   0.30390   0.01267  Uiso   1.00
C63    C     0.49180   0.35290   0.36120   0.01267  Uiso   1.00
C64    C     0.21370   0.89150   0.30600   0.01267  Uiso   1.00
C65    C     0.26470   0.83830   0.30390   0.01267  Uiso   1.00
C66    C     0.35290   0.86110   0.36120   0.01267  Uiso   1.00
C67    C     0.10850   0.32220   0.30600   0.01267  Uiso   1.00
C68    C     0.16170   0.42640   0.30390   0.01267  Uiso   1.00
C69    C     0.13890   0.49180   0.36120   0.01267  Uiso   1.00
C70    C     0.67780   0.78630   0.30600   0.01267  Uiso   1.00
C71    C     0.57360   0.73530   0.30390   0.01267  Uiso   1.00
C72    C     0.50820   0.64710   0.36120   0.01267  Uiso   1.00
C73    C     0.26940   0.13470   0.75000   0.01267  Uiso   1.00
C74    C     0.86530   0.73060   0.75000   0.01267  Uiso   1.00
C75    C     0.86530   0.13470   0.75000   0.01267  Uiso   1.00
C76    C     0.73060   0.86530   0.75000   0.01267  Uiso   1.00
C77    C     0.13470   0.26940   0.75000   0.01267  Uiso   1.00
C78    C     0.13470   0.86530   0.75000   0.01267  Uiso   1.00
C79    C     0.73060   0.86530   0.25000   0.01267  Uiso   1.00
C80    C     0.13470   0.26940   0.25000   0.01267  Uiso   1.00
C81    C     0.13470   0.86530   0.25000   0.01267  Uiso   1.00
C82    C     0.26940   0.13470   0.25000   0.01267  Uiso   1.00
C83    C     0.86530   0.73060   0.25000   0.01267  Uiso   1.00
C84    C     0.86530   0.13470   0.25000   0.01267  Uiso   1.00
N1     N     0.47780   0.23890   0.75000   0.01267  Uiso   1.00
N2     N     0.76110   0.52220   0.75000   0.01267  Uiso   1.00
N3     N     0.76110   0.23890   0.75000   0.01267  Uiso   1.00
N4     N     0.52220   0.76110   0.75000   0.01267  Uiso   1.00
N5     N     0.23890   0.47780   0.75000   0.01267  Uiso   1.00
N6     N     0.23890   0.76110   0.75000   0.01267  Uiso   1.00
N7     N     0.52220   0.76110   0.25000   0.01267  Uiso   1.00
N8     N     0.23890   0.47780   0.25000   0.01267  Uiso   1.00
N9     N     0.23890   0.76110   0.25000   0.01267  Uiso   1.00
N10    N     0.47780   0.23890   0.25000   0.01267  Uiso   1.00
N11    N     0.76110   0.52220   0.25000   0.01267  Uiso   1.00
N12    N     0.76110   0.23890   0.25000   0.01267  Uiso   1.00
O1     O     0.58640   0.19890   0.85652   0.01267  Uiso   1.00
O2     O     0.44790   0.06310   0.90800   0.01267  Uiso   1.00
O3     O     0.61250   0.41360   0.85652   0.01267  Uiso   1.00
O4     O     0.61520   0.55210   0.90800   0.01267  Uiso   1.00
O5     O     0.80110   0.38750   0.85652   0.01267  Uiso   1.00
O6     O     0.93690   0.38480   0.90800   0.01267  Uiso   1.00
O7     O     0.41360   0.80110   0.85652   0.01267  Uiso   1.00
O8     O     0.55210   0.93690   0.90800   0.01267  Uiso   1.00
O9     O     0.38750   0.58640   0.85652   0.01267  Uiso   1.00
O10    O     0.38480   0.44790   0.90800   0.01267  Uiso   1.00
O11    O     0.19890   0.61250   0.85652   0.01267  Uiso   1.00
O12    O     0.06310   0.61520   0.90800   0.01267  Uiso   1.00
O13    O     0.38750   0.80110   0.64348   0.01267  Uiso   1.00
O14    O     0.38480   0.93690   0.59200   0.01267  Uiso   1.00
O15    O     0.19890   0.58640   0.64348   0.01267  Uiso   1.00
O16    O     0.06310   0.44790   0.59200   0.01267  Uiso   1.00
O17    O     0.41360   0.61250   0.64348   0.01267  Uiso   1.00
O18    O     0.55210   0.61520   0.59200   0.01267  Uiso   1.00
O19    O     0.61250   0.19890   0.64348   0.01267  Uiso   1.00
O20    O     0.61520   0.06310   0.59200   0.01267  Uiso   1.00
O21    O     0.80110   0.41360   0.64348   0.01267  Uiso   1.00
O22    O     0.93690   0.55210   0.59200   0.01267  Uiso   1.00
O23    O     0.58640   0.38750   0.64348   0.01267  Uiso   1.00
O24    O     0.44790   0.38480   0.59200   0.01267  Uiso   1.00
O25    O     0.41360   0.80110   0.14348   0.01267  Uiso   1.00
O26    O     0.55210   0.93690   0.09200   0.01267  Uiso   1.00
O27    O     0.38750   0.58640   0.14348   0.01267  Uiso   1.00
O28    O     0.38480   0.44790   0.09200   0.01267  Uiso   1.00
O29    O     0.19890   0.61250   0.14348   0.01267  Uiso   1.00
O30    O     0.06310   0.61520   0.09200   0.01267  Uiso   1.00
O31    O     0.58640   0.19890   0.14348   0.01267  Uiso   1.00
O32    O     0.44790   0.06310   0.09200   0.01267  Uiso   1.00
O33    O     0.61250   0.41360   0.14348   0.01267  Uiso   1.00
O34    O     0.61520   0.55210   0.09200   0.01267  Uiso   1.00
O35    O     0.80110   0.38750   0.14348   0.01267  Uiso   1.00
O36    O     0.93690   0.38480   0.09200   0.01267  Uiso   1.00
O37    O     0.61250   0.19890   0.35652   0.01267  Uiso   1.00
O38    O     0.61520   0.06310   0.40800   0.01267  Uiso   1.00
O39    O     0.80110   0.41360   0.35652   0.01267  Uiso   1.00
O40    O     0.93690   0.55210   0.40800   0.01267  Uiso   1.00
O41    O     0.58640   0.38750   0.35652   0.01267  Uiso   1.00
O42    O     0.44790   0.38480   0.40800   0.01267  Uiso   1.00
O43    O     0.38750   0.80110   0.35652   0.01267  Uiso   1.00
O44    O     0.38480   0.93690   0.40800   0.01267  Uiso   1.00
O45    O     0.19890   0.58640   0.35652   0.01267  Uiso   1.00
O46    O     0.06310   0.44790   0.40800   0.01267  Uiso   1.00
O47    O     0.41360   0.61250   0.35652   0.01267  Uiso   1.00
O48    O     0.55210   0.61520   0.40800   0.01267  Uiso   1.00
