data_image0
_cell_length_a       13.9914
_cell_length_b       20.2561
_cell_length_c       23.3703
_cell_angle_alpha    90
_cell_angle_beta     90
_cell_angle_gamma    90

_symmetry_space_group_name_H-M    "P 1"
_symmetry_int_tables_number       1

loop_
  _symmetry_equiv_pos_as_xyz
  'x, y, z'

loop_
  _atom_site_label
  _atom_site_occupancy
  _atom_site_fract_x
  _atom_site_fract_y
  _atom_site_fract_z
  _atom_site_thermal_displace_type
  _atom_site_B_iso_or_equiv
  _atom_site_type_symbol
  Zn1      1.0000 0.82247  0.19515  0.24702  Biso   1.000  Zn
  Zn2      1.0000 0.63304  0.22659  0.99610  Biso   1.000  Zn
  Zn3      1.0000 0.79288  0.31495  0.77921  Biso   1.000  Zn
  N1       1.0000 0.95030  0.20530  0.21150  Biso   1.000  N
  N2       1.0000 0.09220  0.18200  0.17620  Biso   1.000  N
  N3       1.0000 0.26590  0.97580  0.16260  Biso   1.000  N
  N4       1.0000 0.23250  0.87780  0.19890  Biso   1.000  N
  N5       1.0000 0.42180  0.18500  0.11450  Biso   1.000  N
  N6       1.0000 0.54850  0.21620  0.06450  Biso   1.000  N
  N7       1.0000 0.52790  0.24440  0.93780  Biso   1.000  N
  N8       1.0000 0.39890  0.28740  0.89820  Biso   1.000  N
  N9       1.0000 0.06360  0.32060  0.85470  Biso   1.000  N
  N10      1.0000 0.92120  0.30310  0.81840  Biso   1.000  N
  N11      1.0000 0.27740  0.51020  0.86010  Biso   1.000  N
  N12      1.0000 0.26140  0.60930  0.82450  Biso   1.000  N
  O1       1.0000 0.83260  0.33120  0.23120  Biso   1.000  O
  O2       1.0000 0.71940  0.25840  0.24270  Biso   1.000  O
  O3       1.0000 0.59590  0.09040  0.98700  Biso   1.000  O
  O4       1.0000 0.71280  0.15660  0.96640  Biso   1.000  O
  O5       1.0000 0.80510  0.84020  0.82410  Biso   1.000  O
  O6       1.0000 0.93270  0.90660  0.80910  Biso   1.000  O
  O7       1.0000 0.75400  0.27820  0.07670  Biso   1.000  O
  O8       1.0000 0.70450  0.30540  0.99290  Biso   1.000  O
  O9       1.0000 0.75260  0.22800  0.78970  Biso   1.000  O
  O10      1.0000 0.61320  0.27150  0.77020  Biso   1.000  O
  H1       1.0000 0.64700  0.30340  0.76280  Biso   1.000  H
  C1       1.0000 0.74560  0.31390  0.23450  Biso   1.000  C
  C2       1.0000 0.67450  0.36820  0.23130  Biso   1.000  C
  C3       1.0000 0.57670  0.35670  0.23960  Biso   1.000  C
  H2       1.0000 0.55580  0.31340  0.24400  Biso   1.000  H
  C4       1.0000 0.51040  0.40670  0.24150  Biso   1.000  C
  H3       1.0000 0.44790  0.39650  0.25180  Biso   1.000  H
  C5       1.0000 0.53370  0.47440  0.22830  Biso   1.000  C
  C6       1.0000 0.63330  0.48550  0.21670  Biso   1.000  C
  H4       1.0000 0.65370  0.52780  0.20720  Biso   1.000  H
  C7       1.0000 0.69980  0.43490  0.21920  Biso   1.000  C
  H5       1.0000 0.76370  0.44490  0.21260  Biso   1.000  H
  C8       1.0000 0.02590  0.16920  0.21470  Biso   1.000  C
  H6       1.0000 0.03320  0.13650  0.24230  Biso   1.000  H
  C9       1.0000 0.96580  0.24560  0.16640  Biso   1.000  C
  H7       1.0000 0.92200  0.27580  0.15170  Biso   1.000  H
  C10      1.0000 0.05600  0.23500  0.14550  Biso   1.000  C
  H8       1.0000 0.08670  0.25850  0.11660  Biso   1.000  H
  C11      1.0000 0.17870  0.15160  0.16480  Biso   1.000  C
  C12      1.0000 0.18060  0.08110  0.16900  Biso   1.000  C
  H9       1.0000 0.12640  0.05760  0.17990  Biso   1.000  H
  C13      1.0000 0.26590  0.04880  0.15640  Biso   1.000  C
  C14      1.0000 0.34630  0.07860  0.13830  Biso   1.000  C
  H10      1.0000 0.40140  0.05520  0.12920  Biso   1.000  H
  C15      1.0000 0.34070  0.15110  0.13400  Biso   1.000  C
  C16      1.0000 0.25840  0.18530  0.14710  Biso   1.000  C
  H11      1.0000 0.25690  0.23100  0.14400  Biso   1.000  H
  C17      1.0000 0.21700  0.94380  0.20410  Biso   1.000  C
  H12      1.0000 0.17890  0.96370  0.23170  Biso   1.000  H
  C18      1.0000 0.29170  0.87320  0.15270  Biso   1.000  C
  H13      1.0000 0.31330  0.83300  0.13850  Biso   1.000  H
  C19      1.0000 0.31710  0.93330  0.12860  Biso   1.000  C
  H14      1.0000 0.35740  0.94230  0.09800  Biso   1.000  H
  C20      1.0000 0.45710  0.24330  0.13870  Biso   1.000  C
  H15      1.0000 0.43080  0.26550  0.16980  Biso   1.000  H
  C21      1.0000 0.53660  0.26220  0.10910  Biso   1.000  C
  H16      1.0000 0.57540  0.29840  0.11690  Biso   1.000  H
  C22      1.0000 0.47820  0.16920  0.07090  Biso   1.000  C
  H17      1.0000 0.47120  0.13200  0.04810  Biso   1.000  H
  C23      1.0000 0.67140  0.09660  0.96780  Biso   1.000  C
  C24      1.0000 0.72790  0.04480  0.93780  Biso   1.000  C
  C25      1.0000 0.68670  0.98040  0.93790  Biso   1.000  C
  H18      1.0000 0.63160  0.97150  0.95880  Biso   1.000  H
  C26      1.0000 0.73260  0.92990  0.90500  Biso   1.000  C
  H19      1.0000 0.70510  0.88820  0.90330  Biso   1.000  H
  C27      1.0000 0.81750  0.94180  0.87540  Biso   1.000  C
  C28      1.0000 0.86120  0.00660  0.88000  Biso   1.000  C
  H20      1.0000 0.91970  0.01540  0.86270  Biso   1.000  H
  C29      1.0000 0.81410  0.05510  0.91080  Biso   1.000  C
  H21      1.0000 0.84190  0.09670  0.91330  Biso   1.000  H
  C30      1.0000 0.85610  0.89160  0.83470  Biso   1.000  C
  C31      1.0000 0.75470  0.31560  0.03250  Biso   1.000  C
  C32      1.0000 0.82650  0.37160  0.03170  Biso   1.000  C
  C33      1.0000 0.86900  0.39290  0.08610  Biso   1.000  C
  H22      1.0000 0.85370  0.37350  0.12100  Biso   1.000  H
  C34      1.0000 0.93600  0.44580  0.08080  Biso   1.000  C
  H23      1.0000 0.96400  0.46170  0.11420  Biso   1.000  H
  C35      1.0000 0.96210  0.47490  0.03040  Biso   1.000  C
  C36      1.0000 0.93370  0.44310  0.97820  Biso   1.000  C
  H24      1.0000 0.96080  0.45540  0.94340  Biso   1.000  H
  C37      1.0000 0.85930  0.38980  0.98070  Biso   1.000  C
  H25      1.0000 0.83670  0.36990  0.94750  Biso   1.000  H
  C38      1.0000 0.48920  0.19970  0.90090  Biso   1.000  C
  H26      1.0000 0.51430  0.15800  0.89360  Biso   1.000  H
  C39      1.0000 0.40780  0.22480  0.87580  Biso   1.000  C
  H27      1.0000 0.36770  0.20400  0.84970  Biso   1.000  H
  C40      1.0000 0.47180  0.29590  0.93620  Biso   1.000  C
  H28      1.0000 0.48050  0.33360  0.95830  Biso   1.000  H
  C41      1.0000 0.32060  0.33170  0.88690  Biso   1.000  C
  C42      1.0000 0.23290  0.30410  0.87940  Biso   1.000  C
  H29      1.0000 0.22410  0.25880  0.88330  Biso   1.000  H
  C43      1.0000 0.15660  0.34550  0.86570  Biso   1.000  C
  C44      1.0000 0.17010  0.41520  0.86200  Biso   1.000  C
  H30      1.0000 0.11910  0.44390  0.85610  Biso   1.000  H
  C45      1.0000 0.26070  0.43750  0.86760  Biso   1.000  C
  C46      1.0000 0.34150  0.40040  0.88150  Biso   1.000  C
  H31      1.0000 0.40200  0.41840  0.88670  Biso   1.000  H
  C47      1.0000 0.02450  0.26830  0.88480  Biso   1.000  C
  H32      1.0000 0.05300  0.24490  0.91440  Biso   1.000  H
  C48      1.0000 0.93640  0.25810  0.86230  Biso   1.000  C
  H33      1.0000 0.89310  0.22610  0.87440  Biso   1.000  H
  C49      1.0000 0.00130  0.33820  0.81400  Biso   1.000  C
  H34      1.0000 0.01240  0.37040  0.78650  Biso   1.000  H
  C50      1.0000 0.22400  0.54520  0.82410  Biso   1.000  C
  H35      1.0000 0.17220  0.53010  0.80290  Biso   1.000  H
  C51      1.0000 0.33950  0.60470  0.86030  Biso   1.000  C
  H36      1.0000 0.38110  0.63970  0.86670  Biso   1.000  H
  C52      1.0000 0.34940  0.55000  0.88340  Biso   1.000  C
  H37      1.0000 0.39500  0.53800  0.91050  Biso   1.000  H
  C53      1.0000 0.66550  0.22200  0.78110  Biso   1.000  C
  C54      1.0000 0.61370  0.15650  0.78050  Biso   1.000  C
  C55      1.0000 0.66630  0.10090  0.79480  Biso   1.000  C
  H38      1.0000 0.73020  0.10480  0.80550  Biso   1.000  H
  C56      1.0000 0.62120  0.03730  0.79300  Biso   1.000  C
  H39      1.0000 0.65630  0.99930  0.80050  Biso   1.000  H
  C57      1.0000 0.52300  0.03300  0.77990  Biso   1.000  C
  C58      1.0000 0.47510  0.09070  0.76330  Biso   1.000  C
  H40      1.0000 0.41180  0.08740  0.75150  Biso   1.000  H
  C59      1.0000 0.51770  0.15220  0.76370  Biso   1.000  C
  H41      1.0000 0.48370  0.18970  0.75310  Biso   1.000  H
  H42      1.0000 0.77710  0.40590  0.03250  Biso   1.000  H
  Zn4      1.0000 0.17753  0.80485  0.24702  Biso   1.000  Zn
  Zn5      1.0000 0.36696  0.77341  0.99610  Biso   1.000  Zn
  Zn6      1.0000 0.20712  0.68505  0.77921  Biso   1.000  Zn
  N13      1.0000 0.04970  0.79470  0.21150  Biso   1.000  N
  N14      1.0000 0.90780  0.81800  0.17620  Biso   1.000  N
  N15      1.0000 0.73410  0.02420  0.16260  Biso   1.000  N
  N16      1.0000 0.76750  0.12220  0.19890  Biso   1.000  N
  N17      1.0000 0.57820  0.81500  0.11450  Biso   1.000  N
  N18      1.0000 0.45150  0.78380  0.06450  Biso   1.000  N
  N19      1.0000 0.47210  0.75560  0.93780  Biso   1.000  N
  N20      1.0000 0.60110  0.71260  0.89820  Biso   1.000  N
  N21      1.0000 0.93640  0.67940  0.85470  Biso   1.000  N
  N22      1.0000 0.07880  0.69690  0.81840  Biso   1.000  N
  N23      1.0000 0.72260  0.48980  0.86010  Biso   1.000  N
  N24      1.0000 0.73860  0.39070  0.82450  Biso   1.000  N
  O11      1.0000 0.16740  0.66880  0.23120  Biso   1.000  O
  O12      1.0000 0.28060  0.74160  0.24270  Biso   1.000  O
  O13      1.0000 0.40410  0.90960  0.98700  Biso   1.000  O
  O14      1.0000 0.28720  0.84340  0.96640  Biso   1.000  O
  O15      1.0000 0.19490  0.15980  0.82410  Biso   1.000  O
  O16      1.0000 0.06730  0.09340  0.80910  Biso   1.000  O
  O17      1.0000 0.24600  0.72180  0.07670  Biso   1.000  O
  O18      1.0000 0.29550  0.69460  0.99290  Biso   1.000  O
  O19      1.0000 0.24740  0.77200  0.78970  Biso   1.000  O
  O20      1.0000 0.38680  0.72850  0.77020  Biso   1.000  O
  H43      1.0000 0.35300  0.69660  0.76280  Biso   1.000  H
  C60      1.0000 0.25440  0.68610  0.23450  Biso   1.000  C
  C61      1.0000 0.32550  0.63180  0.23130  Biso   1.000  C
  C62      1.0000 0.42330  0.64330  0.23960  Biso   1.000  C
  H44      1.0000 0.44420  0.68660  0.24400  Biso   1.000  H
  C63      1.0000 0.48960  0.59330  0.24150  Biso   1.000  C
  H45      1.0000 0.55210  0.60350  0.25180  Biso   1.000  H
  C64      1.0000 0.46630  0.52560  0.22830  Biso   1.000  C
  C65      1.0000 0.36670  0.51450  0.21670  Biso   1.000  C
  H46      1.0000 0.34630  0.47220  0.20720  Biso   1.000  H
  C66      1.0000 0.30020  0.56510  0.21920  Biso   1.000  C
  H47      1.0000 0.23630  0.55510  0.21260  Biso   1.000  H
  C67      1.0000 0.97410  0.83080  0.21470  Biso   1.000  C
  H48      1.0000 0.96680  0.86350  0.24230  Biso   1.000  H
  C68      1.0000 0.03420  0.75440  0.16640  Biso   1.000  C
  H49      1.0000 0.07800  0.72420  0.15170  Biso   1.000  H
  C69      1.0000 0.94400  0.76500  0.14550  Biso   1.000  C
  H50      1.0000 0.91330  0.74150  0.11660  Biso   1.000  H
  C70      1.0000 0.82130  0.84840  0.16480  Biso   1.000  C
  C71      1.0000 0.81940  0.91890  0.16900  Biso   1.000  C
  H51      1.0000 0.87360  0.94240  0.17990  Biso   1.000  H
  C72      1.0000 0.73410  0.95120  0.15640  Biso   1.000  C
  C73      1.0000 0.65370  0.92140  0.13830  Biso   1.000  C
  H52      1.0000 0.59860  0.94480  0.12920  Biso   1.000  H
  C74      1.0000 0.65930  0.84890  0.13400  Biso   1.000  C
  C75      1.0000 0.74160  0.81470  0.14710  Biso   1.000  C
  H53      1.0000 0.74310  0.76900  0.14400  Biso   1.000  H
  C76      1.0000 0.78300  0.05620  0.20410  Biso   1.000  C
  H54      1.0000 0.82110  0.03630  0.23170  Biso   1.000  H
  C77      1.0000 0.70830  0.12680  0.15270  Biso   1.000  C
  H55      1.0000 0.68670  0.16700  0.13850  Biso   1.000  H
  C78      1.0000 0.68290  0.06670  0.12860  Biso   1.000  C
  H56      1.0000 0.64260  0.05770  0.09800  Biso   1.000  H
  C79      1.0000 0.54290  0.75670  0.13870  Biso   1.000  C
  H57      1.0000 0.56920  0.73450  0.16980  Biso   1.000  H
  C80      1.0000 0.46340  0.73780  0.10910  Biso   1.000  C
  H58      1.0000 0.42460  0.70160  0.11690  Biso   1.000  H
  C81      1.0000 0.52180  0.83080  0.07090  Biso   1.000  C
  H59      1.0000 0.52880  0.86800  0.04810  Biso   1.000  H
  C82      1.0000 0.32860  0.90340  0.96780  Biso   1.000  C
  C83      1.0000 0.27210  0.95520  0.93780  Biso   1.000  C
  C84      1.0000 0.31330  0.01960  0.93790  Biso   1.000  C
  H60      1.0000 0.36840  0.02850  0.95880  Biso   1.000  H
  C85      1.0000 0.26740  0.07010  0.90500  Biso   1.000  C
  H61      1.0000 0.29490  0.11180  0.90330  Biso   1.000  H
  C86      1.0000 0.18250  0.05820  0.87540  Biso   1.000  C
  C87      1.0000 0.13880  0.99340  0.88000  Biso   1.000  C
  H62      1.0000 0.08030  0.98460  0.86270  Biso   1.000  H
  C88      1.0000 0.18590  0.94490  0.91080  Biso   1.000  C
  H63      1.0000 0.15810  0.90330  0.91330  Biso   1.000  H
  C89      1.0000 0.14390  0.10840  0.83470  Biso   1.000  C
  C90      1.0000 0.24530  0.68440  0.03250  Biso   1.000  C
  C91      1.0000 0.17350  0.62840  0.03170  Biso   1.000  C
  C92      1.0000 0.13100  0.60710  0.08610  Biso   1.000  C
  H64      1.0000 0.14630  0.62650  0.12100  Biso   1.000  H
  C93      1.0000 0.06400  0.55420  0.08080  Biso   1.000  C
  H65      1.0000 0.03600  0.53830  0.11420  Biso   1.000  H
  C94      1.0000 0.03790  0.52510  0.03040  Biso   1.000  C
  C95      1.0000 0.06630  0.55690  0.97820  Biso   1.000  C
  H66      1.0000 0.03920  0.54460  0.94340  Biso   1.000  H
  C96      1.0000 0.14070  0.61020  0.98070  Biso   1.000  C
  H67      1.0000 0.16330  0.63010  0.94750  Biso   1.000  H
  C97      1.0000 0.51080  0.80030  0.90090  Biso   1.000  C
  H68      1.0000 0.48570  0.84200  0.89360  Biso   1.000  H
  C98      1.0000 0.59220  0.77520  0.87580  Biso   1.000  C
  H69      1.0000 0.63230  0.79600  0.84970  Biso   1.000  H
  C99      1.0000 0.52820  0.70410  0.93620  Biso   1.000  C
  H70      1.0000 0.51950  0.66640  0.95830  Biso   1.000  H
  C100     1.0000 0.67940  0.66830  0.88690  Biso   1.000  C
  C101     1.0000 0.76710  0.69590  0.87940  Biso   1.000  C
  H71      1.0000 0.77590  0.74120  0.88330  Biso   1.000  H
  C102     1.0000 0.84340  0.65450  0.86570  Biso   1.000  C
  C103     1.0000 0.82990  0.58480  0.86200  Biso   1.000  C
  H72      1.0000 0.88090  0.55610  0.85610  Biso   1.000  H
  C104     1.0000 0.73930  0.56250  0.86760  Biso   1.000  C
  C105     1.0000 0.65850  0.59960  0.88150  Biso   1.000  C
  H73      1.0000 0.59800  0.58160  0.88670  Biso   1.000  H
  C106     1.0000 0.97550  0.73170  0.88480  Biso   1.000  C
  H74      1.0000 0.94700  0.75510  0.91440  Biso   1.000  H
  C107     1.0000 0.06360  0.74190  0.86230  Biso   1.000  C
  H75      1.0000 0.10690  0.77390  0.87440  Biso   1.000  H
  C108     1.0000 0.99870  0.66180  0.81400  Biso   1.000  C
  H76      1.0000 0.98760  0.62960  0.78650  Biso   1.000  H
  C109     1.0000 0.77600  0.45480  0.82410  Biso   1.000  C
  H77      1.0000 0.82780  0.46990  0.80290  Biso   1.000  H
  C110     1.0000 0.66050  0.39530  0.86030  Biso   1.000  C
  H78      1.0000 0.61890  0.36030  0.86670  Biso   1.000  H
  C111     1.0000 0.65060  0.45000  0.88340  Biso   1.000  C
  H79      1.0000 0.60500  0.46200  0.91050  Biso   1.000  H
  C112     1.0000 0.33450  0.77800  0.78110  Biso   1.000  C
  C113     1.0000 0.38630  0.84350  0.78050  Biso   1.000  C
  C114     1.0000 0.33370  0.89910  0.79480  Biso   1.000  C
  H80      1.0000 0.26980  0.89520  0.80550  Biso   1.000  H
  C115     1.0000 0.37880  0.96270  0.79300  Biso   1.000  C
  H81      1.0000 0.34370  0.00070  0.80050  Biso   1.000  H
  C116     1.0000 0.47700  0.96700  0.77990  Biso   1.000  C
  C117     1.0000 0.52490  0.90930  0.76330  Biso   1.000  C
  H82      1.0000 0.58820  0.91260  0.75150  Biso   1.000  H
  C118     1.0000 0.48230  0.84780  0.76370  Biso   1.000  C
  H83      1.0000 0.51630  0.81030  0.75310  Biso   1.000  H
  H84      1.0000 0.22290  0.59410  0.03250  Biso   1.000  H
  Zn7      1.0000 0.82247  0.80485  0.74702  Biso   1.000  Zn
  Zn8      1.0000 0.63304  0.77341  0.49610  Biso   1.000  Zn
  Zn9      1.0000 0.79288  0.68505  0.27921  Biso   1.000  Zn
  N25      1.0000 0.95030  0.79470  0.71150  Biso   1.000  N
  N26      1.0000 0.09220  0.81800  0.67620  Biso   1.000  N
  N27      1.0000 0.26590  0.02420  0.66260  Biso   1.000  N
  N28      1.0000 0.23250  0.12220  0.69890  Biso   1.000  N
  N29      1.0000 0.42180  0.81500  0.61450  Biso   1.000  N
  N30      1.0000 0.54850  0.78380  0.56450  Biso   1.000  N
  N31      1.0000 0.52790  0.75560  0.43780  Biso   1.000  N
  N32      1.0000 0.39890  0.71260  0.39820  Biso   1.000  N
  N33      1.0000 0.06360  0.67940  0.35470  Biso   1.000  N
  N34      1.0000 0.92120  0.69690  0.31840  Biso   1.000  N
  N35      1.0000 0.27740  0.48980  0.36010  Biso   1.000  N
  N36      1.0000 0.26140  0.39070  0.32450  Biso   1.000  N
  O21      1.0000 0.83260  0.66880  0.73120  Biso   1.000  O
  O22      1.0000 0.71940  0.74160  0.74270  Biso   1.000  O
  O23      1.0000 0.59590  0.90960  0.48700  Biso   1.000  O
  O24      1.0000 0.71280  0.84340  0.46640  Biso   1.000  O
  O25      1.0000 0.80510  0.15980  0.32410  Biso   1.000  O
  O26      1.0000 0.93270  0.09340  0.30910  Biso   1.000  O
  O27      1.0000 0.75400  0.72180  0.57670  Biso   1.000  O
  O28      1.0000 0.70450  0.69460  0.49290  Biso   1.000  O
  O29      1.0000 0.75260  0.77200  0.28970  Biso   1.000  O
  O30      1.0000 0.61320  0.72850  0.27020  Biso   1.000  O
  H85      1.0000 0.64700  0.69660  0.26280  Biso   1.000  H
  C119     1.0000 0.74560  0.68610  0.73450  Biso   1.000  C
  C120     1.0000 0.67450  0.63180  0.73130  Biso   1.000  C
  C121     1.0000 0.57670  0.64330  0.73960  Biso   1.000  C
  H86      1.0000 0.55580  0.68660  0.74400  Biso   1.000  H
  C122     1.0000 0.51040  0.59330  0.74150  Biso   1.000  C
  H87      1.0000 0.44790  0.60350  0.75180  Biso   1.000  H
  C123     1.0000 0.53370  0.52560  0.72830  Biso   1.000  C
  C124     1.0000 0.63330  0.51450  0.71670  Biso   1.000  C
  H88      1.0000 0.65370  0.47220  0.70720  Biso   1.000  H
  C125     1.0000 0.69980  0.56510  0.71920  Biso   1.000  C
  H89      1.0000 0.76370  0.55510  0.71260  Biso   1.000  H
  C126     1.0000 0.02590  0.83080  0.71470  Biso   1.000  C
  H90      1.0000 0.03320  0.86350  0.74230  Biso   1.000  H
  C127     1.0000 0.96580  0.75440  0.66640  Biso   1.000  C
  H91      1.0000 0.92200  0.72420  0.65170  Biso   1.000  H
  C128     1.0000 0.05600  0.76500  0.64550  Biso   1.000  C
  H92      1.0000 0.08670  0.74150  0.61660  Biso   1.000  H
  C129     1.0000 0.17870  0.84840  0.66480  Biso   1.000  C
  C130     1.0000 0.18060  0.91890  0.66900  Biso   1.000  C
  H93      1.0000 0.12640  0.94240  0.67990  Biso   1.000  H
  C131     1.0000 0.26590  0.95120  0.65640  Biso   1.000  C
  C132     1.0000 0.34630  0.92140  0.63830  Biso   1.000  C
  H94      1.0000 0.40140  0.94480  0.62920  Biso   1.000  H
  C133     1.0000 0.34070  0.84890  0.63400  Biso   1.000  C
  C134     1.0000 0.25840  0.81470  0.64710  Biso   1.000  C
  H95      1.0000 0.25690  0.76900  0.64400  Biso   1.000  H
  C135     1.0000 0.21700  0.05620  0.70410  Biso   1.000  C
  H96      1.0000 0.17890  0.03630  0.73170  Biso   1.000  H
  C136     1.0000 0.29170  0.12680  0.65270  Biso   1.000  C
  H97      1.0000 0.31330  0.16700  0.63850  Biso   1.000  H
  C137     1.0000 0.31710  0.06670  0.62860  Biso   1.000  C
  H98      1.0000 0.35740  0.05770  0.59800  Biso   1.000  H
  C138     1.0000 0.45710  0.75670  0.63870  Biso   1.000  C
  H99      1.0000 0.43080  0.73450  0.66980  Biso   1.000  H
  C139     1.0000 0.53660  0.73780  0.60910  Biso   1.000  C
  H100     1.0000 0.57540  0.70160  0.61690  Biso   1.000  H
  C140     1.0000 0.47820  0.83080  0.57090  Biso   1.000  C
  H101     1.0000 0.47120  0.86800  0.54810  Biso   1.000  H
  C141     1.0000 0.67140  0.90340  0.46780  Biso   1.000  C
  C142     1.0000 0.72790  0.95520  0.43780  Biso   1.000  C
  C143     1.0000 0.68670  0.01960  0.43790  Biso   1.000  C
  H102     1.0000 0.63160  0.02850  0.45880  Biso   1.000  H
  C144     1.0000 0.73260  0.07010  0.40500  Biso   1.000  C
  H103     1.0000 0.70510  0.11180  0.40330  Biso   1.000  H
  C145     1.0000 0.81750  0.05820  0.37540  Biso   1.000  C
  C146     1.0000 0.86120  0.99340  0.38000  Biso   1.000  C
  H104     1.0000 0.91970  0.98460  0.36270  Biso   1.000  H
  C147     1.0000 0.81410  0.94490  0.41080  Biso   1.000  C
  H105     1.0000 0.84190  0.90330  0.41330  Biso   1.000  H
  C148     1.0000 0.85610  0.10840  0.33470  Biso   1.000  C
  C149     1.0000 0.75470  0.68440  0.53250  Biso   1.000  C
  C150     1.0000 0.82650  0.62840  0.53170  Biso   1.000  C
  C151     1.0000 0.86900  0.60710  0.58610  Biso   1.000  C
  H106     1.0000 0.85370  0.62650  0.62100  Biso   1.000  H
  C152     1.0000 0.93600  0.55420  0.58080  Biso   1.000  C
  H107     1.0000 0.96400  0.53830  0.61420  Biso   1.000  H
  C153     1.0000 0.96210  0.52510  0.53040  Biso   1.000  C
  C154     1.0000 0.93370  0.55690  0.47820  Biso   1.000  C
  H108     1.0000 0.96080  0.54460  0.44340  Biso   1.000  H
  C155     1.0000 0.85930  0.61020  0.48070  Biso   1.000  C
  H109     1.0000 0.83670  0.63010  0.44750  Biso   1.000  H
  C156     1.0000 0.48920  0.80030  0.40090  Biso   1.000  C
  H110     1.0000 0.51430  0.84200  0.39360  Biso   1.000  H
  C157     1.0000 0.40780  0.77520  0.37580  Biso   1.000  C
  H111     1.0000 0.36770  0.79600  0.34970  Biso   1.000  H
  C158     1.0000 0.47180  0.70410  0.43620  Biso   1.000  C
  H112     1.0000 0.48050  0.66640  0.45830  Biso   1.000  H
  C159     1.0000 0.32060  0.66830  0.38690  Biso   1.000  C
  C160     1.0000 0.23290  0.69590  0.37940  Biso   1.000  C
  H113     1.0000 0.22410  0.74120  0.38330  Biso   1.000  H
  C161     1.0000 0.15660  0.65450  0.36570  Biso   1.000  C
  C162     1.0000 0.17010  0.58480  0.36200  Biso   1.000  C
  H114     1.0000 0.11910  0.55610  0.35610  Biso   1.000  H
  C163     1.0000 0.26070  0.56250  0.36760  Biso   1.000  C
  C164     1.0000 0.34150  0.59960  0.38150  Biso   1.000  C
  H115     1.0000 0.40200  0.58160  0.38670  Biso   1.000  H
  C165     1.0000 0.02450  0.73170  0.38480  Biso   1.000  C
  H116     1.0000 0.05300  0.75510  0.41440  Biso   1.000  H
  C166     1.0000 0.93640  0.74190  0.36230  Biso   1.000  C
  H117     1.0000 0.89310  0.77390  0.37440  Biso   1.000  H
  C167     1.0000 0.00130  0.66180  0.31400  Biso   1.000  C
  H118     1.0000 0.01240  0.62960  0.28650  Biso   1.000  H
  C168     1.0000 0.22400  0.45480  0.32410  Biso   1.000  C
  H119     1.0000 0.17220  0.46990  0.30290  Biso   1.000  H
  C169     1.0000 0.33950  0.39530  0.36030  Biso   1.000  C
  H120     1.0000 0.38110  0.36030  0.36670  Biso   1.000  H
  C170     1.0000 0.34940  0.45000  0.38340  Biso   1.000  C
  H121     1.0000 0.39500  0.46200  0.41050  Biso   1.000  H
  C171     1.0000 0.66550  0.77800  0.28110  Biso   1.000  C
  C172     1.0000 0.61370  0.84350  0.28050  Biso   1.000  C
  C173     1.0000 0.66630  0.89910  0.29480  Biso   1.000  C
  H122     1.0000 0.73020  0.89520  0.30550  Biso   1.000  H
  C174     1.0000 0.62120  0.96270  0.29300  Biso   1.000  C
  H123     1.0000 0.65630  0.00070  0.30050  Biso   1.000  H
  C175     1.0000 0.52300  0.96700  0.27990  Biso   1.000  C
  C176     1.0000 0.47510  0.90930  0.26330  Biso   1.000  C
  H124     1.0000 0.41180  0.91260  0.25150  Biso   1.000  H
  C177     1.0000 0.51770  0.84780  0.26370  Biso   1.000  C
  H125     1.0000 0.48370  0.81030  0.25310  Biso   1.000  H
  H126     1.0000 0.77710  0.59410  0.53250  Biso   1.000  H
  Zn10     1.0000 0.17753  0.19515  0.74702  Biso   1.000  Zn
  Zn11     1.0000 0.36696  0.22659  0.49610  Biso   1.000  Zn
  Zn12     1.0000 0.20712  0.31495  0.27921  Biso   1.000  Zn
  N37      1.0000 0.04970  0.20530  0.71150  Biso   1.000  N
  N38      1.0000 0.90780  0.18200  0.67620  Biso   1.000  N
  N39      1.0000 0.73410  0.97580  0.66260  Biso   1.000  N
  N40      1.0000 0.76750  0.87780  0.69890  Biso   1.000  N
  N41      1.0000 0.57820  0.18500  0.61450  Biso   1.000  N
  N42      1.0000 0.45150  0.21620  0.56450  Biso   1.000  N
  N43      1.0000 0.47210  0.24440  0.43780  Biso   1.000  N
  N44      1.0000 0.60110  0.28740  0.39820  Biso   1.000  N
  N45      1.0000 0.93640  0.32060  0.35470  Biso   1.000  N
  N46      1.0000 0.07880  0.30310  0.31840  Biso   1.000  N
  N47      1.0000 0.72260  0.51020  0.36010  Biso   1.000  N
  N48      1.0000 0.73860  0.60930  0.32450  Biso   1.000  N
  O31      1.0000 0.16740  0.33120  0.73120  Biso   1.000  O
  O32      1.0000 0.28060  0.25840  0.74270  Biso   1.000  O
  O33      1.0000 0.40410  0.09040  0.48700  Biso   1.000  O
  O34      1.0000 0.28720  0.15660  0.46640  Biso   1.000  O
  O35      1.0000 0.19490  0.84020  0.32410  Biso   1.000  O
  O36      1.0000 0.06730  0.90660  0.30910  Biso   1.000  O
  O37      1.0000 0.24600  0.27820  0.57670  Biso   1.000  O
  O38      1.0000 0.29550  0.30540  0.49290  Biso   1.000  O
  O39      1.0000 0.24740  0.22800  0.28970  Biso   1.000  O
  O40      1.0000 0.38680  0.27150  0.27020  Biso   1.000  O
  H127     1.0000 0.35300  0.30340  0.26280  Biso   1.000  H
  C178     1.0000 0.25440  0.31390  0.73450  Biso   1.000  C
  C179     1.0000 0.32550  0.36820  0.73130  Biso   1.000  C
  C180     1.0000 0.42330  0.35670  0.73960  Biso   1.000  C
  H128     1.0000 0.44420  0.31340  0.74400  Biso   1.000  H
  C181     1.0000 0.48960  0.40670  0.74150  Biso   1.000  C
  H129     1.0000 0.55210  0.39650  0.75180  Biso   1.000  H
  C182     1.0000 0.46630  0.47440  0.72830  Biso   1.000  C
  C183     1.0000 0.36670  0.48550  0.71670  Biso   1.000  C
  H130     1.0000 0.34630  0.52780  0.70720  Biso   1.000  H
  C184     1.0000 0.30020  0.43490  0.71920  Biso   1.000  C
  H131     1.0000 0.23630  0.44490  0.71260  Biso   1.000  H
  C185     1.0000 0.97410  0.16920  0.71470  Biso   1.000  C
  H132     1.0000 0.96680  0.13650  0.74230  Biso   1.000  H
  C186     1.0000 0.03420  0.24560  0.66640  Biso   1.000  C
  H133     1.0000 0.07800  0.27580  0.65170  Biso   1.000  H
  C187     1.0000 0.94400  0.23500  0.64550  Biso   1.000  C
  H134     1.0000 0.91330  0.25850  0.61660  Biso   1.000  H
  C188     1.0000 0.82130  0.15160  0.66480  Biso   1.000  C
  C189     1.0000 0.81940  0.08110  0.66900  Biso   1.000  C
  H135     1.0000 0.87360  0.05760  0.67990  Biso   1.000  H
  C190     1.0000 0.73410  0.04880  0.65640  Biso   1.000  C
  C191     1.0000 0.65370  0.07860  0.63830  Biso   1.000  C
  H136     1.0000 0.59860  0.05520  0.62920  Biso   1.000  H
  C192     1.0000 0.65930  0.15110  0.63400  Biso   1.000  C
  C193     1.0000 0.74160  0.18530  0.64710  Biso   1.000  C
  H137     1.0000 0.74310  0.23100  0.64400  Biso   1.000  H
  C194     1.0000 0.78300  0.94380  0.70410  Biso   1.000  C
  H138     1.0000 0.82110  0.96370  0.73170  Biso   1.000  H
  C195     1.0000 0.70830  0.87320  0.65270  Biso   1.000  C
  H139     1.0000 0.68670  0.83300  0.63850  Biso   1.000  H
  C196     1.0000 0.68290  0.93330  0.62860  Biso   1.000  C
  H140     1.0000 0.64260  0.94230  0.59800  Biso   1.000  H
  C197     1.0000 0.54290  0.24330  0.63870  Biso   1.000  C
  H141     1.0000 0.56920  0.26550  0.66980  Biso   1.000  H
  C198     1.0000 0.46340  0.26220  0.60910  Biso   1.000  C
  H142     1.0000 0.42460  0.29840  0.61690  Biso   1.000  H
  C199     1.0000 0.52180  0.16920  0.57090  Biso   1.000  C
  H143     1.0000 0.52880  0.13200  0.54810  Biso   1.000  H
  C200     1.0000 0.32860  0.09660  0.46780  Biso   1.000  C
  C201     1.0000 0.27210  0.04480  0.43780  Biso   1.000  C
  C202     1.0000 0.31330  0.98040  0.43790  Biso   1.000  C
  H144     1.0000 0.36840  0.97150  0.45880  Biso   1.000  H
  C203     1.0000 0.26740  0.92990  0.40500  Biso   1.000  C
  H145     1.0000 0.29490  0.88820  0.40330  Biso   1.000  H
  C204     1.0000 0.18250  0.94180  0.37540  Biso   1.000  C
  C205     1.0000 0.13880  0.00660  0.38000  Biso   1.000  C
  H146     1.0000 0.08030  0.01540  0.36270  Biso   1.000  H
  C206     1.0000 0.18590  0.05510  0.41080  Biso   1.000  C
  H147     1.0000 0.15810  0.09670  0.41330  Biso   1.000  H
  C207     1.0000 0.14390  0.89160  0.33470  Biso   1.000  C
  C208     1.0000 0.24530  0.31560  0.53250  Biso   1.000  C
  C209     1.0000 0.17350  0.37160  0.53170  Biso   1.000  C
  C210     1.0000 0.13100  0.39290  0.58610  Biso   1.000  C
  H148     1.0000 0.14630  0.37350  0.62100  Biso   1.000  H
  C211     1.0000 0.06400  0.44580  0.58080  Biso   1.000  C
  H149     1.0000 0.03600  0.46170  0.61420  Biso   1.000  H
  C212     1.0000 0.03790  0.47490  0.53040  Biso   1.000  C
  C213     1.0000 0.06630  0.44310  0.47820  Biso   1.000  C
  H150     1.0000 0.03920  0.45540  0.44340  Biso   1.000  H
  C214     1.0000 0.14070  0.38980  0.48070  Biso   1.000  C
  H151     1.0000 0.16330  0.36990  0.44750  Biso   1.000  H
  C215     1.0000 0.51080  0.19970  0.40090  Biso   1.000  C
  H152     1.0000 0.48570  0.15800  0.39360  Biso   1.000  H
  C216     1.0000 0.59220  0.22480  0.37580  Biso   1.000  C
  H153     1.0000 0.63230  0.20400  0.34970  Biso   1.000  H
  C217     1.0000 0.52820  0.29590  0.43620  Biso   1.000  C
  H154     1.0000 0.51950  0.33360  0.45830  Biso   1.000  H
  C218     1.0000 0.67940  0.33170  0.38690  Biso   1.000  C
  C219     1.0000 0.76710  0.30410  0.37940  Biso   1.000  C
  H155     1.0000 0.77590  0.25880  0.38330  Biso   1.000  H
  C220     1.0000 0.84340  0.34550  0.36570  Biso   1.000  C
  C221     1.0000 0.82990  0.41520  0.36200  Biso   1.000  C
  H156     1.0000 0.88090  0.44390  0.35610  Biso   1.000  H
  C222     1.0000 0.73930  0.43750  0.36760  Biso   1.000  C
  C223     1.0000 0.65850  0.40040  0.38150  Biso   1.000  C
  H157     1.0000 0.59800  0.41840  0.38670  Biso   1.000  H
  C224     1.0000 0.97550  0.26830  0.38480  Biso   1.000  C
  H158     1.0000 0.94700  0.24490  0.41440  Biso   1.000  H
  C225     1.0000 0.06360  0.25810  0.36230  Biso   1.000  C
  H159     1.0000 0.10690  0.22610  0.37440  Biso   1.000  H
  C226     1.0000 0.99870  0.33820  0.31400  Biso   1.000  C
  H160     1.0000 0.98760  0.37040  0.28650  Biso   1.000  H
  C227     1.0000 0.77600  0.54520  0.32410  Biso   1.000  C
  H161     1.0000 0.82780  0.53010  0.30290  Biso   1.000  H
  C228     1.0000 0.66050  0.60470  0.36030  Biso   1.000  C
  H162     1.0000 0.61890  0.63970  0.36670  Biso   1.000  H
  C229     1.0000 0.65060  0.55000  0.38340  Biso   1.000  C
  H163     1.0000 0.60500  0.53800  0.41050  Biso   1.000  H
  C230     1.0000 0.33450  0.22200  0.28110  Biso   1.000  C
  C231     1.0000 0.38630  0.15650  0.28050  Biso   1.000  C
  C232     1.0000 0.33370  0.10090  0.29480  Biso   1.000  C
  H164     1.0000 0.26980  0.10480  0.30550  Biso   1.000  H
  C233     1.0000 0.37880  0.03730  0.29300  Biso   1.000  C
  H165     1.0000 0.34370  0.99930  0.30050  Biso   1.000  H
  C234     1.0000 0.47700  0.03300  0.27990  Biso   1.000  C
  C235     1.0000 0.52490  0.09070  0.26330  Biso   1.000  C
  H166     1.0000 0.58820  0.08740  0.25150  Biso   1.000  H
  C236     1.0000 0.48230  0.15220  0.26370  Biso   1.000  C
  H167     1.0000 0.51630  0.18970  0.25310  Biso   1.000  H
  H168     1.0000 0.22290  0.40590  0.53250  Biso   1.000  H
