data_image0
_cell_length_a       8.594
_cell_length_b       8.594
_cell_length_c       12.4441
_cell_angle_alpha    90
_cell_angle_beta     90
_cell_angle_gamma    120

_symmetry_space_group_name_H-M    "P 1"
_symmetry_int_tables_number       1

loop_
  _symmetry_equiv_pos_as_xyz
  'x, y, z'

loop_
  _atom_site_label
  _atom_site_occupancy
  _atom_site_fract_x
  _atom_site_fract_y
  _atom_site_fract_z
  _atom_site_thermal_displace_type
  _atom_site_B_iso_or_equiv
  _atom_site_type_symbol
  O1       1.0000 0.66300  0.91480  0.09890  Biso   1.000  O
  O2       1.0000 0.30760  0.75130  0.10440  Biso   1.000  O
  O3       1.0000 0.08520  0.74820  0.76557  Biso   1.000  O
  O4       1.0000 0.24870  0.55630  0.77107  Biso   1.000  O
  O5       1.0000 0.25180  0.33700  0.43223  Biso   1.000  O
  O6       1.0000 0.44370  0.69240  0.43773  Biso   1.000  O
  O7       1.0000 0.33700  0.08520  0.09890  Biso   1.000  O
  O8       1.0000 0.69240  0.24870  0.10440  Biso   1.000  O
  O9       1.0000 0.91480  0.25180  0.76557  Biso   1.000  O
  O10      1.0000 0.75130  0.44370  0.77107  Biso   1.000  O
  O11      1.0000 0.74820  0.66300  0.43223  Biso   1.000  O
  O12      1.0000 0.55630  0.30760  0.43773  Biso   1.000  O
  O13      1.0000 0.91480  0.66300  0.56777  Biso   1.000  O
  O14      1.0000 0.75130  0.30760  0.56227  Biso   1.000  O
  O15      1.0000 0.74820  0.08520  0.90110  Biso   1.000  O
  O16      1.0000 0.55630  0.24870  0.89560  Biso   1.000  O
  O17      1.0000 0.33700  0.25180  0.23443  Biso   1.000  O
  O18      1.0000 0.69240  0.44370  0.22893  Biso   1.000  O
  O19      1.0000 0.08520  0.33700  0.56777  Biso   1.000  O
  O20      1.0000 0.24870  0.69240  0.56227  Biso   1.000  O
  O21      1.0000 0.25180  0.91480  0.90110  Biso   1.000  O
  O22      1.0000 0.44370  0.75130  0.89560  Biso   1.000  O
  O23      1.0000 0.66300  0.74820  0.23443  Biso   1.000  O
  O24      1.0000 0.30760  0.55630  0.22893  Biso   1.000  O
  Sc1      1.0000 0.50000  0.00000  0.00000  Biso   1.000  Sc
  Sc2      1.0000 0.00000  0.50000  0.66667  Biso   1.000  Sc
  Sc3      1.0000 0.50000  0.50000  0.33333  Biso   1.000  Sc
  C1       1.0000 0.58930  0.79465  0.16667  Biso   1.000  C
  C2       1.0000 0.37930  0.68965  0.16667  Biso   1.000  C
  C3       1.0000 0.20535  0.79465  0.83333  Biso   1.000  C
  C4       1.0000 0.31035  0.68965  0.83333  Biso   1.000  C
  C5       1.0000 0.20535  0.41070  0.50000  Biso   1.000  C
  C6       1.0000 0.31035  0.62070  0.50000  Biso   1.000  C
  C7       1.0000 0.41070  0.20535  0.16667  Biso   1.000  C
  C8       1.0000 0.62070  0.31035  0.16667  Biso   1.000  C
  C9       1.0000 0.79465  0.20535  0.83333  Biso   1.000  C
  C10      1.0000 0.68965  0.31035  0.83333  Biso   1.000  C
  C11      1.0000 0.79465  0.58930  0.50000  Biso   1.000  C
  C12      1.0000 0.68965  0.37930  0.50000  Biso   1.000  C
