data_image0
_cell_length_a       12.721
_cell_length_b       13.82
_cell_length_c       14.866
_cell_angle_alpha    90
_cell_angle_beta     90
_cell_angle_gamma    90

_symmetry_space_group_name_H-M    "P 1"
_symmetry_int_tables_number       1

loop_
  _symmetry_equiv_pos_as_xyz
  'x, y, z'

loop_
  _atom_site_label
  _atom_site_occupancy
  _atom_site_fract_x
  _atom_site_fract_y
  _atom_site_fract_z
  _atom_site_thermal_displace_type
  _atom_site_B_iso_or_equiv
  _atom_site_type_symbol
  Cu1      1.0000 0.49988  0.36249  0.48507  Biso   1.000  Cu
  Ba1      1.0000 0.29508  0.19897  0.41992  Biso   1.000  Ba
  C1       1.0000 0.58610  0.48640  0.60040  Biso   1.000  C
  C2       1.0000 0.59410  0.55830  0.67810  Biso   1.000  C
  C3       1.0000 0.68120  0.58490  0.72630  Biso   1.000  C
  H1       1.0000 0.74830  0.56130  0.71480  Biso   1.000  H
  C4       1.0000 0.65900  0.65070  0.79380  Biso   1.000  C
  H2       1.0000 0.71000  0.67740  0.83110  Biso   1.000  H
  C5       1.0000 0.55530  0.67220  0.80010  Biso   1.000  C
  C6       1.0000 0.50030  0.73620  0.86680  Biso   1.000  C
  C7       1.0000 0.60220  0.22350  0.39670  Biso   1.000  C
  C8       1.0000 0.62930  0.14140  0.33410  Biso   1.000  C
  C9       1.0000 0.72200  0.09450  0.32830  Biso   1.000  C
  H3       1.0000 0.77960  0.10900  0.36430  Biso   1.000  H
  C10      1.0000 0.72290  0.02120  0.26220  Biso   1.000  C
  H4       1.0000 0.78090  0.98300  0.24840  Biso   1.000  H
  C11      1.0000 0.62660  0.01390  0.22110  Biso   1.000  C
  C12      1.0000 0.59840  0.94920  0.14430  Biso   1.000  C
  O1       1.0000 0.49560  0.46470  0.57500  Biso   1.000  O
  O2       1.0000 0.66970  0.45630  0.57060  Biso   1.000  O
  O3       1.0000 0.40470  0.75150  0.85570  Biso   1.000  O
  O4       1.0000 0.55780  0.76880  0.92950  Biso   1.000  O
  O5       1.0000 0.50890  0.25320  0.39590  Biso   1.000  O
  O6       1.0000 0.67240  0.25680  0.44460  Biso   1.000  O
  O7       1.0000 0.50550  0.95640  0.11400  Biso   1.000  O
  O8       1.0000 0.66640  0.89230  0.11320  Biso   1.000  O
  S1       1.0000 0.48235  0.61358  0.71947  Biso   1.000  S
  S2       1.0000 0.53894  0.09580  0.26087  Biso   1.000  S
  Cu2      1.0000 0.00012  0.63751  0.98507  Biso   1.000  Cu
  Ba2      1.0000 0.20492  0.80103  0.91992  Biso   1.000  Ba
  C13      1.0000 0.91390  0.51360  0.10040  Biso   1.000  C
  C14      1.0000 0.90590  0.44170  0.17810  Biso   1.000  C
  C15      1.0000 0.81880  0.41510  0.22630  Biso   1.000  C
  H5       1.0000 0.75170  0.43870  0.21480  Biso   1.000  H
  C16      1.0000 0.84100  0.34930  0.29380  Biso   1.000  C
  H6       1.0000 0.79000  0.32260  0.33110  Biso   1.000  H
  C17      1.0000 0.94470  0.32780  0.30010  Biso   1.000  C
  C18      1.0000 0.99970  0.26380  0.36680  Biso   1.000  C
  C19      1.0000 0.89780  0.77650  0.89670  Biso   1.000  C
  C20      1.0000 0.87070  0.85860  0.83410  Biso   1.000  C
  C21      1.0000 0.77800  0.90550  0.82830  Biso   1.000  C
  H7       1.0000 0.72040  0.89100  0.86430  Biso   1.000  H
  C22      1.0000 0.77710  0.97880  0.76220  Biso   1.000  C
  H8       1.0000 0.71910  0.01700  0.74840  Biso   1.000  H
  C23      1.0000 0.87340  0.98610  0.72110  Biso   1.000  C
  C24      1.0000 0.90160  0.05080  0.64430  Biso   1.000  C
  O9       1.0000 0.00440  0.53530  0.07500  Biso   1.000  O
  O10      1.0000 0.83030  0.54370  0.07060  Biso   1.000  O
  O11      1.0000 0.09530  0.24850  0.35570  Biso   1.000  O
  O12      1.0000 0.94220  0.23120  0.42950  Biso   1.000  O
  O13      1.0000 0.99110  0.74680  0.89590  Biso   1.000  O
  O14      1.0000 0.82760  0.74320  0.94460  Biso   1.000  O
  O15      1.0000 0.99450  0.04360  0.61400  Biso   1.000  O
  O16      1.0000 0.83360  0.10770  0.61320  Biso   1.000  O
  S3       1.0000 0.01765  0.38642  0.21947  Biso   1.000  S
  S4       1.0000 0.96106  0.90420  0.76087  Biso   1.000  S
  Cu3      1.0000 0.50012  0.86249  0.01493  Biso   1.000  Cu
  Ba3      1.0000 0.70492  0.69897  0.08008  Biso   1.000  Ba
  C25      1.0000 0.41390  0.98640  0.89960  Biso   1.000  C
  C26      1.0000 0.40590  0.05830  0.82190  Biso   1.000  C
  C27      1.0000 0.31880  0.08490  0.77370  Biso   1.000  C
  H9       1.0000 0.25170  0.06130  0.78520  Biso   1.000  H
  C28      1.0000 0.34100  0.15070  0.70620  Biso   1.000  C
  H10      1.0000 0.29000  0.17740  0.66890  Biso   1.000  H
  C29      1.0000 0.44470  0.17220  0.69990  Biso   1.000  C
  C30      1.0000 0.49970  0.23620  0.63320  Biso   1.000  C
  C31      1.0000 0.39780  0.72350  0.10330  Biso   1.000  C
  C32      1.0000 0.37070  0.64140  0.16590  Biso   1.000  C
  C33      1.0000 0.27800  0.59450  0.17170  Biso   1.000  C
  H11      1.0000 0.22040  0.60900  0.13570  Biso   1.000  H
  C34      1.0000 0.27710  0.52120  0.23780  Biso   1.000  C
  H12      1.0000 0.21910  0.48300  0.25160  Biso   1.000  H
  C35      1.0000 0.37340  0.51390  0.27890  Biso   1.000  C
  C36      1.0000 0.40160  0.44920  0.35570  Biso   1.000  C
  O17      1.0000 0.50440  0.96470  0.92500  Biso   1.000  O
  O18      1.0000 0.33030  0.95630  0.92940  Biso   1.000  O
  O19      1.0000 0.59530  0.25150  0.64430  Biso   1.000  O
  O20      1.0000 0.44220  0.26880  0.57050  Biso   1.000  O
  O21      1.0000 0.49110  0.75320  0.10410  Biso   1.000  O
  O22      1.0000 0.32760  0.75680  0.05540  Biso   1.000  O
  O23      1.0000 0.49450  0.45640  0.38600  Biso   1.000  O
  O24      1.0000 0.33360  0.39230  0.38680  Biso   1.000  O
  S5       1.0000 0.51765  0.11358  0.78053  Biso   1.000  S
  S6       1.0000 0.46106  0.59580  0.23913  Biso   1.000  S
  Cu4      1.0000 0.99988  0.13751  0.51493  Biso   1.000  Cu
  Ba4      1.0000 0.79508  0.30103  0.58008  Biso   1.000  Ba
  C37      1.0000 0.08610  0.01360  0.39960  Biso   1.000  C
  C38      1.0000 0.09410  0.94170  0.32190  Biso   1.000  C
  C39      1.0000 0.18120  0.91510  0.27370  Biso   1.000  C
  H13      1.0000 0.24830  0.93870  0.28520  Biso   1.000  H
  C40      1.0000 0.15900  0.84930  0.20620  Biso   1.000  C
  H14      1.0000 0.21000  0.82260  0.16890  Biso   1.000  H
  C41      1.0000 0.05530  0.82780  0.19990  Biso   1.000  C
  C42      1.0000 0.00030  0.76380  0.13320  Biso   1.000  C
  C43      1.0000 0.10220  0.27650  0.60330  Biso   1.000  C
  C44      1.0000 0.12930  0.35860  0.66590  Biso   1.000  C
  C45      1.0000 0.22200  0.40550  0.67170  Biso   1.000  C
  H15      1.0000 0.27960  0.39100  0.63570  Biso   1.000  H
  C46      1.0000 0.22290  0.47880  0.73780  Biso   1.000  C
  H16      1.0000 0.28090  0.51700  0.75160  Biso   1.000  H
  C47      1.0000 0.12660  0.48610  0.77890  Biso   1.000  C
  C48      1.0000 0.09840  0.55080  0.85570  Biso   1.000  C
  O25      1.0000 0.99560  0.03530  0.42500  Biso   1.000  O
  O26      1.0000 0.16970  0.04370  0.42940  Biso   1.000  O
  O27      1.0000 0.90470  0.74850  0.14430  Biso   1.000  O
  O28      1.0000 0.05780  0.73120  0.07050  Biso   1.000  O
  O29      1.0000 0.00890  0.24680  0.60410  Biso   1.000  O
  O30      1.0000 0.17240  0.24320  0.55540  Biso   1.000  O
  O31      1.0000 0.00550  0.54360  0.88600  Biso   1.000  O
  O32      1.0000 0.16640  0.60770  0.88680  Biso   1.000  O
  S7       1.0000 0.98235  0.88642  0.28053  Biso   1.000  S
  S8       1.0000 0.03894  0.40420  0.73913  Biso   1.000  S
