data_image0
_cell_length_a       16.2107
_cell_length_b       14.9781
_cell_length_c       7.9573
_cell_angle_alpha    90
_cell_angle_beta     92.069
_cell_angle_gamma    90

_symmetry_space_group_name_H-M    "P 1"
_symmetry_int_tables_number       1

loop_
  _symmetry_equiv_pos_as_xyz
  'x, y, z'

loop_
  _atom_site_label
  _atom_site_occupancy
  _atom_site_fract_x
  _atom_site_fract_y
  _atom_site_fract_z
  _atom_site_thermal_displace_type
  _atom_site_B_iso_or_equiv
  _atom_site_type_symbol
  Ag1      1.0000 0.02698  0.25929  0.39979  Biso   1.000  Ag
  Ho1      1.0000 0.54522  0.38374  0.94987  Biso   1.000  Ho
  C1       1.0000 0.86700  0.32810  0.54060  Biso   1.000  C
  H1       1.0000 0.89390  0.38210  0.52450  Biso   1.000  H
  C2       1.0000 0.78870  0.32900  0.60530  Biso   1.000  C
  H2       1.0000 0.76400  0.38280  0.63350  Biso   1.000  H
  C3       1.0000 0.74730  0.24860  0.62780  Biso   1.000  C
  C4       1.0000 0.78710  0.17020  0.58550  Biso   1.000  C
  H3       1.0000 0.76120  0.11540  0.59910  Biso   1.000  H
  C5       1.0000 0.86560  0.17420  0.52280  Biso   1.000  C
  H4       1.0000 0.89180  0.12120  0.49520  Biso   1.000  H
  C6       1.0000 0.66240  0.24910  0.69770  Biso   1.000  C
  C7       1.0000 0.21190  0.25280  0.29400  Biso   1.000  C
  H5       1.0000 0.20930  0.19290  0.32380  Biso   1.000  H
  C8       1.0000 0.28580  0.28690  0.24300  Biso   1.000  C
  H6       1.0000 0.33230  0.25060  0.23870  Biso   1.000  H
  C9       1.0000 0.29000  0.37650  0.19800  Biso   1.000  C
  C10      1.0000 0.21960  0.42740  0.20610  Biso   1.000  C
  H7       1.0000 0.22070  0.48750  0.17720  Biso   1.000  H
  C11      1.0000 0.14760  0.38870  0.25720  Biso   1.000  C
  H8       1.0000 0.10020  0.42360  0.26050  Biso   1.000  H
  C12      1.0000 0.36830  0.41870  0.13960  Biso   1.000  C
  C13      1.0000 0.43090  0.45830  0.71360  Biso   1.000  C
  C14      1.0000 0.36470  0.49320  0.59610  Biso   1.000  C
  H9       1.0000 0.32730  0.44570  0.56530  Biso   1.000  H
  H10      1.0000 0.33510  0.53990  0.65050  Biso   1.000  H
  H11      1.0000 0.38910  0.51640  0.49710  Biso   1.000  H
  N1       1.0000 0.90521  0.25170  0.50030  Biso   1.000  N
  N2       1.0000 0.14330  0.30290  0.30230  Biso   1.000  N
  O1       1.0000 0.64109  0.31544  0.78110  Biso   1.000  O
  O2       1.0000 0.61712  0.18110  0.66850  Biso   1.000  O
  O3       1.0000 0.42521  0.36697  0.09580  Biso   1.000  O
  O4       1.0000 0.37096  0.50296  0.14130  Biso   1.000  O
  O5       1.0000 0.45136  0.50266  0.84300  Biso   1.000  O
  O6       1.0000 0.46593  0.38475  0.68750  Biso   1.000  O
  Ag2      1.0000 0.97302  0.75929  0.10021  Biso   1.000  Ag
  Ho2      1.0000 0.45478  0.88374  0.55013  Biso   1.000  Ho
  C15      1.0000 0.13300  0.82810  0.95940  Biso   1.000  C
  H12      1.0000 0.10610  0.88210  0.97550  Biso   1.000  H
  C16      1.0000 0.21130  0.82900  0.89470  Biso   1.000  C
  H13      1.0000 0.23600  0.88280  0.86650  Biso   1.000  H
  C17      1.0000 0.25270  0.74860  0.87220  Biso   1.000  C
  C18      1.0000 0.21290  0.67020  0.91450  Biso   1.000  C
  H14      1.0000 0.23880  0.61540  0.90090  Biso   1.000  H
  C19      1.0000 0.13440  0.67420  0.97720  Biso   1.000  C
  H15      1.0000 0.10820  0.62120  0.00480  Biso   1.000  H
  C20      1.0000 0.33760  0.74910  0.80230  Biso   1.000  C
  C21      1.0000 0.78810  0.75280  0.20600  Biso   1.000  C
  H16      1.0000 0.79070  0.69290  0.17620  Biso   1.000  H
  C22      1.0000 0.71420  0.78690  0.25700  Biso   1.000  C
  H17      1.0000 0.66770  0.75060  0.26130  Biso   1.000  H
  C23      1.0000 0.71000  0.87650  0.30200  Biso   1.000  C
  C24      1.0000 0.78040  0.92740  0.29390  Biso   1.000  C
  H18      1.0000 0.77930  0.98750  0.32280  Biso   1.000  H
  C25      1.0000 0.85240  0.88870  0.24280  Biso   1.000  C
  H19      1.0000 0.89980  0.92360  0.23950  Biso   1.000  H
  C26      1.0000 0.63170  0.91870  0.36040  Biso   1.000  C
  C27      1.0000 0.56910  0.95830  0.78640  Biso   1.000  C
  C28      1.0000 0.63530  0.99320  0.90390  Biso   1.000  C
  H20      1.0000 0.67270  0.94570  0.93470  Biso   1.000  H
  H21      1.0000 0.66490  0.03990  0.84950  Biso   1.000  H
  H22      1.0000 0.61090  0.01640  0.00290  Biso   1.000  H
  N3       1.0000 0.09479  0.75170  0.99970  Biso   1.000  N
  N4       1.0000 0.85670  0.80290  0.19770  Biso   1.000  N
  O7       1.0000 0.35891  0.81544  0.71890  Biso   1.000  O
  O8       1.0000 0.38288  0.68110  0.83150  Biso   1.000  O
  O9       1.0000 0.57479  0.86697  0.40420  Biso   1.000  O
  O10      1.0000 0.62904  0.00296  0.35870  Biso   1.000  O
  O11      1.0000 0.54864  0.00266  0.65700  Biso   1.000  O
  O12      1.0000 0.53407  0.88475  0.81250  Biso   1.000  O
  Ag3      1.0000 0.97302  0.74071  0.60021  Biso   1.000  Ag
  Ho3      1.0000 0.45478  0.61626  0.05013  Biso   1.000  Ho
  C29      1.0000 0.13300  0.67190  0.45940  Biso   1.000  C
  H23      1.0000 0.10610  0.61790  0.47550  Biso   1.000  H
  C30      1.0000 0.21130  0.67100  0.39470  Biso   1.000  C
  H24      1.0000 0.23600  0.61720  0.36650  Biso   1.000  H
  C31      1.0000 0.25270  0.75140  0.37220  Biso   1.000  C
  C32      1.0000 0.21290  0.82980  0.41450  Biso   1.000  C
  H25      1.0000 0.23880  0.88460  0.40090  Biso   1.000  H
  C33      1.0000 0.13440  0.82580  0.47720  Biso   1.000  C
  H26      1.0000 0.10820  0.87880  0.50480  Biso   1.000  H
  C34      1.0000 0.33760  0.75090  0.30230  Biso   1.000  C
  C35      1.0000 0.78810  0.74720  0.70600  Biso   1.000  C
  H27      1.0000 0.79070  0.80710  0.67620  Biso   1.000  H
  C36      1.0000 0.71420  0.71310  0.75700  Biso   1.000  C
  H28      1.0000 0.66770  0.74940  0.76130  Biso   1.000  H
  C37      1.0000 0.71000  0.62350  0.80200  Biso   1.000  C
  C38      1.0000 0.78040  0.57260  0.79390  Biso   1.000  C
  H29      1.0000 0.77930  0.51250  0.82280  Biso   1.000  H
  C39      1.0000 0.85240  0.61130  0.74280  Biso   1.000  C
  H30      1.0000 0.89980  0.57640  0.73950  Biso   1.000  H
  C40      1.0000 0.63170  0.58130  0.86040  Biso   1.000  C
  C41      1.0000 0.56910  0.54170  0.28640  Biso   1.000  C
  C42      1.0000 0.63530  0.50680  0.40390  Biso   1.000  C
  H31      1.0000 0.67270  0.55430  0.43470  Biso   1.000  H
  H32      1.0000 0.66490  0.46010  0.34950  Biso   1.000  H
  H33      1.0000 0.61090  0.48360  0.50290  Biso   1.000  H
  N5       1.0000 0.09479  0.74830  0.49970  Biso   1.000  N
  N6       1.0000 0.85670  0.69710  0.69770  Biso   1.000  N
  O13      1.0000 0.35891  0.68456  0.21890  Biso   1.000  O
  O14      1.0000 0.38288  0.81890  0.33150  Biso   1.000  O
  O15      1.0000 0.57479  0.63303  0.90420  Biso   1.000  O
  O16      1.0000 0.62904  0.49704  0.85870  Biso   1.000  O
  O17      1.0000 0.54864  0.49734  0.15700  Biso   1.000  O
  O18      1.0000 0.53407  0.61525  0.31250  Biso   1.000  O
  Ag4      1.0000 0.02698  0.24071  0.89979  Biso   1.000  Ag
  Ho4      1.0000 0.54522  0.11626  0.44987  Biso   1.000  Ho
  C43      1.0000 0.86700  0.17190  0.04060  Biso   1.000  C
  H34      1.0000 0.89390  0.11790  0.02450  Biso   1.000  H
  C44      1.0000 0.78870  0.17100  0.10530  Biso   1.000  C
  H35      1.0000 0.76400  0.11720  0.13350  Biso   1.000  H
  C45      1.0000 0.74730  0.25140  0.12780  Biso   1.000  C
  C46      1.0000 0.78710  0.32980  0.08550  Biso   1.000  C
  H36      1.0000 0.76120  0.38460  0.09910  Biso   1.000  H
  C47      1.0000 0.86560  0.32580  0.02280  Biso   1.000  C
  H37      1.0000 0.89180  0.37880  0.99520  Biso   1.000  H
  C48      1.0000 0.66240  0.25090  0.19770  Biso   1.000  C
  C49      1.0000 0.21190  0.24720  0.79400  Biso   1.000  C
  H38      1.0000 0.20930  0.30710  0.82380  Biso   1.000  H
  C50      1.0000 0.28580  0.21310  0.74300  Biso   1.000  C
  H39      1.0000 0.33230  0.24940  0.73870  Biso   1.000  H
  C51      1.0000 0.29000  0.12350  0.69800  Biso   1.000  C
  C52      1.0000 0.21960  0.07260  0.70610  Biso   1.000  C
  H40      1.0000 0.22070  0.01250  0.67720  Biso   1.000  H
  C53      1.0000 0.14760  0.11130  0.75720  Biso   1.000  C
  H41      1.0000 0.10020  0.07640  0.76050  Biso   1.000  H
  C54      1.0000 0.36830  0.08130  0.63960  Biso   1.000  C
  C55      1.0000 0.43090  0.04170  0.21360  Biso   1.000  C
  C56      1.0000 0.36470  0.00680  0.09610  Biso   1.000  C
  H42      1.0000 0.32730  0.05430  0.06530  Biso   1.000  H
  H43      1.0000 0.33510  0.96010  0.15050  Biso   1.000  H
  H44      1.0000 0.38910  0.98360  0.99710  Biso   1.000  H
  N7       1.0000 0.90521  0.24830  0.00030  Biso   1.000  N
  N8       1.0000 0.14330  0.19710  0.80230  Biso   1.000  N
  O19      1.0000 0.64109  0.18456  0.28110  Biso   1.000  O
  O20      1.0000 0.61712  0.31890  0.16850  Biso   1.000  O
  O21      1.0000 0.42521  0.13303  0.59580  Biso   1.000  O
  O22      1.0000 0.37096  0.99704  0.64130  Biso   1.000  O
  O23      1.0000 0.45136  0.99734  0.34300  Biso   1.000  O
  O24      1.0000 0.46593  0.11525  0.18750  Biso   1.000  O
