data_image0
_cell_length_a       9.6859
_cell_length_b       16.914
_cell_length_c       18.412
_cell_angle_alpha    90
_cell_angle_beta     115.16
_cell_angle_gamma    90

_symmetry_space_group_name_H-M    "P 1"
_symmetry_int_tables_number       1

loop_
  _symmetry_equiv_pos_as_xyz
  'x, y, z'

loop_
  _atom_site_label
  _atom_site_occupancy
  _atom_site_fract_x
  _atom_site_fract_y
  _atom_site_fract_z
  _atom_site_thermal_displace_type
  _atom_site_B_iso_or_equiv
  _atom_site_type_symbol
  Co1      1.0000 0.57640  0.29222  0.70733  Biso   1.000  Co
  O1       1.0000 0.82830  0.34830  0.69900  Biso   1.000  O
  O2       1.0000 0.62620  0.28600  0.61330  Biso   1.000  O
  O3       1.0000 0.54340  0.24480  0.33340  Biso   1.000  O
  O4       1.0000 0.72210  0.27780  0.29500  Biso   1.000  O
  O5       1.0000 0.12060  0.42100  0.54270  Biso   1.000  O
  N1       1.0000 0.54960  0.40400  0.73840  Biso   1.000  N
  N2       1.0000 0.46080  0.49840  0.78830  Biso   1.000  N
  N3       1.0000 0.36340  0.24690  0.64640  Biso   1.000  N
  N4       1.0000 0.16260  0.19700  0.54720  Biso   1.000  N
  C1       1.0000 0.75190  0.32190  0.63060  Biso   1.000  C
  C2       1.0000 0.80320  0.33220  0.56520  Biso   1.000  C
  C3       1.0000 0.71620  0.30240  0.48920  Biso   1.000  C
  H1       1.0000 0.62610  0.27560  0.47910  Biso   1.000  H
  C4       1.0000 0.76240  0.31230  0.42820  Biso   1.000  C
  C5       1.0000 0.89800  0.35270  0.44340  Biso   1.000  C
  H2       1.0000 0.92950  0.35990  0.40270  Biso   1.000  H
  C6       1.0000 0.98510  0.38190  0.51990  Biso   1.000  C
  C7       1.0000 0.93670  0.37220  0.58050  Biso   1.000  C
  H3       1.0000 0.99450  0.39260  0.63130  Biso   1.000  H
  C8       1.0000 0.66860  0.27640  0.34730  Biso   1.000  C
  C9       1.0000 0.18670  0.42730  0.48620  Biso   1.000  C
  H4       1.0000 0.12170  0.45860  0.44020  Biso   1.000  H
  H5       1.0000 0.19950  0.37530  0.46770  Biso   1.000  H
  C10      1.0000 0.33890  0.46690  0.52980  Biso   1.000  C
  H6       1.0000 0.40110  0.43510  0.57610  Biso   1.000  H
  H7       1.0000 0.32360  0.51790  0.54920  Biso   1.000  H
  C11      1.0000 0.42390  0.47860  0.47760  Biso   1.000  C
  H8       1.0000 0.36060  0.50890  0.43040  Biso   1.000  H
  H9       1.0000 0.44280  0.42740  0.45970  Biso   1.000  H
  C12      1.0000 0.25040  0.23320  0.67150  Biso   1.000  C
  H10      1.0000 0.25770  0.24400  0.72260  Biso   1.000  H
  C13      1.0000 0.30500  0.22440  0.57030  Biso   1.000  C
  H11      1.0000 0.35580  0.22720  0.53730  Biso   1.000  H
  C14      1.0000 0.12820  0.20220  0.61120  Biso   1.000  C
  H12      1.0000 0.03730  0.18710  0.61280  Biso   1.000  H
  C15      1.0000 0.06650  0.16030  0.46950  Biso   1.000  C
  H13      1.0000 0.11960  0.16080  0.43520  Biso   1.000  H
  H14      1.0000 0.97270  0.19020  0.44310  Biso   1.000  H
  C16      1.0000 0.03040  0.07700  0.48260  Biso   1.000  C
  C17      1.0000 0.14040  0.01900  0.50450  Biso   1.000  C
  H15      1.0000 0.23680  0.03120  0.50830  Biso   1.000  H
  C18      1.0000 0.88970  0.05660  0.47900  Biso   1.000  C
  H16      1.0000 0.81370  0.09490  0.46510  Biso   1.000  H
  C19      1.0000 0.44000  0.42570  0.75830  Biso   1.000  C
  H17      1.0000 0.35750  0.39380  0.75210  Biso   1.000  H
  C20      1.0000 0.64200  0.46830  0.75530  Biso   1.000  C
  H18      1.0000 0.72910  0.47160  0.74620  Biso   1.000  H
  C21      1.0000 0.59040  0.52610  0.78690  Biso   1.000  C
  H19      1.0000 0.63490  0.57540  0.80430  Biso   1.000  H
  C22      1.0000 0.37440  0.53470  0.82840  Biso   1.000  C
  H20      1.0000 0.27000  0.51580  0.80350  Biso   1.000  H
  H21      1.0000 0.37240  0.59160  0.82100  Biso   1.000  H
  C23      1.0000 0.44170  0.51650  0.91760  Biso   1.000  C
  C24      1.0000 0.48830  0.44080  0.94660  Biso   1.000  C
  H22      1.0000 0.48030  0.40050  0.91070  Biso   1.000  H
  C25      1.0000 0.45390  0.57610  0.97270  Biso   1.000  C
  H23      1.0000 0.42280  0.62720  0.95470  Biso   1.000  H
  Co2      1.0000 0.42360  0.79222  0.79267  Biso   1.000  Co
  O6       1.0000 0.17170  0.84830  0.80100  Biso   1.000  O
  O7       1.0000 0.37380  0.78600  0.88670  Biso   1.000  O
  O8       1.0000 0.45660  0.74480  0.16660  Biso   1.000  O
  O9       1.0000 0.27790  0.77780  0.20500  Biso   1.000  O
  O10      1.0000 0.87940  0.92100  0.95730  Biso   1.000  O
  N5       1.0000 0.45040  0.90400  0.76160  Biso   1.000  N
  N6       1.0000 0.53920  0.99840  0.71170  Biso   1.000  N
  N7       1.0000 0.63660  0.74690  0.85360  Biso   1.000  N
  N8       1.0000 0.83740  0.69700  0.95280  Biso   1.000  N
  C26      1.0000 0.24810  0.82190  0.86940  Biso   1.000  C
  C27      1.0000 0.19680  0.83220  0.93480  Biso   1.000  C
  C28      1.0000 0.28380  0.80240  0.01080  Biso   1.000  C
  H24      1.0000 0.37390  0.77560  0.02090  Biso   1.000  H
  C29      1.0000 0.23760  0.81230  0.07180  Biso   1.000  C
  C30      1.0000 0.10200  0.85270  0.05660  Biso   1.000  C
  H25      1.0000 0.07050  0.85990  0.09730  Biso   1.000  H
  C31      1.0000 0.01490  0.88190  0.98010  Biso   1.000  C
  C32      1.0000 0.06330  0.87220  0.91950  Biso   1.000  C
  H26      1.0000 0.00550  0.89260  0.86870  Biso   1.000  H
  C33      1.0000 0.33140  0.77640  0.15270  Biso   1.000  C
  C34      1.0000 0.81330  0.92730  0.01380  Biso   1.000  C
  H27      1.0000 0.87830  0.95860  0.05980  Biso   1.000  H
  H28      1.0000 0.80050  0.87530  0.03230  Biso   1.000  H
  C35      1.0000 0.66110  0.96690  0.97020  Biso   1.000  C
  H29      1.0000 0.59890  0.93510  0.92390  Biso   1.000  H
  H30      1.0000 0.67640  0.01790  0.95080  Biso   1.000  H
  C36      1.0000 0.57610  0.97860  0.02240  Biso   1.000  C
  H31      1.0000 0.63940  0.00890  0.06960  Biso   1.000  H
  H32      1.0000 0.55720  0.92740  0.04030  Biso   1.000  H
  C37      1.0000 0.74960  0.73320  0.82850  Biso   1.000  C
  H33      1.0000 0.74230  0.74400  0.77740  Biso   1.000  H
  C38      1.0000 0.69500  0.72440  0.92970  Biso   1.000  C
  H34      1.0000 0.64420  0.72720  0.96270  Biso   1.000  H
  C39      1.0000 0.87180  0.70220  0.88880  Biso   1.000  C
  H35      1.0000 0.96270  0.68710  0.88720  Biso   1.000  H
  C40      1.0000 0.93350  0.66030  0.03050  Biso   1.000  C
  H36      1.0000 0.88040  0.66080  0.06480  Biso   1.000  H
  H37      1.0000 0.02730  0.69020  0.05690  Biso   1.000  H
  C41      1.0000 0.96960  0.57700  0.01740  Biso   1.000  C
  C42      1.0000 0.85960  0.51900  0.99550  Biso   1.000  C
  H38      1.0000 0.76320  0.53120  0.99170  Biso   1.000  H
  C43      1.0000 0.11030  0.55660  0.02100  Biso   1.000  C
  H39      1.0000 0.18630  0.59490  0.03490  Biso   1.000  H
  C44      1.0000 0.56000  0.92570  0.74170  Biso   1.000  C
  H40      1.0000 0.64250  0.89380  0.74790  Biso   1.000  H
  C45      1.0000 0.35800  0.96830  0.74470  Biso   1.000  C
  H41      1.0000 0.27090  0.97160  0.75380  Biso   1.000  H
  C46      1.0000 0.40960  0.02610  0.71310  Biso   1.000  C
  H42      1.0000 0.36510  0.07540  0.69570  Biso   1.000  H
  C47      1.0000 0.62560  0.03470  0.67160  Biso   1.000  C
  H43      1.0000 0.73000  0.01580  0.69650  Biso   1.000  H
  H44      1.0000 0.62760  0.09160  0.67900  Biso   1.000  H
  C48      1.0000 0.55830  0.01650  0.58240  Biso   1.000  C
  C49      1.0000 0.51170  0.94080  0.55340  Biso   1.000  C
  H45      1.0000 0.51970  0.90050  0.58930  Biso   1.000  H
  C50      1.0000 0.54610  0.07610  0.52730  Biso   1.000  C
  H46      1.0000 0.57720  0.12720  0.54530  Biso   1.000  H
  Co3      1.0000 0.42360  0.70778  0.29267  Biso   1.000  Co
  O11      1.0000 0.17170  0.65170  0.30100  Biso   1.000  O
  O12      1.0000 0.37380  0.71400  0.38670  Biso   1.000  O
  O13      1.0000 0.45660  0.75520  0.66660  Biso   1.000  O
  O14      1.0000 0.27790  0.72220  0.70500  Biso   1.000  O
  O15      1.0000 0.87940  0.57900  0.45730  Biso   1.000  O
  N9       1.0000 0.45040  0.59600  0.26160  Biso   1.000  N
  N10      1.0000 0.53920  0.50160  0.21170  Biso   1.000  N
  N11      1.0000 0.63660  0.75310  0.35360  Biso   1.000  N
  N12      1.0000 0.83740  0.80300  0.45280  Biso   1.000  N
  C51      1.0000 0.24810  0.67810  0.36940  Biso   1.000  C
  C52      1.0000 0.19680  0.66780  0.43480  Biso   1.000  C
  C53      1.0000 0.28380  0.69760  0.51080  Biso   1.000  C
  H47      1.0000 0.37390  0.72440  0.52090  Biso   1.000  H
  C54      1.0000 0.23760  0.68770  0.57180  Biso   1.000  C
  C55      1.0000 0.10200  0.64730  0.55660  Biso   1.000  C
  H48      1.0000 0.07050  0.64010  0.59730  Biso   1.000  H
  C56      1.0000 0.01490  0.61810  0.48010  Biso   1.000  C
  C57      1.0000 0.06330  0.62780  0.41950  Biso   1.000  C
  H49      1.0000 0.00550  0.60740  0.36870  Biso   1.000  H
  C58      1.0000 0.33140  0.72360  0.65270  Biso   1.000  C
  C59      1.0000 0.81330  0.57270  0.51380  Biso   1.000  C
  H50      1.0000 0.87830  0.54140  0.55980  Biso   1.000  H
  H51      1.0000 0.80050  0.62470  0.53230  Biso   1.000  H
  C60      1.0000 0.66110  0.53310  0.47020  Biso   1.000  C
  H52      1.0000 0.59890  0.56490  0.42390  Biso   1.000  H
  H53      1.0000 0.67640  0.48210  0.45080  Biso   1.000  H
  C61      1.0000 0.57610  0.52140  0.52240  Biso   1.000  C
  H54      1.0000 0.63940  0.49110  0.56960  Biso   1.000  H
  H55      1.0000 0.55720  0.57260  0.54030  Biso   1.000  H
  C62      1.0000 0.74960  0.76680  0.32850  Biso   1.000  C
  H56      1.0000 0.74230  0.75600  0.27740  Biso   1.000  H
  C63      1.0000 0.69500  0.77560  0.42970  Biso   1.000  C
  H57      1.0000 0.64420  0.77280  0.46270  Biso   1.000  H
  C64      1.0000 0.87180  0.79780  0.38880  Biso   1.000  C
  H58      1.0000 0.96270  0.81290  0.38720  Biso   1.000  H
  C65      1.0000 0.93350  0.83970  0.53050  Biso   1.000  C
  H59      1.0000 0.88040  0.83920  0.56480  Biso   1.000  H
  H60      1.0000 0.02730  0.80980  0.55690  Biso   1.000  H
  C66      1.0000 0.96960  0.92300  0.51740  Biso   1.000  C
  C67      1.0000 0.85960  0.98100  0.49550  Biso   1.000  C
  H61      1.0000 0.76320  0.96880  0.49170  Biso   1.000  H
  C68      1.0000 0.11030  0.94340  0.52100  Biso   1.000  C
  H62      1.0000 0.18630  0.90510  0.53490  Biso   1.000  H
  C69      1.0000 0.56000  0.57430  0.24170  Biso   1.000  C
  H63      1.0000 0.64250  0.60620  0.24790  Biso   1.000  H
  C70      1.0000 0.35800  0.53170  0.24470  Biso   1.000  C
  H64      1.0000 0.27090  0.52840  0.25380  Biso   1.000  H
  C71      1.0000 0.40960  0.47390  0.21310  Biso   1.000  C
  H65      1.0000 0.36510  0.42460  0.19570  Biso   1.000  H
  C72      1.0000 0.62560  0.46530  0.17160  Biso   1.000  C
  H66      1.0000 0.73000  0.48420  0.19650  Biso   1.000  H
  H67      1.0000 0.62760  0.40840  0.17900  Biso   1.000  H
  C73      1.0000 0.55830  0.48350  0.08240  Biso   1.000  C
  C74      1.0000 0.51170  0.55920  0.05340  Biso   1.000  C
  H68      1.0000 0.51970  0.59950  0.08930  Biso   1.000  H
  C75      1.0000 0.54610  0.42390  0.02730  Biso   1.000  C
  H69      1.0000 0.57720  0.37280  0.04530  Biso   1.000  H
  Co4      1.0000 0.57640  0.20778  0.20733  Biso   1.000  Co
  O16      1.0000 0.82830  0.15170  0.19900  Biso   1.000  O
  O17      1.0000 0.62620  0.21400  0.11330  Biso   1.000  O
  O18      1.0000 0.54340  0.25520  0.83340  Biso   1.000  O
  O19      1.0000 0.72210  0.22220  0.79500  Biso   1.000  O
  O20      1.0000 0.12060  0.07900  0.04270  Biso   1.000  O
  N13      1.0000 0.54960  0.09600  0.23840  Biso   1.000  N
  N14      1.0000 0.46080  0.00160  0.28830  Biso   1.000  N
  N15      1.0000 0.36340  0.25310  0.14640  Biso   1.000  N
  N16      1.0000 0.16260  0.30300  0.04720  Biso   1.000  N
  C76      1.0000 0.75190  0.17810  0.13060  Biso   1.000  C
  C77      1.0000 0.80320  0.16780  0.06520  Biso   1.000  C
  C78      1.0000 0.71620  0.19760  0.98920  Biso   1.000  C
  H70      1.0000 0.62610  0.22440  0.97910  Biso   1.000  H
  C79      1.0000 0.76240  0.18770  0.92820  Biso   1.000  C
  C80      1.0000 0.89800  0.14730  0.94340  Biso   1.000  C
  H71      1.0000 0.92950  0.14010  0.90270  Biso   1.000  H
  C81      1.0000 0.98510  0.11810  0.01990  Biso   1.000  C
  C82      1.0000 0.93670  0.12780  0.08050  Biso   1.000  C
  H72      1.0000 0.99450  0.10740  0.13130  Biso   1.000  H
  C83      1.0000 0.66860  0.22360  0.84730  Biso   1.000  C
  C84      1.0000 0.18670  0.07270  0.98620  Biso   1.000  C
  H73      1.0000 0.12170  0.04140  0.94020  Biso   1.000  H
  H74      1.0000 0.19950  0.12470  0.96770  Biso   1.000  H
  C85      1.0000 0.33890  0.03310  0.02980  Biso   1.000  C
  H75      1.0000 0.40110  0.06490  0.07610  Biso   1.000  H
  H76      1.0000 0.32360  0.98210  0.04920  Biso   1.000  H
  C86      1.0000 0.42390  0.02140  0.97760  Biso   1.000  C
  H77      1.0000 0.36060  0.99110  0.93040  Biso   1.000  H
  H78      1.0000 0.44280  0.07260  0.95970  Biso   1.000  H
  C87      1.0000 0.25040  0.26680  0.17150  Biso   1.000  C
  H79      1.0000 0.25770  0.25600  0.22260  Biso   1.000  H
  C88      1.0000 0.30500  0.27560  0.07030  Biso   1.000  C
  H80      1.0000 0.35580  0.27280  0.03730  Biso   1.000  H
  C89      1.0000 0.12820  0.29780  0.11120  Biso   1.000  C
  H81      1.0000 0.03730  0.31290  0.11280  Biso   1.000  H
  C90      1.0000 0.06650  0.33970  0.96950  Biso   1.000  C
  H82      1.0000 0.11960  0.33920  0.93520  Biso   1.000  H
  H83      1.0000 0.97270  0.30980  0.94310  Biso   1.000  H
  C91      1.0000 0.03040  0.42300  0.98260  Biso   1.000  C
  C92      1.0000 0.14040  0.48100  0.00450  Biso   1.000  C
  H84      1.0000 0.23680  0.46880  0.00830  Biso   1.000  H
  C93      1.0000 0.88970  0.44340  0.97900  Biso   1.000  C
  H85      1.0000 0.81370  0.40510  0.96510  Biso   1.000  H
  C94      1.0000 0.44000  0.07430  0.25830  Biso   1.000  C
  H86      1.0000 0.35750  0.10620  0.25210  Biso   1.000  H
  C95      1.0000 0.64200  0.03170  0.25530  Biso   1.000  C
  H87      1.0000 0.72910  0.02840  0.24620  Biso   1.000  H
  C96      1.0000 0.59040  0.97390  0.28690  Biso   1.000  C
  H88      1.0000 0.63490  0.92460  0.30430  Biso   1.000  H
  C97      1.0000 0.37440  0.96530  0.32840  Biso   1.000  C
  H89      1.0000 0.27000  0.98420  0.30350  Biso   1.000  H
  H90      1.0000 0.37240  0.90840  0.32100  Biso   1.000  H
  C98      1.0000 0.44170  0.98350  0.41760  Biso   1.000  C
  C99      1.0000 0.48830  0.05920  0.44660  Biso   1.000  C
  H91      1.0000 0.48030  0.09950  0.41070  Biso   1.000  H
  C100     1.0000 0.45390  0.92390  0.47270  Biso   1.000  C
  H92      1.0000 0.42280  0.87280  0.45470  Biso   1.000  H
