data_image0
_cell_length_a       12.886
_cell_length_b       16.4783
_cell_length_c       18.2541
_cell_angle_alpha    80.202
_cell_angle_beta     86.039
_cell_angle_gamma    81.673

_symmetry_space_group_name_H-M    "P 1"
_symmetry_int_tables_number       1

loop_
  _symmetry_equiv_pos_as_xyz
  'x, y, z'

loop_
  _atom_site_label
  _atom_site_occupancy
  _atom_site_fract_x
  _atom_site_fract_y
  _atom_site_fract_z
  _atom_site_thermal_displace_type
  _atom_site_B_iso_or_equiv
  _atom_site_type_symbol
  Zn1      1.0000 0.83226  0.70857  0.32595  Biso   1.000  Zn
  Zn2      1.0000 0.75666  0.23695  0.98774  Biso   1.000  Zn
  Zn3      1.0000 0.48660  0.27513  0.26392  Biso   1.000  Zn
  C1       1.0000 0.93420  0.58830  0.42660  Biso   1.000  C
  C2       1.0000 0.95240  0.53030  0.49970  Biso   1.000  C
  H1       1.0000 0.95580  0.56350  0.53830  Biso   1.000  H
  H2       1.0000 0.89230  0.50040  0.51220  Biso   1.000  H
  C3       1.0000 0.90150  0.10250  0.98740  Biso   1.000  C
  C4       1.0000 0.94570  0.01010  0.99480  Biso   1.000  C
  H3       1.0000 0.90870  0.98010  0.03650  Biso   1.000  H
  H4       1.0000 0.93020  0.99010  0.95030  Biso   1.000  H
  C5       1.0000 0.53460  0.28590  0.00010  Biso   1.000  C
  C6       1.0000 0.42610  0.26150  0.01600  Biso   1.000  C
  H5       1.0000 0.40140  0.24930  0.97050  Biso   1.000  H
  H6       1.0000 0.37930  0.30850  0.02990  Biso   1.000  H
  C7       1.0000 0.41850  0.18670  0.07700  Biso   1.000  C
  H7       1.0000 0.46650  0.13970  0.06400  Biso   1.000  H
  H8       1.0000 0.34790  0.17200  0.07970  Biso   1.000  H
  C8       1.0000 0.44410  0.20240  0.15360  Biso   1.000  C
  C9       1.0000 0.94770  0.84690  0.23930  Biso   1.000  C
  H9       1.0000 0.89510  0.86730  0.20580  Biso   1.000  H
  C10      1.0000 0.03910  0.87580  0.23810  Biso   1.000  C
  H10      1.0000 0.06150  0.91940  0.20430  Biso   1.000  H
  C11      1.0000 0.03290  0.77520  0.32920  Biso   1.000  C
  H11      1.0000 0.05140  0.73610  0.37090  Biso   1.000  H
  C12      1.0000 0.50660  0.44350  0.17550  Biso   1.000  C
  H12      1.0000 0.49140  0.42180  0.13420  Biso   1.000  H
  C13      1.0000 0.52290  0.51970  0.17230  Biso   1.000  C
  H13      1.0000 0.52120  0.56160  0.13100  Biso   1.000  H
  C14      1.0000 0.53210  0.44830  0.28550  Biso   1.000  C
  H14      1.0000 0.53780  0.43670  0.33680  Biso   1.000  H
  C15      1.0000 0.20050  0.83860  0.31760  Biso   1.000  C
  H15      1.0000 0.21700  0.89330  0.29530  Biso   1.000  H
  H16      1.0000 0.19890  0.83550  0.37120  Biso   1.000  H
  C16      1.0000 0.28510  0.77550  0.29580  Biso   1.000  C
  C17      1.0000 0.35440  0.79300  0.23520  Biso   1.000  C
  H17      1.0000 0.34420  0.84460  0.20480  Biso   1.000  H
  C18      1.0000 0.43760  0.73560  0.21940  Biso   1.000  C
  H18      1.0000 0.47980  0.74480  0.17610  Biso   1.000  H
  C19      1.0000 0.45660  0.66090  0.27250  Biso   1.000  C
  C20      1.0000 0.38480  0.64310  0.32420  Biso   1.000  C
  H19      1.0000 0.39150  0.59020  0.35250  Biso   1.000  H
  C21      1.0000 0.30030  0.69900  0.33860  Biso   1.000  C
  H20      1.0000 0.25280  0.68480  0.37770  Biso   1.000  H
  C22      1.0000 0.55830  0.60200  0.26850  Biso   1.000  C
  H21      1.0000 0.60830  0.62950  0.23440  Biso   1.000  H
  H22      1.0000 0.58770  0.58900  0.31730  Biso   1.000  H
  C23      1.0000 0.88680  0.30320  0.85190  Biso   1.000  C
  H23      1.0000 0.93890  0.25750  0.85780  Biso   1.000  H
  C24      1.0000 0.88590  0.36930  0.79690  Biso   1.000  C
  H24      1.0000 0.93620  0.37770  0.75830  Biso   1.000  H
  C25      1.0000 0.74720  0.38610  0.86970  Biso   1.000  C
  H25      1.0000 0.68390  0.40970  0.88970  Biso   1.000  H
  C26      1.0000 0.26910  0.67990  0.87410  Biso   1.000  C
  H26      1.0000 0.33530  0.65260  0.88700  Biso   1.000  H
  C27      1.0000 0.22420  0.67510  0.81210  Biso   1.000  C
  H27      1.0000 0.25070  0.64420  0.77510  Biso   1.000  H
  C28      1.0000 0.12200  0.75730  0.87840  Biso   1.000  C
  H28      1.0000 0.06490  0.79320  0.89320  Biso   1.000  H
  C29      1.0000 0.76210  0.50260  0.76430  Biso   1.000  C
  H29      1.0000 0.69380  0.52470  0.78380  Biso   1.000  H
  H30      1.0000 0.75450  0.49540  0.71340  Biso   1.000  H
  C30      1.0000 0.83760  0.56380  0.76490  Biso   1.000  C
  C31      1.0000 0.83250  0.61320  0.82150  Biso   1.000  C
  H31      1.0000 0.78190  0.60750  0.86020  Biso   1.000  H
  C32      1.0000 0.90130  0.66910  0.81970  Biso   1.000  C
  H32      1.0000 0.89690  0.70100  0.85750  Biso   1.000  H
  C33      1.0000 0.97710  0.67960  0.76310  Biso   1.000  C
  C34      1.0000 0.98290  0.63100  0.70950  Biso   1.000  C
  H33      1.0000 0.03470  0.63590  0.67150  Biso   1.000  H
  C35      1.0000 0.91380  0.57460  0.71020  Biso   1.000  C
  H34      1.0000 0.91930  0.54290  0.67220  Biso   1.000  H
  C36      1.0000 0.05040  0.74430  0.75800  Biso   1.000  C
  H35      1.0000 0.08580  0.74980  0.70910  Biso   1.000  H
  H36      1.0000 0.00900  0.79740  0.76260  Biso   1.000  H
  C37      1.0000 0.33220  0.31290  0.39140  Biso   1.000  C
  H37      1.0000 0.36930  0.35240  0.40420  Biso   1.000  H
  C38      1.0000 0.24300  0.29030  0.42530  Biso   1.000  C
  H38      1.0000 0.20820  0.31030  0.46630  Biso   1.000  H
  C39      1.0000 0.28510  0.22070  0.33440  Biso   1.000  C
  H39      1.0000 0.28320  0.18420  0.30100  Biso   1.000  H
  C40      1.0000 0.33090  0.77510  0.63630  Biso   1.000  C
  H40      1.0000 0.35090  0.73210  0.60900  Biso   1.000  H
  C41      1.0000 0.24470  0.83180  0.62700  Biso   1.000  C
  H41      1.0000 0.19570  0.83530  0.59120  Biso   1.000  H
  C42      1.0000 0.33020  0.85510  0.71690  Biso   1.000  C
  H42      1.0000 0.34850  0.87950  0.75570  Biso   1.000  H
  C43      1.0000 0.11980  0.18810  0.40860  Biso   1.000  C
  H43      1.0000 0.10960  0.15800  0.36900  Biso   1.000  H
  H44      1.0000 0.05780  0.22840  0.41320  Biso   1.000  H
  C44      1.0000 0.13230  0.12770  0.48090  Biso   1.000  C
  C45      1.0000 0.22860  0.10060  0.51360  Biso   1.000  C
  H45      1.0000 0.28860  0.11990  0.48990  Biso   1.000  H
  C46      1.0000 0.23790  0.04550  0.58080  Biso   1.000  C
  H46      1.0000 0.30290  0.03000  0.60190  Biso   1.000  H
  C47      1.0000 0.15090  0.01430  0.61560  Biso   1.000  C
  C48      1.0000 0.05620  0.04590  0.58740  Biso   1.000  C
  H47      1.0000 0.99600  0.02750  0.61170  Biso   1.000  H
  C49      1.0000 0.04640  0.10460  0.52370  Biso   1.000  C
  H48      1.0000 0.97970  0.12920  0.50930  Biso   1.000  H
  C50      1.0000 0.16170  0.95150  0.68710  Biso   1.000  C
  H49      1.0000 0.18090  0.97810  0.72670  Biso   1.000  H
  H50      1.0000 0.09480  0.93160  0.70170  Biso   1.000  H
  C51      1.0000 0.83680  0.55690  0.25410  Biso   1.000  C
  H51      1.0000 0.84300  0.52150  0.29950  Biso   1.000  H
  C52      1.0000 0.83730  0.53270  0.18640  Biso   1.000  C
  H52      1.0000 0.84400  0.47840  0.17690  Biso   1.000  H
  C53      1.0000 0.81970  0.66690  0.17200  Biso   1.000  C
  H53      1.0000 0.81180  0.72230  0.14950  Biso   1.000  H
  C54      1.0000 0.82340  0.60720  0.05380  Biso   1.000  C
  H54      1.0000 0.82520  0.66410  0.02920  Biso   1.000  H
  H55      1.0000 0.75840  0.59000  0.04220  Biso   1.000  H
  C55      1.0000 0.91430  0.55240  0.02500  Biso   1.000  C
  C56      1.0000 0.01480  0.57620  0.01690  Biso   1.000  C
  H56      1.0000 0.02510  0.62710  0.02850  Biso   1.000  H
  C57      1.0000 0.65700  0.84380  0.27610  Biso   1.000  C
  H57      1.0000 0.69020  0.85640  0.22960  Biso   1.000  H
  C58      1.0000 0.56730  0.88230  0.29830  Biso   1.000  C
  H58      1.0000 0.52610  0.92620  0.27050  Biso   1.000  H
  C59      1.0000 0.62480  0.78670  0.38560  Biso   1.000  C
  H59      1.0000 0.63010  0.75150  0.43120  Biso   1.000  H
  C60      1.0000 0.45510  0.87520  0.41590  Biso   1.000  C
  H60      1.0000 0.43260  0.82820  0.44960  Biso   1.000  H
  H61      1.0000 0.39760  0.89940  0.38410  Biso   1.000  H
  N1       1.0000 0.94270  0.78320  0.29660  Biso   1.000  N
  N2       1.0000 0.09320  0.82970  0.29530  Biso   1.000  N
  N3       1.0000 0.51390  0.39650  0.24730  Biso   1.000  N
  N4       1.0000 0.54290  0.52420  0.24370  Biso   1.000  N
  N5       1.0000 0.79870  0.31400  0.89790  Biso   1.000  N
  N6       1.0000 0.79720  0.42070  0.80920  Biso   1.000  N
  N7       1.0000 0.20650  0.73010  0.91730  Biso   1.000  N
  N8       1.0000 0.12970  0.72590  0.81430  Biso   1.000  N
  N9       1.0000 0.35980  0.26760  0.33410  Biso   1.000  N
  N10      1.0000 0.21240  0.23230  0.38880  Biso   1.000  N
  N11      1.0000 0.38450  0.79240  0.69400  Biso   1.000  N
  N12      1.0000 0.24030  0.88220  0.67700  Biso   1.000  N
  N13      1.0000 0.82580  0.64180  0.24450  Biso   1.000  N
  N14      1.0000 0.82610  0.60350  0.13540  Biso   1.000  N
  N15      1.0000 0.69460  0.78200  0.33210  Biso   1.000  N
  N16      1.0000 0.54480  0.84600  0.37030  Biso   1.000  N
  O1       1.0000 0.84410  0.63530  0.42185  Biso   1.000  O
  O2       1.0000 0.00100  0.59100  0.37611  Biso   1.000  O
  O3       1.0000 0.80410  0.11870  0.98690  Biso   1.000  O
  O4       1.0000 0.96100  0.15660  0.98250  Biso   1.000  O
  O5       1.0000 0.60710  0.22440  0.00060  Biso   1.000  O
  O6       1.0000 0.55200  0.35870  0.98660  Biso   1.000  O
  O7       1.0000 0.45900  0.27390  0.15980  Biso   1.000  O
  O8       1.0000 0.44760  0.14690  0.20710  Biso   1.000  O
  C61      1.0000 0.90230  0.47490  0.00790  Biso   1.000  C
  H62      1.0000 0.83610  0.45780  0.01350  Biso   1.000  H
  C62      1.0000 0.47870  0.93910  0.46070  Biso   1.000  C
  C63      1.0000 0.47680  0.02130  0.42730  Biso   1.000  C
  H63      1.0000 0.46060  0.03630  0.37750  Biso   1.000  H
  C64      1.0000 0.50160  0.91810  0.53380  Biso   1.000  C
  H64      1.0000 0.50280  0.86340  0.55760  Biso   1.000  H
  Zn4      1.0000 0.16774  0.29143  0.67405  Biso   1.000  Zn
  Zn5      1.0000 0.24334  0.76305  0.01226  Biso   1.000  Zn
  Zn6      1.0000 0.51340  0.72487  0.73608  Biso   1.000  Zn
  C65      1.0000 0.06580  0.41170  0.57340  Biso   1.000  C
  C66      1.0000 0.04760  0.46970  0.50030  Biso   1.000  C
  H65      1.0000 0.04420  0.43650  0.46170  Biso   1.000  H
  H66      1.0000 0.10770  0.49960  0.48780  Biso   1.000  H
  C67      1.0000 0.09850  0.89750  0.01260  Biso   1.000  C
  C68      1.0000 0.05430  0.98990  0.00520  Biso   1.000  C
  H67      1.0000 0.09130  0.01990  0.96350  Biso   1.000  H
  H68      1.0000 0.06980  0.00990  0.04970  Biso   1.000  H
  C69      1.0000 0.46540  0.71410  0.99990  Biso   1.000  C
  C70      1.0000 0.57390  0.73850  0.98400  Biso   1.000  C
  H69      1.0000 0.59860  0.75070  0.02950  Biso   1.000  H
  H70      1.0000 0.62070  0.69150  0.97010  Biso   1.000  H
  C71      1.0000 0.58150  0.81330  0.92300  Biso   1.000  C
  H71      1.0000 0.53350  0.86030  0.93600  Biso   1.000  H
  H72      1.0000 0.65210  0.82800  0.92030  Biso   1.000  H
  C72      1.0000 0.55590  0.79760  0.84640  Biso   1.000  C
  C73      1.0000 0.05230  0.15310  0.76070  Biso   1.000  C
  H73      1.0000 0.10490  0.13270  0.79420  Biso   1.000  H
  C74      1.0000 0.96090  0.12420  0.76190  Biso   1.000  C
  H74      1.0000 0.93850  0.08060  0.79570  Biso   1.000  H
  C75      1.0000 0.96710  0.22480  0.67080  Biso   1.000  C
  H75      1.0000 0.94860  0.26390  0.62910  Biso   1.000  H
  C76      1.0000 0.49340  0.55650  0.82450  Biso   1.000  C
  H76      1.0000 0.50860  0.57820  0.86580  Biso   1.000  H
  C77      1.0000 0.47710  0.48030  0.82770  Biso   1.000  C
  H77      1.0000 0.47880  0.43840  0.86900  Biso   1.000  H
  C78      1.0000 0.46790  0.55170  0.71450  Biso   1.000  C
  H78      1.0000 0.46220  0.56330  0.66320  Biso   1.000  H
  C79      1.0000 0.79950  0.16140  0.68240  Biso   1.000  C
  H79      1.0000 0.78300  0.10670  0.70470  Biso   1.000  H
  H80      1.0000 0.80110  0.16450  0.62880  Biso   1.000  H
  C80      1.0000 0.71490  0.22450  0.70420  Biso   1.000  C
  C81      1.0000 0.64560  0.20700  0.76480  Biso   1.000  C
  H81      1.0000 0.65580  0.15540  0.79520  Biso   1.000  H
  C82      1.0000 0.56240  0.26440  0.78060  Biso   1.000  C
  H82      1.0000 0.52020  0.25520  0.82390  Biso   1.000  H
  C83      1.0000 0.54340  0.33910  0.72750  Biso   1.000  C
  C84      1.0000 0.61520  0.35690  0.67580  Biso   1.000  C
  H83      1.0000 0.60850  0.40980  0.64750  Biso   1.000  H
  C85      1.0000 0.69970  0.30100  0.66140  Biso   1.000  C
  H84      1.0000 0.74720  0.31520  0.62230  Biso   1.000  H
  C86      1.0000 0.44170  0.39800  0.73150  Biso   1.000  C
  H85      1.0000 0.39170  0.37050  0.76560  Biso   1.000  H
  H86      1.0000 0.41230  0.41100  0.68270  Biso   1.000  H
  C87      1.0000 0.11320  0.69680  0.14810  Biso   1.000  C
  H87      1.0000 0.06110  0.74250  0.14220  Biso   1.000  H
  C88      1.0000 0.11410  0.63070  0.20310  Biso   1.000  C
  H88      1.0000 0.06380  0.62230  0.24170  Biso   1.000  H
  C89      1.0000 0.25280  0.61390  0.13030  Biso   1.000  C
  H89      1.0000 0.31610  0.59030  0.11030  Biso   1.000  H
  C90      1.0000 0.73090  0.32010  0.12590  Biso   1.000  C
  H90      1.0000 0.66470  0.34740  0.11300  Biso   1.000  H
  C91      1.0000 0.77580  0.32490  0.18790  Biso   1.000  C
  H91      1.0000 0.74930  0.35580  0.22490  Biso   1.000  H
  C92      1.0000 0.87800  0.24270  0.12160  Biso   1.000  C
  H92      1.0000 0.93510  0.20680  0.10680  Biso   1.000  H
  C93      1.0000 0.23790  0.49740  0.23570  Biso   1.000  C
  H93      1.0000 0.30620  0.47530  0.21620  Biso   1.000  H
  H94      1.0000 0.24550  0.50460  0.28660  Biso   1.000  H
  C94      1.0000 0.16240  0.43620  0.23510  Biso   1.000  C
  C95      1.0000 0.16750  0.38680  0.17850  Biso   1.000  C
  H95      1.0000 0.21810  0.39250  0.13980  Biso   1.000  H
  C96      1.0000 0.09870  0.33090  0.18030  Biso   1.000  C
  H96      1.0000 0.10310  0.29900  0.14250  Biso   1.000  H
  C97      1.0000 0.02290  0.32040  0.23690  Biso   1.000  C
  C98      1.0000 0.01710  0.36900  0.29050  Biso   1.000  C
  H97      1.0000 0.96530  0.36410  0.32850  Biso   1.000  H
  C99      1.0000 0.08620  0.42540  0.28980  Biso   1.000  C
  H98      1.0000 0.08070  0.45710  0.32780  Biso   1.000  H
  C100     1.0000 0.94960  0.25570  0.24200  Biso   1.000  C
  H99      1.0000 0.91420  0.25020  0.29090  Biso   1.000  H
  H100     1.0000 0.99100  0.20260  0.23740  Biso   1.000  H
  C101     1.0000 0.66780  0.68710  0.60860  Biso   1.000  C
  H101     1.0000 0.63070  0.64760  0.59580  Biso   1.000  H
  C102     1.0000 0.75700  0.70970  0.57470  Biso   1.000  C
  H102     1.0000 0.79180  0.68970  0.53370  Biso   1.000  H
  C103     1.0000 0.71490  0.77930  0.66560  Biso   1.000  C
  H103     1.0000 0.71680  0.81580  0.69900  Biso   1.000  H
  C104     1.0000 0.66910  0.22490  0.36370  Biso   1.000  C
  H104     1.0000 0.64910  0.26790  0.39100  Biso   1.000  H
  C105     1.0000 0.75530  0.16820  0.37300  Biso   1.000  C
  H105     1.0000 0.80430  0.16470  0.40880  Biso   1.000  H
  C106     1.0000 0.66980  0.14490  0.28310  Biso   1.000  C
  H106     1.0000 0.65150  0.12050  0.24430  Biso   1.000  H
  C107     1.0000 0.88020  0.81190  0.59140  Biso   1.000  C
  H107     1.0000 0.89040  0.84200  0.63100  Biso   1.000  H
  H108     1.0000 0.94220  0.77160  0.58680  Biso   1.000  H
  C108     1.0000 0.86770  0.87230  0.51910  Biso   1.000  C
  C109     1.0000 0.77140  0.89940  0.48640  Biso   1.000  C
  H109     1.0000 0.71140  0.88010  0.51010  Biso   1.000  H
  C110     1.0000 0.76210  0.95450  0.41920  Biso   1.000  C
  H110     1.0000 0.69710  0.97000  0.39810  Biso   1.000  H
  C111     1.0000 0.84910  0.98570  0.38440  Biso   1.000  C
  C112     1.0000 0.94380  0.95410  0.41260  Biso   1.000  C
  H111     1.0000 0.00400  0.97250  0.38830  Biso   1.000  H
  C113     1.0000 0.95360  0.89540  0.47630  Biso   1.000  C
  H112     1.0000 0.02030  0.87080  0.49070  Biso   1.000  H
  C114     1.0000 0.83830  0.04850  0.31290  Biso   1.000  C
  H113     1.0000 0.81910  0.02190  0.27330  Biso   1.000  H
  H114     1.0000 0.90520  0.06840  0.29830  Biso   1.000  H
  C115     1.0000 0.16320  0.44310  0.74590  Biso   1.000  C
  H115     1.0000 0.15700  0.47850  0.70050  Biso   1.000  H
  C116     1.0000 0.16270  0.46730  0.81360  Biso   1.000  C
  H116     1.0000 0.15600  0.52160  0.82310  Biso   1.000  H
  C117     1.0000 0.18030  0.33310  0.82800  Biso   1.000  C
  H117     1.0000 0.18820  0.27770  0.85050  Biso   1.000  H
  C118     1.0000 0.17660  0.39280  0.94620  Biso   1.000  C
  H118     1.0000 0.17480  0.33590  0.97080  Biso   1.000  H
  H119     1.0000 0.24160  0.41000  0.95780  Biso   1.000  H
  C119     1.0000 0.08570  0.44760  0.97500  Biso   1.000  C
  C120     1.0000 0.98520  0.42380  0.98310  Biso   1.000  C
  H120     1.0000 0.97490  0.37290  0.97150  Biso   1.000  H
  C121     1.0000 0.34300  0.15620  0.72390  Biso   1.000  C
  H121     1.0000 0.30980  0.14360  0.77040  Biso   1.000  H
  C122     1.0000 0.43270  0.11770  0.70170  Biso   1.000  C
  H122     1.0000 0.47390  0.07380  0.72950  Biso   1.000  H
  C123     1.0000 0.37520  0.21330  0.61440  Biso   1.000  C
  H123     1.0000 0.36990  0.24850  0.56880  Biso   1.000  H
  C124     1.0000 0.54490  0.12480  0.58410  Biso   1.000  C
  H124     1.0000 0.56740  0.17180  0.55040  Biso   1.000  H
  H125     1.0000 0.60240  0.10060  0.61590  Biso   1.000  H
  N17      1.0000 0.05730  0.21680  0.70340  Biso   1.000  N
  N18      1.0000 0.90680  0.17030  0.70470  Biso   1.000  N
  N19      1.0000 0.48610  0.60350  0.75270  Biso   1.000  N
  N20      1.0000 0.45710  0.47580  0.75630  Biso   1.000  N
  N21      1.0000 0.20130  0.68600  0.10210  Biso   1.000  N
  N22      1.0000 0.20280  0.57930  0.19080  Biso   1.000  N
  N23      1.0000 0.79350  0.26990  0.08270  Biso   1.000  N
  N24      1.0000 0.87030  0.27410  0.18570  Biso   1.000  N
  N25      1.0000 0.64020  0.73240  0.66590  Biso   1.000  N
  N26      1.0000 0.78760  0.76770  0.61120  Biso   1.000  N
  N27      1.0000 0.61550  0.20760  0.30600  Biso   1.000  N
  N28      1.0000 0.75970  0.11780  0.32300  Biso   1.000  N
  N29      1.0000 0.17420  0.35820  0.75550  Biso   1.000  N
  N30      1.0000 0.17390  0.39650  0.86460  Biso   1.000  N
  N31      1.0000 0.30540  0.21800  0.66790  Biso   1.000  N
  N32      1.0000 0.45520  0.15400  0.62970  Biso   1.000  N
  O9       1.0000 0.15590  0.36470  0.57815  Biso   1.000  O
  O10      1.0000 0.99900  0.40900  0.62389  Biso   1.000  O
  O11      1.0000 0.19590  0.88130  0.01310  Biso   1.000  O
  O12      1.0000 0.03900  0.84340  0.01750  Biso   1.000  O
  O13      1.0000 0.39290  0.77560  0.99940  Biso   1.000  O
  O14      1.0000 0.44800  0.64130  0.01340  Biso   1.000  O
  O15      1.0000 0.54100  0.72610  0.84020  Biso   1.000  O
  O16      1.0000 0.55240  0.85310  0.79290  Biso   1.000  O
  C125     1.0000 0.09770  0.52510  0.99210  Biso   1.000  C
  H126     1.0000 0.16390  0.54220  0.98650  Biso   1.000  H
  C126     1.0000 0.52130  0.06090  0.53930  Biso   1.000  C
  C127     1.0000 0.52320  0.97870  0.57270  Biso   1.000  C
  H127     1.0000 0.53940  0.96370  0.62250  Biso   1.000  H
  C128     1.0000 0.49840  0.08190  0.46620  Biso   1.000  C
  H128     1.0000 0.49720  0.13660  0.44240  Biso   1.000  H
