data_image0
_cell_length_a       10.1353
_cell_length_b       17.3501
_cell_length_c       11.3594
_cell_angle_alpha    90
_cell_angle_beta     109.798
_cell_angle_gamma    90

_symmetry_space_group_name_H-M    "P 1"
_symmetry_int_tables_number       1

loop_
  _symmetry_equiv_pos_as_xyz
  'x, y, z'

loop_
  _atom_site_label
  _atom_site_occupancy
  _atom_site_fract_x
  _atom_site_fract_y
  _atom_site_fract_z
  _atom_site_thermal_displace_type
  _atom_site_B_iso_or_equiv
  _atom_site_type_symbol
  Dy1      1.0000 0.00801  0.49312  0.68018  Biso   1.000  Dy
  O1       1.0000 0.22760  0.51499  0.65520  Biso   1.000  O
  O2       1.0000 0.85590  0.58307  0.72460  Biso   1.000  O
  O3       1.0000 0.20920  0.54737  0.45850  Biso   1.000  O
  O4       1.0000 0.91100  0.43243  0.81680  Biso   1.000  O
  N1       1.0000 0.23080  0.53040  0.90830  Biso   1.000  N
  O5       1.0000 0.05990  0.13947  0.15830  Biso   1.000  O
  O6       1.0000 0.14500  0.58142  0.84350  Biso   1.000  O
  O7       1.0000 0.02700  0.08401  0.97630  Biso   1.000  O
  N2       1.0000 0.71700  0.57514  0.69000  Biso   1.000  N
  O8       1.0000 0.33460  0.54783  0.99550  Biso   1.000  O
  N3       1.0000 0.94590  0.36340  0.86940  Biso   1.000  N
  C1       1.0000 0.63490  0.60160  0.57600  Biso   1.000  C
  H1       1.0000 0.67480  0.62660  0.52390  Biso   1.000  H
  C2       1.0000 0.03740  0.14350  0.04240  Biso   1.000  C
  C3       1.0000 0.51830  0.53190  0.73470  Biso   1.000  C
  H2       1.0000 0.48010  0.50970  0.79040  Biso   1.000  H
  C4       1.0000 0.49250  0.59090  0.53860  Biso   1.000  C
  H3       1.0000 0.43640  0.60790  0.45990  Biso   1.000  H
  C5       1.0000 0.93680  0.22820  0.85280  Biso   1.000  C
  H4       1.0000 0.90980  0.18420  0.80360  Biso   1.000  H
  C6       1.0000 0.43030  0.55510  0.61640  Biso   1.000  C
  C7       1.0000 0.27640  0.53790  0.57410  Biso   1.000  C
  O9       1.0000 0.20110  0.46079  0.87690  Biso   1.000  O
  C8       1.0000 0.66070  0.54180  0.76900  Biso   1.000  C
  H5       1.0000 0.71870  0.52530  0.84730  Biso   1.000  H
  C9       1.0000 0.01020  0.22120  0.98010  Biso   1.000  C
  C10      1.0000 0.01930  0.35880  0.99280  Biso   1.000  C
  H6       1.0000 0.04880  0.40360  0.03910  Biso   1.000  H
  C11      1.0000 0.05090  0.28820  0.05050  Biso   1.000  C
  H7       1.0000 0.09910  0.28520  0.13610  Biso   1.000  H
  C12      1.0000 0.90420  0.29910  0.79980  Biso   1.000  C
  H8       1.0000 0.85280  0.30340  0.71500  Biso   1.000  H
  Dy2      1.0000 0.99199  0.99312  0.81982  Biso   1.000  Dy
  O10      1.0000 0.77240  0.01499  0.84480  Biso   1.000  O
  O11      1.0000 0.14410  0.08307  0.77540  Biso   1.000  O
  O12      1.0000 0.79080  0.04737  0.04150  Biso   1.000  O
  O13      1.0000 0.08900  0.93243  0.68320  Biso   1.000  O
  N4       1.0000 0.76920  0.03040  0.59170  Biso   1.000  N
  O14      1.0000 0.94010  0.63947  0.34170  Biso   1.000  O
  O15      1.0000 0.85500  0.08142  0.65650  Biso   1.000  O
  O16      1.0000 0.97300  0.58401  0.52370  Biso   1.000  O
  N5       1.0000 0.28300  0.07514  0.81000  Biso   1.000  N
  O17      1.0000 0.66540  0.04783  0.50450  Biso   1.000  O
  N6       1.0000 0.05410  0.86340  0.63060  Biso   1.000  N
  C13      1.0000 0.36510  0.10160  0.92400  Biso   1.000  C
  H9       1.0000 0.32520  0.12660  0.97610  Biso   1.000  H
  C14      1.0000 0.96260  0.64350  0.45760  Biso   1.000  C
  C15      1.0000 0.48170  0.03190  0.76530  Biso   1.000  C
  H10      1.0000 0.51990  0.00970  0.70960  Biso   1.000  H
  C16      1.0000 0.50750  0.09090  0.96140  Biso   1.000  C
  H11      1.0000 0.56360  0.10790  0.04010  Biso   1.000  H
  C17      1.0000 0.06320  0.72820  0.64720  Biso   1.000  C
  H12      1.0000 0.09020  0.68420  0.69640  Biso   1.000  H
  C18      1.0000 0.56970  0.05510  0.88360  Biso   1.000  C
  C19      1.0000 0.72360  0.03790  0.92590  Biso   1.000  C
  O18      1.0000 0.79890  0.96079  0.62310  Biso   1.000  O
  C20      1.0000 0.33930  0.04180  0.73100  Biso   1.000  C
  H13      1.0000 0.28130  0.02530  0.65270  Biso   1.000  H
  C21      1.0000 0.98980  0.72120  0.51990  Biso   1.000  C
  C22      1.0000 0.98070  0.85880  0.50720  Biso   1.000  C
  H14      1.0000 0.95120  0.90360  0.46090  Biso   1.000  H
  C23      1.0000 0.94910  0.78820  0.44950  Biso   1.000  C
  H15      1.0000 0.90090  0.78520  0.36390  Biso   1.000  H
  C24      1.0000 0.09580  0.79910  0.70020  Biso   1.000  C
  H16      1.0000 0.14720  0.80340  0.78500  Biso   1.000  H
  Dy3      1.0000 0.99199  0.50688  0.31982  Biso   1.000  Dy
  O19      1.0000 0.77240  0.48501  0.34480  Biso   1.000  O
  O20      1.0000 0.14410  0.41693  0.27540  Biso   1.000  O
  O21      1.0000 0.79080  0.45263  0.54150  Biso   1.000  O
  O22      1.0000 0.08900  0.56757  0.18320  Biso   1.000  O
  N7       1.0000 0.76920  0.46960  0.09170  Biso   1.000  N
  O23      1.0000 0.94010  0.86053  0.84170  Biso   1.000  O
  O24      1.0000 0.85500  0.41858  0.15650  Biso   1.000  O
  O25      1.0000 0.97300  0.91599  0.02370  Biso   1.000  O
  N8       1.0000 0.28300  0.42486  0.31000  Biso   1.000  N
  O26      1.0000 0.66540  0.45217  0.00450  Biso   1.000  O
  N9       1.0000 0.05410  0.63660  0.13060  Biso   1.000  N
  C25      1.0000 0.36510  0.39840  0.42400  Biso   1.000  C
  H17      1.0000 0.32520  0.37340  0.47610  Biso   1.000  H
  C26      1.0000 0.96260  0.85650  0.95760  Biso   1.000  C
  C27      1.0000 0.48170  0.46810  0.26530  Biso   1.000  C
  H18      1.0000 0.51990  0.49030  0.20960  Biso   1.000  H
  C28      1.0000 0.50750  0.40910  0.46140  Biso   1.000  C
  H19      1.0000 0.56360  0.39210  0.54010  Biso   1.000  H
  C29      1.0000 0.06320  0.77180  0.14720  Biso   1.000  C
  H20      1.0000 0.09020  0.81580  0.19640  Biso   1.000  H
  C30      1.0000 0.56970  0.44490  0.38360  Biso   1.000  C
  C31      1.0000 0.72360  0.46210  0.42590  Biso   1.000  C
  O27      1.0000 0.79890  0.53921  0.12310  Biso   1.000  O
  C32      1.0000 0.33930  0.45820  0.23100  Biso   1.000  C
  H21      1.0000 0.28130  0.47470  0.15270  Biso   1.000  H
  C33      1.0000 0.98980  0.77880  0.01990  Biso   1.000  C
  C34      1.0000 0.98070  0.64120  0.00720  Biso   1.000  C
  H22      1.0000 0.95120  0.59640  0.96090  Biso   1.000  H
  C35      1.0000 0.94910  0.71180  0.94950  Biso   1.000  C
  H23      1.0000 0.90090  0.71480  0.86390  Biso   1.000  H
  C36      1.0000 0.09580  0.70090  0.20020  Biso   1.000  C
  H24      1.0000 0.14720  0.69660  0.28500  Biso   1.000  H
  Dy4      1.0000 0.00801  0.00688  0.18018  Biso   1.000  Dy
  O28      1.0000 0.22760  0.98501  0.15520  Biso   1.000  O
  O29      1.0000 0.85590  0.91693  0.22460  Biso   1.000  O
  O30      1.0000 0.20920  0.95263  0.95850  Biso   1.000  O
  O31      1.0000 0.91100  0.06757  0.31680  Biso   1.000  O
  N10      1.0000 0.23080  0.96960  0.40830  Biso   1.000  N
  O32      1.0000 0.05990  0.36053  0.65830  Biso   1.000  O
  O33      1.0000 0.14500  0.91858  0.34350  Biso   1.000  O
  O34      1.0000 0.02700  0.41599  0.47630  Biso   1.000  O
  N11      1.0000 0.71700  0.92486  0.19000  Biso   1.000  N
  O35      1.0000 0.33460  0.95217  0.49550  Biso   1.000  O
  N12      1.0000 0.94590  0.13660  0.36940  Biso   1.000  N
  C37      1.0000 0.63490  0.89840  0.07600  Biso   1.000  C
  H25      1.0000 0.67480  0.87340  0.02390  Biso   1.000  H
  C38      1.0000 0.03740  0.35650  0.54240  Biso   1.000  C
  C39      1.0000 0.51830  0.96810  0.23470  Biso   1.000  C
  H26      1.0000 0.48010  0.99030  0.29040  Biso   1.000  H
  C40      1.0000 0.49250  0.90910  0.03860  Biso   1.000  C
  H27      1.0000 0.43640  0.89210  0.95990  Biso   1.000  H
  C41      1.0000 0.93680  0.27180  0.35280  Biso   1.000  C
  H28      1.0000 0.90980  0.31580  0.30360  Biso   1.000  H
  C42      1.0000 0.43030  0.94490  0.11640  Biso   1.000  C
  C43      1.0000 0.27640  0.96210  0.07410  Biso   1.000  C
  O36      1.0000 0.20110  0.03921  0.37690  Biso   1.000  O
  C44      1.0000 0.66070  0.95820  0.26900  Biso   1.000  C
  H29      1.0000 0.71870  0.97470  0.34730  Biso   1.000  H
  C45      1.0000 0.01020  0.27880  0.48010  Biso   1.000  C
  C46      1.0000 0.01930  0.14120  0.49280  Biso   1.000  C
  H30      1.0000 0.04880  0.09640  0.53910  Biso   1.000  H
  C47      1.0000 0.05090  0.21180  0.55050  Biso   1.000  C
  H31      1.0000 0.09910  0.21480  0.63610  Biso   1.000  H
  C48      1.0000 0.90420  0.20090  0.29980  Biso   1.000  C
  H32      1.0000 0.85280  0.19660  0.21500  Biso   1.000  H
