data_image0
_cell_length_a       11.2582
_cell_length_b       11.8812
_cell_length_c       16.2122
_cell_angle_alpha    90
_cell_angle_beta     129.572
_cell_angle_gamma    90

_symmetry_space_group_name_H-M    "P 1"
_symmetry_int_tables_number       1

loop_
  _symmetry_equiv_pos_as_xyz
  'x, y, z'

loop_
  _atom_site_label
  _atom_site_occupancy
  _atom_site_fract_x
  _atom_site_fract_y
  _atom_site_fract_z
  _atom_site_thermal_displace_type
  _atom_site_B_iso_or_equiv
  _atom_site_type_symbol
  C1       1.0000 0.14170  0.89378  0.76829  Biso   1.000  C
  C2       1.0000 0.08310  0.80567  0.69634  Biso   1.000  C
  H1       1.0000 0.97890  0.78520  0.65530  Biso   1.000  H
  C3       1.0000 0.17952  0.74726  0.68498  Biso   1.000  C
  C4       1.0000 0.11790  0.65034  0.60947  Biso   1.000  C
  C5       1.0000 0.33302  0.77904  0.74508  Biso   1.000  C
  H2       1.0000 0.39800  0.74000  0.73730  Biso   1.000  H
  C6       1.0000 0.39090  0.86837  0.81667  Biso   1.000  C
  C7       1.0000 0.29570  0.92530  0.82933  Biso   1.000  C
  H3       1.0000 0.33490  0.98470  0.87870  Biso   1.000  H
  C8       1.0000 0.55580  0.90342  0.87993  Biso   1.000  C
  O1       1.0000 0.06653  0.92820  0.88699  Biso   1.000  O
  O2       1.0000 0.86577  0.93933  0.69636  Biso   1.000  O
  O3       1.0000 0.06000  0.08601  0.79104  Biso   1.000  O
  O4       1.0000 0.21448  0.57927  0.62625  Biso   1.000  O
  O5       1.0000 0.97489  0.64654  0.53464  Biso   1.000  O
  O6       1.0000 0.64042  0.85290  0.86767  Biso   1.000  O
  O7       1.0000 0.60626  0.98427  0.94421  Biso   1.000  O
  S1       1.0000 0.02221  0.96954  0.78479  Biso   1.000  S
  Zn1      1.0000 0.17720  0.02597  0.01796  Biso   1.000  Zn
  C9       1.0000 0.85830  0.39378  0.73171  Biso   1.000  C
  C10      1.0000 0.91690  0.30567  0.80366  Biso   1.000  C
  H4       1.0000 0.02110  0.28520  0.84470  Biso   1.000  H
  C11      1.0000 0.82048  0.24726  0.81502  Biso   1.000  C
  C12      1.0000 0.88210  0.15034  0.89053  Biso   1.000  C
  C13      1.0000 0.66698  0.27904  0.75492  Biso   1.000  C
  H5       1.0000 0.60200  0.24000  0.76270  Biso   1.000  H
  C14      1.0000 0.60910  0.36837  0.68333  Biso   1.000  C
  C15      1.0000 0.70430  0.42530  0.67067  Biso   1.000  C
  H6       1.0000 0.66510  0.48470  0.62130  Biso   1.000  H
  C16      1.0000 0.44420  0.40342  0.62007  Biso   1.000  C
  O8       1.0000 0.93347  0.42820  0.61301  Biso   1.000  O
  O9       1.0000 0.13423  0.43933  0.80364  Biso   1.000  O
  O10      1.0000 0.94000  0.58601  0.70896  Biso   1.000  O
  O11      1.0000 0.78552  0.07927  0.87375  Biso   1.000  O
  O12      1.0000 0.02511  0.14654  0.96536  Biso   1.000  O
  O13      1.0000 0.35958  0.35290  0.63233  Biso   1.000  O
  O14      1.0000 0.39374  0.48427  0.55579  Biso   1.000  O
  S2       1.0000 0.97779  0.46954  0.71521  Biso   1.000  S
  Zn2      1.0000 0.82280  0.52597  0.48204  Biso   1.000  Zn
  C17      1.0000 0.85830  0.10622  0.23171  Biso   1.000  C
  C18      1.0000 0.91690  0.19433  0.30366  Biso   1.000  C
  H7       1.0000 0.02110  0.21480  0.34470  Biso   1.000  H
  C19      1.0000 0.82048  0.25274  0.31502  Biso   1.000  C
  C20      1.0000 0.88210  0.34966  0.39053  Biso   1.000  C
  C21      1.0000 0.66698  0.22096  0.25492  Biso   1.000  C
  H8       1.0000 0.60200  0.26000  0.26270  Biso   1.000  H
  C22      1.0000 0.60910  0.13163  0.18333  Biso   1.000  C
  C23      1.0000 0.70430  0.07470  0.17067  Biso   1.000  C
  H9       1.0000 0.66510  0.01530  0.12130  Biso   1.000  H
  C24      1.0000 0.44420  0.09658  0.12007  Biso   1.000  C
  O15      1.0000 0.93347  0.07180  0.11301  Biso   1.000  O
  O16      1.0000 0.13423  0.06067  0.30364  Biso   1.000  O
  O17      1.0000 0.94000  0.91399  0.20896  Biso   1.000  O
  O18      1.0000 0.78552  0.42073  0.37375  Biso   1.000  O
  O19      1.0000 0.02511  0.35346  0.46536  Biso   1.000  O
  O20      1.0000 0.35958  0.14710  0.13233  Biso   1.000  O
  O21      1.0000 0.39374  0.01573  0.05579  Biso   1.000  O
  S3       1.0000 0.97779  0.03046  0.21521  Biso   1.000  S
  Zn3      1.0000 0.82280  0.97403  0.98204  Biso   1.000  Zn
  C25      1.0000 0.14170  0.60622  0.26829  Biso   1.000  C
  C26      1.0000 0.08310  0.69433  0.19634  Biso   1.000  C
  H10      1.0000 0.97890  0.71480  0.15530  Biso   1.000  H
  C27      1.0000 0.17952  0.75274  0.18498  Biso   1.000  C
  C28      1.0000 0.11790  0.84966  0.10947  Biso   1.000  C
  C29      1.0000 0.33302  0.72096  0.24508  Biso   1.000  C
  H11      1.0000 0.39800  0.76000  0.23730  Biso   1.000  H
  C30      1.0000 0.39090  0.63163  0.31667  Biso   1.000  C
  C31      1.0000 0.29570  0.57470  0.32933  Biso   1.000  C
  H12      1.0000 0.33490  0.51530  0.37870  Biso   1.000  H
  C32      1.0000 0.55580  0.59658  0.37993  Biso   1.000  C
  O22      1.0000 0.06653  0.57180  0.38699  Biso   1.000  O
  O23      1.0000 0.86577  0.56067  0.19636  Biso   1.000  O
  O24      1.0000 0.06000  0.41399  0.29104  Biso   1.000  O
  O25      1.0000 0.21448  0.92073  0.12625  Biso   1.000  O
  O26      1.0000 0.97489  0.85346  0.03464  Biso   1.000  O
  O27      1.0000 0.64042  0.64710  0.36767  Biso   1.000  O
  O28      1.0000 0.60626  0.51573  0.44421  Biso   1.000  O
  S4       1.0000 0.02221  0.53046  0.28479  Biso   1.000  S
  Zn4      1.0000 0.17720  0.47403  0.51796  Biso   1.000  Zn
