data_image0
_cell_length_a       11.2208
_cell_length_b       11.7575
_cell_length_c       16.2014
_cell_angle_alpha    90
_cell_angle_beta     129.17
_cell_angle_gamma    90

_symmetry_space_group_name_H-M    "P 1"
_symmetry_int_tables_number       1

loop_
  _symmetry_equiv_pos_as_xyz
  'x, y, z'

loop_
  _atom_site_label
  _atom_site_occupancy
  _atom_site_fract_x
  _atom_site_fract_y
  _atom_site_fract_z
  _atom_site_thermal_displace_type
  _atom_site_B_iso_or_equiv
  _atom_site_type_symbol
  Zn1      1.0000 0.17659  0.02719  0.01762  Biso   1.000  Zn
  S1       1.0000 0.02169  0.97379  0.78517  Biso   1.000  S
  O1       1.0000 0.06269  0.92963  0.88587  Biso   1.000  O
  O2       1.0000 0.86555  0.94595  0.69596  Biso   1.000  O
  O3       1.0000 0.06260  0.09157  0.79461  Biso   1.000  O
  O4       1.0000 0.21350  0.57976  0.62536  Biso   1.000  O
  O5       1.0000 0.97498  0.64971  0.53342  Biso   1.000  O
  O6       1.0000 0.64156  0.85211  0.86878  Biso   1.000  O
  O7       1.0000 0.60734  0.98590  0.94563  Biso   1.000  O
  C1       1.0000 0.14160  0.89782  0.76806  Biso   1.000  C
  C2       1.0000 0.08280  0.80947  0.69552  Biso   1.000  C
  H1       1.0000 0.97740  0.78930  0.65370  Biso   1.000  H
  C3       1.0000 0.17950  0.75024  0.68415  Biso   1.000  C
  C4       1.0000 0.11730  0.65266  0.60838  Biso   1.000  C
  C5       1.0000 0.33320  0.78114  0.74468  Biso   1.000  C
  H2       1.0000 0.39890  0.74110  0.73670  Biso   1.000  H
  C6       1.0000 0.39130  0.87061  0.81703  Biso   1.000  C
  C7       1.0000 0.29590  0.92857  0.82967  Biso   1.000  C
  H3       1.0000 0.33550  0.98870  0.87990  Biso   1.000  H
  C8       1.0000 0.55630  0.90431  0.88079  Biso   1.000  C
  Zn2      1.0000 0.82341  0.52719  0.48238  Biso   1.000  Zn
  S2       1.0000 0.97831  0.47379  0.71483  Biso   1.000  S
  O8       1.0000 0.93731  0.42963  0.61413  Biso   1.000  O
  O9       1.0000 0.13445  0.44595  0.80404  Biso   1.000  O
  O10      1.0000 0.93740  0.59157  0.70539  Biso   1.000  O
  O11      1.0000 0.78650  0.07976  0.87464  Biso   1.000  O
  O12      1.0000 0.02502  0.14971  0.96658  Biso   1.000  O
  O13      1.0000 0.35844  0.35211  0.63122  Biso   1.000  O
  O14      1.0000 0.39266  0.48590  0.55437  Biso   1.000  O
  C9       1.0000 0.85840  0.39782  0.73194  Biso   1.000  C
  C10      1.0000 0.91720  0.30947  0.80448  Biso   1.000  C
  H4       1.0000 0.02260  0.28930  0.84630  Biso   1.000  H
  C11      1.0000 0.82050  0.25024  0.81585  Biso   1.000  C
  C12      1.0000 0.88270  0.15266  0.89162  Biso   1.000  C
  C13      1.0000 0.66680  0.28114  0.75532  Biso   1.000  C
  H5       1.0000 0.60110  0.24110  0.76330  Biso   1.000  H
  C14      1.0000 0.60870  0.37061  0.68297  Biso   1.000  C
  C15      1.0000 0.70410  0.42857  0.67033  Biso   1.000  C
  H6       1.0000 0.66450  0.48870  0.62010  Biso   1.000  H
  C16      1.0000 0.44370  0.40431  0.61921  Biso   1.000  C
  Zn3      1.0000 0.82341  0.97281  0.98238  Biso   1.000  Zn
  S3       1.0000 0.97831  0.02621  0.21483  Biso   1.000  S
  O15      1.0000 0.93731  0.07037  0.11413  Biso   1.000  O
  O16      1.0000 0.13445  0.05405  0.30404  Biso   1.000  O
  O17      1.0000 0.93740  0.90843  0.20539  Biso   1.000  O
  O18      1.0000 0.78650  0.42024  0.37464  Biso   1.000  O
  O19      1.0000 0.02502  0.35029  0.46658  Biso   1.000  O
  O20      1.0000 0.35844  0.14789  0.13122  Biso   1.000  O
  O21      1.0000 0.39266  0.01410  0.05437  Biso   1.000  O
  C17      1.0000 0.85840  0.10218  0.23194  Biso   1.000  C
  C18      1.0000 0.91720  0.19053  0.30448  Biso   1.000  C
  H7       1.0000 0.02260  0.21070  0.34630  Biso   1.000  H
  C19      1.0000 0.82050  0.24976  0.31585  Biso   1.000  C
  C20      1.0000 0.88270  0.34734  0.39162  Biso   1.000  C
  C21      1.0000 0.66680  0.21886  0.25532  Biso   1.000  C
  H8       1.0000 0.60110  0.25890  0.26330  Biso   1.000  H
  C22      1.0000 0.60870  0.12939  0.18297  Biso   1.000  C
  C23      1.0000 0.70410  0.07143  0.17033  Biso   1.000  C
  H9       1.0000 0.66450  0.01130  0.12010  Biso   1.000  H
  C24      1.0000 0.44370  0.09569  0.11921  Biso   1.000  C
  Zn4      1.0000 0.17659  0.47281  0.51762  Biso   1.000  Zn
  S4       1.0000 0.02169  0.52621  0.28517  Biso   1.000  S
  O22      1.0000 0.06269  0.57037  0.38587  Biso   1.000  O
  O23      1.0000 0.86555  0.55405  0.19596  Biso   1.000  O
  O24      1.0000 0.06260  0.40843  0.29461  Biso   1.000  O
  O25      1.0000 0.21350  0.92024  0.12536  Biso   1.000  O
  O26      1.0000 0.97498  0.85029  0.03342  Biso   1.000  O
  O27      1.0000 0.64156  0.64789  0.36878  Biso   1.000  O
  O28      1.0000 0.60734  0.51410  0.44563  Biso   1.000  O
  C25      1.0000 0.14160  0.60218  0.26806  Biso   1.000  C
  C26      1.0000 0.08280  0.69053  0.19552  Biso   1.000  C
  H10      1.0000 0.97740  0.71070  0.15370  Biso   1.000  H
  C27      1.0000 0.17950  0.74976  0.18415  Biso   1.000  C
  C28      1.0000 0.11730  0.84734  0.10838  Biso   1.000  C
  C29      1.0000 0.33320  0.71886  0.24468  Biso   1.000  C
  H11      1.0000 0.39890  0.75890  0.23670  Biso   1.000  H
  C30      1.0000 0.39130  0.62939  0.31703  Biso   1.000  C
  C31      1.0000 0.29590  0.57143  0.32967  Biso   1.000  C
  H12      1.0000 0.33550  0.51130  0.37990  Biso   1.000  H
  C32      1.0000 0.55630  0.59569  0.38079  Biso   1.000  C
