data_image0
_cell_length_a       11.2499
_cell_length_b       11.7888
_cell_length_c       16.2271
_cell_angle_alpha    90
_cell_angle_beta     129.399
_cell_angle_gamma    90

_symmetry_space_group_name_H-M    "P 1"
_symmetry_int_tables_number       1

loop_
  _symmetry_equiv_pos_as_xyz
  'x, y, z'

loop_
  _atom_site_label
  _atom_site_occupancy
  _atom_site_fract_x
  _atom_site_fract_y
  _atom_site_fract_z
  _atom_site_thermal_displace_type
  _atom_site_B_iso_or_equiv
  _atom_site_type_symbol
  Zn1      1.0000 0.32333  0.47352  0.48257  Biso   1.000  Zn
  S1       1.0000 0.47775  0.52741  0.71493  Biso   1.000  S
  O1       1.0000 0.43602  0.57093  0.61406  Biso   1.000  O
  O2       1.0000 0.63422  0.55558  0.80427  Biso   1.000  O
  O3       1.0000 0.43770  0.41011  0.70631  Biso   1.000  O
  O4       1.0000 0.52514  0.85144  0.96623  Biso   1.000  O
  O5       1.0000 0.28613  0.92029  0.87447  Biso   1.000  O
  O6       1.0000 0.85869  0.64766  0.63106  Biso   1.000  O
  O7       1.0000 0.89323  0.51402  0.55505  Biso   1.000  O
  C1       1.0000 0.35810  0.60352  0.73180  Biso   1.000  C
  C2       1.0000 0.41700  0.69180  0.80419  Biso   1.000  C
  H1       1.0000 0.52240  0.71210  0.84590  Biso   1.000  H
  C3       1.0000 0.32070  0.75073  0.81548  Biso   1.000  C
  C4       1.0000 0.38260  0.84813  0.89136  Biso   1.000  C
  C5       1.0000 0.16695  0.71943  0.75518  Biso   1.000  C
  H2       1.0000 0.10150  0.75920  0.76330  Biso   1.000  H
  C6       1.0000 0.10890  0.63012  0.68305  Biso   1.000  C
  C7       1.0000 0.20420  0.57234  0.67039  Biso   1.000  C
  H3       1.0000 0.16460  0.51220  0.62030  Biso   1.000  H
  C8       1.0000 0.94380  0.59562  0.61944  Biso   1.000  C
  Zn2      1.0000 0.67667  0.97352  0.01744  Biso   1.000  Zn
  S2       1.0000 0.52225  0.02741  0.78507  Biso   1.000  S
  O8       1.0000 0.56398  0.07093  0.88594  Biso   1.000  O
  O9       1.0000 0.36578  0.05558  0.69573  Biso   1.000  O
  O10      1.0000 0.56230  0.91011  0.79369  Biso   1.000  O
  O11      1.0000 0.47486  0.35144  0.53377  Biso   1.000  O
  O12      1.0000 0.71387  0.42029  0.62553  Biso   1.000  O
  O13      1.0000 0.14131  0.14766  0.86894  Biso   1.000  O
  O14      1.0000 0.10677  0.01402  0.94495  Biso   1.000  O
  C9       1.0000 0.64190  0.10352  0.76820  Biso   1.000  C
  C10      1.0000 0.58300  0.19180  0.69581  Biso   1.000  C
  H4       1.0000 0.47760  0.21210  0.65410  Biso   1.000  H
  C11      1.0000 0.67930  0.25073  0.68452  Biso   1.000  C
  C12      1.0000 0.61740  0.34813  0.60864  Biso   1.000  C
  C13      1.0000 0.83305  0.21943  0.74482  Biso   1.000  C
  H5       1.0000 0.89850  0.25920  0.73670  Biso   1.000  H
  C14      1.0000 0.89110  0.13012  0.81695  Biso   1.000  C
  C15      1.0000 0.79580  0.07234  0.82961  Biso   1.000  C
  H6       1.0000 0.83540  0.01220  0.87970  Biso   1.000  H
  C16      1.0000 0.05620  0.09562  0.88056  Biso   1.000  C
  Zn3      1.0000 0.67667  0.52648  0.51743  Biso   1.000  Zn
  S3       1.0000 0.52225  0.47259  0.28507  Biso   1.000  S
  O15      1.0000 0.56398  0.42907  0.38594  Biso   1.000  O
  O16      1.0000 0.36578  0.44442  0.19573  Biso   1.000  O
  O17      1.0000 0.56230  0.58989  0.29369  Biso   1.000  O
  O18      1.0000 0.47486  0.14856  0.03377  Biso   1.000  O
  O19      1.0000 0.71387  0.07971  0.12553  Biso   1.000  O
  O20      1.0000 0.14131  0.35234  0.36894  Biso   1.000  O
  O21      1.0000 0.10677  0.48598  0.44495  Biso   1.000  O
  C17      1.0000 0.64190  0.39648  0.26820  Biso   1.000  C
  C18      1.0000 0.58300  0.30820  0.19581  Biso   1.000  C
  H7       1.0000 0.47760  0.28790  0.15410  Biso   1.000  H
  C19      1.0000 0.67930  0.24927  0.18452  Biso   1.000  C
  C20      1.0000 0.61740  0.15187  0.10864  Biso   1.000  C
  C21      1.0000 0.83305  0.28057  0.24482  Biso   1.000  C
  H8       1.0000 0.89850  0.24080  0.23670  Biso   1.000  H
  C22      1.0000 0.89110  0.36988  0.31695  Biso   1.000  C
  C23      1.0000 0.79580  0.42766  0.32961  Biso   1.000  C
  H9       1.0000 0.83540  0.48780  0.37970  Biso   1.000  H
  C24      1.0000 0.05620  0.40438  0.38056  Biso   1.000  C
  Zn4      1.0000 0.32333  0.02648  0.98257  Biso   1.000  Zn
  S4       1.0000 0.47775  0.97259  0.21493  Biso   1.000  S
  O22      1.0000 0.43602  0.92907  0.11406  Biso   1.000  O
  O23      1.0000 0.63422  0.94442  0.30427  Biso   1.000  O
  O24      1.0000 0.43770  0.08989  0.20631  Biso   1.000  O
  O25      1.0000 0.52514  0.64856  0.46623  Biso   1.000  O
  O26      1.0000 0.28613  0.57971  0.37447  Biso   1.000  O
  O27      1.0000 0.85869  0.85234  0.13106  Biso   1.000  O
  O28      1.0000 0.89323  0.98598  0.05505  Biso   1.000  O
  C25      1.0000 0.35810  0.89648  0.23180  Biso   1.000  C
  C26      1.0000 0.41700  0.80820  0.30419  Biso   1.000  C
  H10      1.0000 0.52240  0.78790  0.34590  Biso   1.000  H
  C27      1.0000 0.32070  0.74927  0.31548  Biso   1.000  C
  C28      1.0000 0.38260  0.65187  0.39136  Biso   1.000  C
  C29      1.0000 0.16695  0.78057  0.25518  Biso   1.000  C
  H11      1.0000 0.10150  0.74080  0.26330  Biso   1.000  H
  C30      1.0000 0.10890  0.86988  0.18305  Biso   1.000  C
  C31      1.0000 0.20420  0.92766  0.17039  Biso   1.000  C
  H12      1.0000 0.16460  0.98780  0.12030  Biso   1.000  H
  C32      1.0000 0.94380  0.90438  0.11944  Biso   1.000  C
