data_image0
_cell_length_a       11.2582
_cell_length_b       11.8812
_cell_length_c       16.2122
_cell_angle_alpha    90
_cell_angle_beta     129.572
_cell_angle_gamma    90

_symmetry_space_group_name_H-M    "P 1"
_symmetry_int_tables_number       1

loop_
  _symmetry_equiv_pos_as_xyz
  'x, y, z'

loop_
  _atom_site_label
  _atom_site_occupancy
  _atom_site_fract_x
  _atom_site_fract_y
  _atom_site_fract_z
  _atom_site_thermal_displace_type
  _atom_site_B_iso_or_equiv
  _atom_site_type_symbol
  Zn1      1.0000 0.32281  0.02597  0.48206  Biso   1.000  Zn
  S1       1.0000 0.47779  0.96953  0.71520  Biso   1.000  S
  O1       1.0000 0.43341  0.92822  0.61299  Biso   1.000  O
  O2       1.0000 0.44000  0.08593  0.70899  Biso   1.000  O
  O3       1.0000 0.63413  0.93936  0.80359  Biso   1.000  O
  O4       1.0000 0.89376  0.98428  0.55582  Biso   1.000  O
  O5       1.0000 0.85958  0.85290  0.63235  Biso   1.000  O
  O6       1.0000 0.52511  0.64646  0.96536  Biso   1.000  O
  O7       1.0000 0.28559  0.57930  0.87381  Biso   1.000  O
  C1       1.0000 0.35820  0.89373  0.73172  Biso   1.000  C
  C2       1.0000 0.20440  0.92535  0.67074  Biso   1.000  C
  H1       1.0000 0.16530  0.98480  0.62140  Biso   1.000  H
  C3       1.0000 0.10910  0.86844  0.68329  Biso   1.000  C
  C4       1.0000 0.94420  0.90347  0.62006  Biso   1.000  C
  C5       1.0000 0.16690  0.77911  0.75486  Biso   1.000  C
  H2       1.0000 0.10190  0.74010  0.76260  Biso   1.000  H
  C6       1.0000 0.32050  0.74732  0.81497  Biso   1.000  C
  C7       1.0000 0.41680  0.80560  0.80369  Biso   1.000  C
  H3       1.0000 0.52100  0.78510  0.84480  Biso   1.000  H
  C8       1.0000 0.38210  0.65035  0.89053  Biso   1.000  C
  Zn2      1.0000 0.67719  0.52597  0.01794  Biso   1.000  Zn
  S2       1.0000 0.52221  0.46953  0.78480  Biso   1.000  S
  O8       1.0000 0.56659  0.42822  0.88701  Biso   1.000  O
  O9       1.0000 0.56000  0.58593  0.79101  Biso   1.000  O
  O10      1.0000 0.36587  0.43936  0.69641  Biso   1.000  O
  O11      1.0000 0.10624  0.48428  0.94418  Biso   1.000  O
  O12      1.0000 0.14042  0.35290  0.86765  Biso   1.000  O
  O13      1.0000 0.47489  0.14646  0.53464  Biso   1.000  O
  O14      1.0000 0.71441  0.07930  0.62619  Biso   1.000  O
  C9       1.0000 0.64180  0.39373  0.76828  Biso   1.000  C
  C10      1.0000 0.79560  0.42535  0.82926  Biso   1.000  C
  H4       1.0000 0.83470  0.48480  0.87860  Biso   1.000  H
  C11      1.0000 0.89090  0.36844  0.81671  Biso   1.000  C
  C12      1.0000 0.05580  0.40347  0.87994  Biso   1.000  C
  C13      1.0000 0.83310  0.27911  0.74514  Biso   1.000  C
  H5       1.0000 0.89810  0.24010  0.73740  Biso   1.000  H
  C14      1.0000 0.67950  0.24732  0.68503  Biso   1.000  C
  C15      1.0000 0.58320  0.30560  0.69631  Biso   1.000  C
  H6       1.0000 0.47900  0.28510  0.65520  Biso   1.000  H
  C16      1.0000 0.61790  0.15035  0.60947  Biso   1.000  C
  Zn3      1.0000 0.67719  0.97403  0.51794  Biso   1.000  Zn
  S3       1.0000 0.52221  0.03047  0.28480  Biso   1.000  S
  O15      1.0000 0.56659  0.07178  0.38701  Biso   1.000  O
  O16      1.0000 0.56000  0.91407  0.29101  Biso   1.000  O
  O17      1.0000 0.36587  0.06064  0.19641  Biso   1.000  O
  O18      1.0000 0.10624  0.01572  0.44418  Biso   1.000  O
  O19      1.0000 0.14042  0.14710  0.36765  Biso   1.000  O
  O20      1.0000 0.47489  0.35354  0.03464  Biso   1.000  O
  O21      1.0000 0.71441  0.42070  0.12619  Biso   1.000  O
  C17      1.0000 0.64180  0.10627  0.26828  Biso   1.000  C
  C18      1.0000 0.79560  0.07465  0.32926  Biso   1.000  C
  H7       1.0000 0.83470  0.01520  0.37860  Biso   1.000  H
  C19      1.0000 0.89090  0.13156  0.31671  Biso   1.000  C
  C20      1.0000 0.05580  0.09653  0.37994  Biso   1.000  C
  C21      1.0000 0.83310  0.22089  0.24514  Biso   1.000  C
  H8       1.0000 0.89810  0.25990  0.23740  Biso   1.000  H
  C22      1.0000 0.67950  0.25268  0.18503  Biso   1.000  C
  C23      1.0000 0.58320  0.19440  0.19631  Biso   1.000  C
  H9       1.0000 0.47900  0.21490  0.15520  Biso   1.000  H
  C24      1.0000 0.61790  0.34965  0.10947  Biso   1.000  C
  Zn4      1.0000 0.32281  0.47403  0.98206  Biso   1.000  Zn
  S4       1.0000 0.47779  0.53047  0.21520  Biso   1.000  S
  O22      1.0000 0.43341  0.57178  0.11299  Biso   1.000  O
  O23      1.0000 0.44000  0.41407  0.20899  Biso   1.000  O
  O24      1.0000 0.63413  0.56064  0.30359  Biso   1.000  O
  O25      1.0000 0.89376  0.51572  0.05582  Biso   1.000  O
  O26      1.0000 0.85958  0.64710  0.13235  Biso   1.000  O
  O27      1.0000 0.52511  0.85354  0.46536  Biso   1.000  O
  O28      1.0000 0.28559  0.92070  0.37381  Biso   1.000  O
  C25      1.0000 0.35820  0.60627  0.23172  Biso   1.000  C
  C26      1.0000 0.20440  0.57465  0.17074  Biso   1.000  C
  H10      1.0000 0.16530  0.51520  0.12140  Biso   1.000  H
  C27      1.0000 0.10910  0.63156  0.18329  Biso   1.000  C
  C28      1.0000 0.94420  0.59653  0.12006  Biso   1.000  C
  C29      1.0000 0.16690  0.72089  0.25486  Biso   1.000  C
  H11      1.0000 0.10190  0.75990  0.26260  Biso   1.000  H
  C30      1.0000 0.32050  0.75268  0.31497  Biso   1.000  C
  C31      1.0000 0.41680  0.69440  0.30369  Biso   1.000  C
  H12      1.0000 0.52100  0.71490  0.34480  Biso   1.000  H
  C32      1.0000 0.38210  0.84965  0.39053  Biso   1.000  C
