data_image0
_cell_length_a       11.2208
_cell_length_b       11.7575
_cell_length_c       16.2014
_cell_angle_alpha    90
_cell_angle_beta     129.17
_cell_angle_gamma    90

_symmetry_space_group_name_H-M    "P 1"
_symmetry_int_tables_number       1

loop_
  _symmetry_equiv_pos_as_xyz
  'x, y, z'

loop_
  _atom_site_label
  _atom_site_occupancy
  _atom_site_fract_x
  _atom_site_fract_y
  _atom_site_fract_z
  _atom_site_thermal_displace_type
  _atom_site_B_iso_or_equiv
  _atom_site_type_symbol
  C1       1.0000 0.14139  0.89786  0.76811  Biso   1.000  C
  C2       1.0000 0.08262  0.80964  0.69543  Biso   1.000  C
  H1       1.0000 0.97710  0.78960  0.65350  Biso   1.000  H
  C3       1.0000 0.17933  0.75022  0.68409  Biso   1.000  C
  C4       1.0000 0.11735  0.65260  0.60829  Biso   1.000  C
  C5       1.0000 0.33324  0.78111  0.74456  Biso   1.000  C
  H2       1.0000 0.39880  0.74110  0.73640  Biso   1.000  H
  C6       1.0000 0.39137  0.87056  0.81701  Biso   1.000  C
  C7       1.0000 0.29608  0.92870  0.82979  Biso   1.000  C
  H3       1.0000 0.33580  0.98880  0.88000  Biso   1.000  H
  C8       1.0000 0.55629  0.90426  0.88083  Biso   1.000  C
  O1       1.0000 0.06257  0.92962  0.88580  Biso   1.000  O
  O2       1.0000 0.86543  0.94593  0.69587  Biso   1.000  O
  O3       1.0000 0.06270  0.09171  0.79465  Biso   1.000  O
  O4       1.0000 0.21356  0.57973  0.62538  Biso   1.000  O
  O5       1.0000 0.97495  0.64972  0.53341  Biso   1.000  O
  O6       1.0000 0.64157  0.85206  0.86877  Biso   1.000  O
  O7       1.0000 0.60741  0.98591  0.94572  Biso   1.000  O
  S1       1.0000 0.02166  0.97378  0.78514  Biso   1.000  S
  Zn1      1.0000 0.17658  0.02717  0.01763  Biso   1.000  Zn
  C9       1.0000 0.85861  0.39786  0.73189  Biso   1.000  C
  C10      1.0000 0.91738  0.30964  0.80457  Biso   1.000  C
  H4       1.0000 0.02290  0.28960  0.84650  Biso   1.000  H
  C11      1.0000 0.82067  0.25022  0.81591  Biso   1.000  C
  C12      1.0000 0.88265  0.15260  0.89171  Biso   1.000  C
  C13      1.0000 0.66676  0.28111  0.75544  Biso   1.000  C
  H5       1.0000 0.60120  0.24110  0.76360  Biso   1.000  H
  C14      1.0000 0.60863  0.37056  0.68299  Biso   1.000  C
  C15      1.0000 0.70392  0.42870  0.67021  Biso   1.000  C
  H6       1.0000 0.66420  0.48880  0.62000  Biso   1.000  H
  C16      1.0000 0.44371  0.40426  0.61917  Biso   1.000  C
  O8       1.0000 0.93743  0.42962  0.61420  Biso   1.000  O
  O9       1.0000 0.13457  0.44593  0.80413  Biso   1.000  O
  O10      1.0000 0.93730  0.59171  0.70535  Biso   1.000  O
  O11      1.0000 0.78644  0.07973  0.87462  Biso   1.000  O
  O12      1.0000 0.02505  0.14972  0.96659  Biso   1.000  O
  O13      1.0000 0.35843  0.35206  0.63123  Biso   1.000  O
  O14      1.0000 0.39259  0.48591  0.55428  Biso   1.000  O
  S2       1.0000 0.97834  0.47378  0.71486  Biso   1.000  S
  Zn2      1.0000 0.82342  0.52717  0.48237  Biso   1.000  Zn
  C17      1.0000 0.85861  0.10214  0.23189  Biso   1.000  C
  C18      1.0000 0.91738  0.19036  0.30457  Biso   1.000  C
  H7       1.0000 0.02290  0.21040  0.34650  Biso   1.000  H
  C19      1.0000 0.82067  0.24978  0.31591  Biso   1.000  C
  C20      1.0000 0.88265  0.34740  0.39171  Biso   1.000  C
  C21      1.0000 0.66676  0.21889  0.25544  Biso   1.000  C
  H8       1.0000 0.60120  0.25890  0.26360  Biso   1.000  H
  C22      1.0000 0.60863  0.12944  0.18299  Biso   1.000  C
  C23      1.0000 0.70392  0.07130  0.17021  Biso   1.000  C
  H9       1.0000 0.66420  0.01120  0.12000  Biso   1.000  H
  C24      1.0000 0.44371  0.09574  0.11917  Biso   1.000  C
  O15      1.0000 0.93743  0.07038  0.11420  Biso   1.000  O
  O16      1.0000 0.13457  0.05407  0.30413  Biso   1.000  O
  O17      1.0000 0.93730  0.90829  0.20535  Biso   1.000  O
  O18      1.0000 0.78644  0.42027  0.37462  Biso   1.000  O
  O19      1.0000 0.02505  0.35028  0.46659  Biso   1.000  O
  O20      1.0000 0.35843  0.14794  0.13123  Biso   1.000  O
  O21      1.0000 0.39259  0.01409  0.05428  Biso   1.000  O
  S3       1.0000 0.97834  0.02622  0.21486  Biso   1.000  S
  Zn3      1.0000 0.82342  0.97283  0.98237  Biso   1.000  Zn
  C25      1.0000 0.14139  0.60214  0.26811  Biso   1.000  C
  C26      1.0000 0.08262  0.69036  0.19543  Biso   1.000  C
  H10      1.0000 0.97710  0.71040  0.15350  Biso   1.000  H
  C27      1.0000 0.17933  0.74978  0.18409  Biso   1.000  C
  C28      1.0000 0.11735  0.84740  0.10829  Biso   1.000  C
  C29      1.0000 0.33324  0.71889  0.24456  Biso   1.000  C
  H11      1.0000 0.39880  0.75890  0.23640  Biso   1.000  H
  C30      1.0000 0.39137  0.62944  0.31701  Biso   1.000  C
  C31      1.0000 0.29608  0.57130  0.32979  Biso   1.000  C
  H12      1.0000 0.33580  0.51120  0.38000  Biso   1.000  H
  C32      1.0000 0.55629  0.59574  0.38083  Biso   1.000  C
  O22      1.0000 0.06257  0.57038  0.38580  Biso   1.000  O
  O23      1.0000 0.86543  0.55407  0.19587  Biso   1.000  O
  O24      1.0000 0.06270  0.40829  0.29465  Biso   1.000  O
  O25      1.0000 0.21356  0.92027  0.12538  Biso   1.000  O
  O26      1.0000 0.97495  0.85028  0.03341  Biso   1.000  O
  O27      1.0000 0.64157  0.64794  0.36877  Biso   1.000  O
  O28      1.0000 0.60741  0.51409  0.44572  Biso   1.000  O
  S4       1.0000 0.02166  0.52622  0.28514  Biso   1.000  S
  Zn4      1.0000 0.17658  0.47283  0.51763  Biso   1.000  Zn
