data_image0
_cell_length_a       11.2896
_cell_length_b       12.1049
_cell_length_c       16.1579
_cell_angle_alpha    90
_cell_angle_beta     129.914
_cell_angle_gamma    90

_symmetry_space_group_name_H-M    "P 1"
_symmetry_int_tables_number       1

loop_
  _symmetry_equiv_pos_as_xyz
  'x, y, z'

loop_
  _atom_site_label
  _atom_site_occupancy
  _atom_site_fract_x
  _atom_site_fract_y
  _atom_site_fract_z
  _atom_site_thermal_displace_type
  _atom_site_B_iso_or_equiv
  _atom_site_type_symbol
  C1       1.0000 0.14240  0.88760  0.76817  Biso   1.000  C
  C2       1.0000 0.08410  0.79981  0.69741  Biso   1.000  C
  H1       1.0000 0.98130  0.77890  0.65730  Biso   1.000  H
  C3       1.0000 0.18060  0.74280  0.68670  Biso   1.000  C
  C4       1.0000 0.11880  0.64697  0.61139  Biso   1.000  C
  C5       1.0000 0.33320  0.77595  0.74595  Biso   1.000  C
  H2       1.0000 0.39750  0.73820  0.73830  Biso   1.000  H
  C6       1.0000 0.39060  0.86466  0.81628  Biso   1.000  C
  C7       1.0000 0.29520  0.92008  0.82820  Biso   1.000  C
  H3       1.0000 0.33340  0.97880  0.87620  Biso   1.000  H
  C8       1.0000 0.55480  0.90091  0.87808  Biso   1.000  C
  O1       1.0000 0.07275  0.92555  0.88927  Biso   1.000  O
  O2       1.0000 0.86690  0.92950  0.69747  Biso   1.000  O
  O3       1.0000 0.05550  0.07636  0.78550  Biso   1.000  O
  O4       1.0000 0.21577  0.57855  0.62742  Biso   1.000  O
  O5       1.0000 0.97600  0.64136  0.53737  Biso   1.000  O
  O6       1.0000 0.63801  0.85421  0.86478  Biso   1.000  O
  O7       1.0000 0.60550  0.98005  0.94240  Biso   1.000  O
  S1       1.0000 0.02288  0.96245  0.78418  Biso   1.000  S
  Zn1      1.0000 0.17868  0.02471  0.01903  Biso   1.000  Zn
  C9       1.0000 0.85760  0.38760  0.73183  Biso   1.000  C
  C10      1.0000 0.91590  0.29981  0.80259  Biso   1.000  C
  H4       1.0000 0.01870  0.27890  0.84270  Biso   1.000  H
  C11      1.0000 0.81940  0.24280  0.81330  Biso   1.000  C
  C12      1.0000 0.88120  0.14697  0.88861  Biso   1.000  C
  C13      1.0000 0.66680  0.27595  0.75405  Biso   1.000  C
  H5       1.0000 0.60250  0.23820  0.76170  Biso   1.000  H
  C14      1.0000 0.60940  0.36466  0.68372  Biso   1.000  C
  C15      1.0000 0.70480  0.42008  0.67180  Biso   1.000  C
  H6       1.0000 0.66660  0.47880  0.62380  Biso   1.000  H
  C16      1.0000 0.44520  0.40091  0.62192  Biso   1.000  C
  O8       1.0000 0.92725  0.42555  0.61073  Biso   1.000  O
  O9       1.0000 0.13310  0.42950  0.80253  Biso   1.000  O
  O10      1.0000 0.94450  0.57636  0.71450  Biso   1.000  O
  O11      1.0000 0.78423  0.07855  0.87258  Biso   1.000  O
  O12      1.0000 0.02400  0.14136  0.96263  Biso   1.000  O
  O13      1.0000 0.36199  0.35421  0.63522  Biso   1.000  O
  O14      1.0000 0.39450  0.48005  0.55760  Biso   1.000  O
  S2       1.0000 0.97712  0.46245  0.71582  Biso   1.000  S
  Zn2      1.0000 0.82132  0.52471  0.48097  Biso   1.000  Zn
  C17      1.0000 0.85760  0.11240  0.23183  Biso   1.000  C
  C18      1.0000 0.91590  0.20019  0.30259  Biso   1.000  C
  H7       1.0000 0.01870  0.22110  0.34270  Biso   1.000  H
  C19      1.0000 0.81940  0.25720  0.31330  Biso   1.000  C
  C20      1.0000 0.88120  0.35303  0.38861  Biso   1.000  C
  C21      1.0000 0.66680  0.22405  0.25405  Biso   1.000  C
  H8       1.0000 0.60250  0.26180  0.26170  Biso   1.000  H
  C22      1.0000 0.60940  0.13534  0.18372  Biso   1.000  C
  C23      1.0000 0.70480  0.07992  0.17180  Biso   1.000  C
  H9       1.0000 0.66660  0.02120  0.12380  Biso   1.000  H
  C24      1.0000 0.44520  0.09909  0.12192  Biso   1.000  C
  O15      1.0000 0.92725  0.07445  0.11073  Biso   1.000  O
  O16      1.0000 0.13310  0.07050  0.30253  Biso   1.000  O
  O17      1.0000 0.94450  0.92364  0.21450  Biso   1.000  O
  O18      1.0000 0.78423  0.42145  0.37258  Biso   1.000  O
  O19      1.0000 0.02400  0.35864  0.46263  Biso   1.000  O
  O20      1.0000 0.36199  0.14579  0.13522  Biso   1.000  O
  O21      1.0000 0.39450  0.01995  0.05760  Biso   1.000  O
  S3       1.0000 0.97712  0.03755  0.21582  Biso   1.000  S
  Zn3      1.0000 0.82132  0.97529  0.98097  Biso   1.000  Zn
  C25      1.0000 0.14240  0.61240  0.26817  Biso   1.000  C
  C26      1.0000 0.08410  0.70019  0.19741  Biso   1.000  C
  H10      1.0000 0.98130  0.72110  0.15730  Biso   1.000  H
  C27      1.0000 0.18060  0.75720  0.18670  Biso   1.000  C
  C28      1.0000 0.11880  0.85303  0.11139  Biso   1.000  C
  C29      1.0000 0.33320  0.72405  0.24595  Biso   1.000  C
  H11      1.0000 0.39750  0.76180  0.23830  Biso   1.000  H
  C30      1.0000 0.39060  0.63534  0.31628  Biso   1.000  C
  C31      1.0000 0.29520  0.57992  0.32820  Biso   1.000  C
  H12      1.0000 0.33340  0.52120  0.37620  Biso   1.000  H
  C32      1.0000 0.55480  0.59909  0.37808  Biso   1.000  C
  O22      1.0000 0.07275  0.57445  0.38927  Biso   1.000  O
  O23      1.0000 0.86690  0.57050  0.19747  Biso   1.000  O
  O24      1.0000 0.05550  0.42364  0.28550  Biso   1.000  O
  O25      1.0000 0.21577  0.92145  0.12742  Biso   1.000  O
  O26      1.0000 0.97600  0.85864  0.03737  Biso   1.000  O
  O27      1.0000 0.63801  0.64579  0.36478  Biso   1.000  O
  O28      1.0000 0.60550  0.51995  0.44240  Biso   1.000  O
  S4       1.0000 0.02288  0.53755  0.28418  Biso   1.000  S
  Zn4      1.0000 0.17868  0.47529  0.51903  Biso   1.000  Zn
