data_image0
_cell_length_a       14.4022
_cell_length_b       25.92
_cell_length_c       17.4395
_cell_angle_alpha    90
_cell_angle_beta     107.384
_cell_angle_gamma    90

_symmetry_space_group_name_H-M    "P 1"
_symmetry_int_tables_number       1

loop_
  _symmetry_equiv_pos_as_xyz
  'x, y, z'

loop_
  _atom_site_label
  _atom_site_occupancy
  _atom_site_fract_x
  _atom_site_fract_y
  _atom_site_fract_z
  _atom_site_thermal_displace_type
  _atom_site_B_iso_or_equiv
  _atom_site_type_symbol
  Zn1      1.0000 0.83466  0.00072  0.12570  Biso   1.000  Zn
  Zn2      1.0000 0.89769  0.06598  0.31073  Biso   1.000  Zn
  Zn3      1.0000 0.04064  0.31969  0.77347  Biso   1.000  Zn
  O1       1.0000 0.93790  0.07070  0.42700  Biso   1.000  O
  O2       1.0000 0.04640  0.24519  0.75700  Biso   1.000  O
  O3       1.0000 0.76240  0.43510  0.48380  Biso   1.000  O
  O4       1.0000 0.92320  0.35840  0.74410  Biso   1.000  O
  O5       1.0000 0.51270  0.41710  0.77930  Biso   1.000  O
  C1       1.0000 0.94420  0.11760  0.44990  Biso   1.000  C
  C2       1.0000 0.97910  0.17540  0.56850  Biso   1.000  C
  H1       1.0000 0.95360  0.20260  0.53370  Biso   1.000  H
  O6       1.0000 0.97250  0.27290  0.63340  Biso   1.000  O
  O7       1.0000 0.91940  0.15410  0.40270  Biso   1.000  O
  O8       1.0000 0.43630  0.44500  0.65690  Biso   1.000  O
  C3       1.0000 0.60550  0.43790  0.61090  Biso   1.000  C
  H2       1.0000 0.55340  0.45620  0.57760  Biso   1.000  H
  C4       1.0000 0.59950  0.41830  0.68360  Biso   1.000  C
  O9       1.0000 0.63720  0.48420  0.47440  Biso   1.000  O
  C5       1.0000 0.01030  0.23770  0.68110  Biso   1.000  C
  C6       1.0000 0.02080  0.08590  0.59000  Biso   1.000  C
  H3       1.0000 0.02190  0.05270  0.57000  Biso   1.000  H
  C7       1.0000 0.98240  0.12560  0.53770  Biso   1.000  C
  C8       1.0000 0.05360  0.14400  0.70390  Biso   1.000  C
  H4       1.0000 0.07670  0.14970  0.75890  Biso   1.000  H
  C9       1.0000 0.76420  0.40330  0.63850  Biso   1.000  C
  H5       1.0000 0.81950  0.39740  0.62270  Biso   1.000  H
  C10      1.0000 0.01390  0.18430  0.65110  Biso   1.000  C
  C11      1.0000 0.05780  0.09450  0.67190  Biso   1.000  C
  C12      1.0000 0.67820  0.39160  0.73340  Biso   1.000  C
  H6       1.0000 0.67420  0.37830  0.78180  Biso   1.000  H
  C13      1.0000 0.68850  0.43030  0.58810  Biso   1.000  C
  C14      1.0000 0.51030  0.42760  0.70880  Biso   1.000  C
  C15      1.0000 0.76130  0.38460  0.71220  Biso   1.000  C
  O10      1.0000 0.83950  0.32890  0.81950  Biso   1.000  O
  C16      1.0000 0.69710  0.45070  0.50940  Biso   1.000  C
  C17      1.0000 0.84760  0.35410  0.76540  Biso   1.000  C
  N1       1.0000 0.76790  0.09050  0.24690  Biso   1.000  N
  N2       1.0000 0.71400  0.03930  0.12440  Biso   1.000  N
  N3       1.0000 0.63130  0.13860  0.22910  Biso   1.000  N
  N4       1.0000 0.46340  0.12610  0.07080  Biso   1.000  N
  H7       1.0000 0.41830  0.11920  0.02710  Biso   1.000  H
  H8       1.0000 0.45640  0.15140  0.10060  Biso   1.000  H
  C18      1.0000 0.62010  0.10570  0.16410  Biso   1.000  C
  C19      1.0000 0.70380  0.07590  0.17540  Biso   1.000  C
  N5       1.0000 0.55090  0.05910  0.04360  Biso   1.000  N
  C20      1.0000 0.63310  0.03320  0.06110  Biso   1.000  C
  H9       1.0000 0.63610  0.00730  0.02510  Biso   1.000  H
  C21      1.0000 0.72020  0.12720  0.27630  Biso   1.000  C
  H10      1.0000 0.74760  0.14310  0.32570  Biso   1.000  H
  C22      1.0000 0.54270  0.09820  0.09190  Biso   1.000  C
  C23      1.0000 0.09950  0.05020  0.72700  Biso   1.000  C
  O11      1.0000 0.11770  0.05660  0.80110  Biso   1.000  O
  O12      1.0000 0.11580  0.01000  0.69510  Biso   1.000  O
  Zn4      1.0000 0.66534  0.50072  0.37430  Biso   1.000  Zn
  Zn5      1.0000 0.60231  0.56598  0.18927  Biso   1.000  Zn
  Zn6      1.0000 0.45936  0.81969  0.72653  Biso   1.000  Zn
  O13      1.0000 0.56210  0.57070  0.07300  Biso   1.000  O
  O14      1.0000 0.45360  0.74519  0.74300  Biso   1.000  O
  O15      1.0000 0.73760  0.93510  0.01620  Biso   1.000  O
  O16      1.0000 0.57680  0.85840  0.75590  Biso   1.000  O
  O17      1.0000 0.98730  0.91710  0.72070  Biso   1.000  O
  C24      1.0000 0.55580  0.61760  0.05010  Biso   1.000  C
  C25      1.0000 0.52090  0.67540  0.93150  Biso   1.000  C
  H11      1.0000 0.54640  0.70260  0.96630  Biso   1.000  H
  O18      1.0000 0.52750  0.77290  0.86660  Biso   1.000  O
  O19      1.0000 0.58060  0.65410  0.09730  Biso   1.000  O
  O20      1.0000 0.06370  0.94500  0.84310  Biso   1.000  O
  C26      1.0000 0.89450  0.93790  0.88910  Biso   1.000  C
  H12      1.0000 0.94660  0.95620  0.92240  Biso   1.000  H
  C27      1.0000 0.90050  0.91830  0.81640  Biso   1.000  C
  O21      1.0000 0.86280  0.98420  0.02560  Biso   1.000  O
  C28      1.0000 0.48970  0.73770  0.81890  Biso   1.000  C
  C29      1.0000 0.47920  0.58590  0.91000  Biso   1.000  C
  H13      1.0000 0.47810  0.55270  0.93000  Biso   1.000  H
  C30      1.0000 0.51760  0.62560  0.96230  Biso   1.000  C
  C31      1.0000 0.44640  0.64400  0.79610  Biso   1.000  C
  H14      1.0000 0.42330  0.64970  0.74110  Biso   1.000  H
  C32      1.0000 0.73580  0.90330  0.86150  Biso   1.000  C
  H15      1.0000 0.68050  0.89740  0.87730  Biso   1.000  H
  C33      1.0000 0.48610  0.68430  0.84890  Biso   1.000  C
  C34      1.0000 0.44220  0.59450  0.82810  Biso   1.000  C
  C35      1.0000 0.82180  0.89160  0.76660  Biso   1.000  C
  H16      1.0000 0.82580  0.87830  0.71820  Biso   1.000  H
  C36      1.0000 0.81150  0.93030  0.91190  Biso   1.000  C
  C37      1.0000 0.98970  0.92760  0.79120  Biso   1.000  C
  C38      1.0000 0.73870  0.88460  0.78780  Biso   1.000  C
  O22      1.0000 0.66050  0.82890  0.68050  Biso   1.000  O
  C39      1.0000 0.80290  0.95070  0.99060  Biso   1.000  C
  C40      1.0000 0.65240  0.85410  0.73460  Biso   1.000  C
  N6       1.0000 0.73210  0.59050  0.25310  Biso   1.000  N
  N7       1.0000 0.78600  0.53930  0.37560  Biso   1.000  N
  N8       1.0000 0.86870  0.63860  0.27090  Biso   1.000  N
  N9       1.0000 0.03660  0.62610  0.42920  Biso   1.000  N
  H17      1.0000 0.08170  0.61920  0.47290  Biso   1.000  H
  H18      1.0000 0.04360  0.65140  0.39940  Biso   1.000  H
  C41      1.0000 0.87990  0.60570  0.33590  Biso   1.000  C
  C42      1.0000 0.79620  0.57590  0.32460  Biso   1.000  C
  N10      1.0000 0.94910  0.55910  0.45640  Biso   1.000  N
  C43      1.0000 0.86690  0.53320  0.43890  Biso   1.000  C
  H19      1.0000 0.86390  0.50730  0.47490  Biso   1.000  H
  C44      1.0000 0.77980  0.62720  0.22370  Biso   1.000  C
  H20      1.0000 0.75240  0.64310  0.17430  Biso   1.000  H
  C45      1.0000 0.95730  0.59820  0.40810  Biso   1.000  C
  C46      1.0000 0.40050  0.55020  0.77300  Biso   1.000  C
  O23      1.0000 0.38230  0.55660  0.69890  Biso   1.000  O
  O24      1.0000 0.38420  0.51000  0.80490  Biso   1.000  O
  Zn7      1.0000 0.16534  0.99928  0.87430  Biso   1.000  Zn
  Zn8      1.0000 0.10231  0.93402  0.68927  Biso   1.000  Zn
  Zn9      1.0000 0.95936  0.68031  0.22653  Biso   1.000  Zn
  O25      1.0000 0.06210  0.92930  0.57300  Biso   1.000  O
  O26      1.0000 0.95360  0.75481  0.24300  Biso   1.000  O
  O27      1.0000 0.23760  0.56490  0.51620  Biso   1.000  O
  O28      1.0000 0.07680  0.64160  0.25590  Biso   1.000  O
  O29      1.0000 0.48730  0.58290  0.22070  Biso   1.000  O
  C47      1.0000 0.05580  0.88240  0.55010  Biso   1.000  C
  C48      1.0000 0.02090  0.82460  0.43150  Biso   1.000  C
  H21      1.0000 0.04640  0.79740  0.46630  Biso   1.000  H
  O30      1.0000 0.02750  0.72710  0.36660  Biso   1.000  O
  O31      1.0000 0.08060  0.84590  0.59730  Biso   1.000  O
  O32      1.0000 0.56370  0.55500  0.34310  Biso   1.000  O
  C49      1.0000 0.39450  0.56210  0.38910  Biso   1.000  C
  H22      1.0000 0.44660  0.54380  0.42240  Biso   1.000  H
  C50      1.0000 0.40050  0.58170  0.31640  Biso   1.000  C
  O33      1.0000 0.36280  0.51580  0.52560  Biso   1.000  O
  C51      1.0000 0.98970  0.76230  0.31890  Biso   1.000  C
  C52      1.0000 0.97920  0.91410  0.41000  Biso   1.000  C
  H23      1.0000 0.97810  0.94730  0.43000  Biso   1.000  H
  C53      1.0000 0.01760  0.87440  0.46230  Biso   1.000  C
  C54      1.0000 0.94640  0.85600  0.29610  Biso   1.000  C
  H24      1.0000 0.92330  0.85030  0.24110  Biso   1.000  H
  C55      1.0000 0.23580  0.59670  0.36150  Biso   1.000  C
  H25      1.0000 0.18050  0.60260  0.37730  Biso   1.000  H
  C56      1.0000 0.98610  0.81570  0.34890  Biso   1.000  C
  C57      1.0000 0.94220  0.90550  0.32810  Biso   1.000  C
  C58      1.0000 0.32180  0.60840  0.26660  Biso   1.000  C
  H26      1.0000 0.32580  0.62170  0.21820  Biso   1.000  H
  C59      1.0000 0.31150  0.56970  0.41190  Biso   1.000  C
  C60      1.0000 0.48970  0.57240  0.29120  Biso   1.000  C
  C61      1.0000 0.23870  0.61540  0.28780  Biso   1.000  C
  O34      1.0000 0.16050  0.67110  0.18050  Biso   1.000  O
  C62      1.0000 0.30290  0.54930  0.49060  Biso   1.000  C
  C63      1.0000 0.15240  0.64590  0.23460  Biso   1.000  C
  N11      1.0000 0.23210  0.90950  0.75310  Biso   1.000  N
  N12      1.0000 0.28600  0.96070  0.87560  Biso   1.000  N
  N13      1.0000 0.36870  0.86140  0.77090  Biso   1.000  N
  N14      1.0000 0.53660  0.87390  0.92920  Biso   1.000  N
  H27      1.0000 0.58170  0.88080  0.97290  Biso   1.000  H
  H28      1.0000 0.54360  0.84860  0.89940  Biso   1.000  H
  C64      1.0000 0.37990  0.89430  0.83590  Biso   1.000  C
  C65      1.0000 0.29620  0.92410  0.82460  Biso   1.000  C
  N15      1.0000 0.44910  0.94090  0.95640  Biso   1.000  N
  C66      1.0000 0.36690  0.96680  0.93890  Biso   1.000  C
  H29      1.0000 0.36390  0.99270  0.97490  Biso   1.000  H
  C67      1.0000 0.27980  0.87280  0.72370  Biso   1.000  C
  H30      1.0000 0.25240  0.85690  0.67430  Biso   1.000  H
  C68      1.0000 0.45730  0.90180  0.90810  Biso   1.000  C
  C69      1.0000 0.90050  0.94980  0.27300  Biso   1.000  C
  O35      1.0000 0.88230  0.94340  0.19890  Biso   1.000  O
  O36      1.0000 0.88420  0.99000  0.30490  Biso   1.000  O
  Zn10     1.0000 0.33466  0.49928  0.62570  Biso   1.000  Zn
  Zn11     1.0000 0.39769  0.43402  0.81073  Biso   1.000  Zn
  Zn12     1.0000 0.54064  0.18031  0.27347  Biso   1.000  Zn
  O37      1.0000 0.43790  0.42930  0.92700  Biso   1.000  O
  O38      1.0000 0.54640  0.25481  0.25700  Biso   1.000  O
  O39      1.0000 0.26240  0.06490  0.98380  Biso   1.000  O
  O40      1.0000 0.42320  0.14160  0.24410  Biso   1.000  O
  O41      1.0000 0.01270  0.08290  0.27930  Biso   1.000  O
  C70      1.0000 0.44420  0.38240  0.94990  Biso   1.000  C
  C71      1.0000 0.47910  0.32460  0.06850  Biso   1.000  C
  H31      1.0000 0.45360  0.29740  0.03370  Biso   1.000  H
  O42      1.0000 0.47250  0.22710  0.13340  Biso   1.000  O
  O43      1.0000 0.41940  0.34590  0.90270  Biso   1.000  O
  O44      1.0000 0.93630  0.05500  0.15690  Biso   1.000  O
  C72      1.0000 0.10550  0.06210  0.11090  Biso   1.000  C
  H32      1.0000 0.05340  0.04380  0.07760  Biso   1.000  H
  C73      1.0000 0.09950  0.08170  0.18360  Biso   1.000  C
  O45      1.0000 0.13720  0.01580  0.97440  Biso   1.000  O
  C74      1.0000 0.51030  0.26230  0.18110  Biso   1.000  C
  C75      1.0000 0.52080  0.41410  0.09000  Biso   1.000  C
  H33      1.0000 0.52190  0.44730  0.07000  Biso   1.000  H
  C76      1.0000 0.48240  0.37440  0.03770  Biso   1.000  C
  C77      1.0000 0.55360  0.35600  0.20390  Biso   1.000  C
  H34      1.0000 0.57670  0.35030  0.25890  Biso   1.000  H
  C78      1.0000 0.26420  0.09670  0.13850  Biso   1.000  C
  H35      1.0000 0.31950  0.10260  0.12270  Biso   1.000  H
  C79      1.0000 0.51390  0.31570  0.15110  Biso   1.000  C
  C80      1.0000 0.55780  0.40550  0.17190  Biso   1.000  C
  C81      1.0000 0.17820  0.10840  0.23340  Biso   1.000  C
  H36      1.0000 0.17420  0.12170  0.28180  Biso   1.000  H
  C82      1.0000 0.18850  0.06970  0.08810  Biso   1.000  C
  C83      1.0000 0.01030  0.07240  0.20880  Biso   1.000  C
  C84      1.0000 0.26130  0.11540  0.21220  Biso   1.000  C
  O46      1.0000 0.33950  0.17110  0.31950  Biso   1.000  O
  C85      1.0000 0.19710  0.04930  0.00940  Biso   1.000  C
  C86      1.0000 0.34760  0.14590  0.26540  Biso   1.000  C
  N16      1.0000 0.26790  0.40950  0.74690  Biso   1.000  N
  N17      1.0000 0.21400  0.46070  0.62440  Biso   1.000  N
  N18      1.0000 0.13130  0.36140  0.72910  Biso   1.000  N
  N19      1.0000 0.96340  0.37390  0.57080  Biso   1.000  N
  H37      1.0000 0.91830  0.38080  0.52710  Biso   1.000  H
  H38      1.0000 0.95640  0.34860  0.60060  Biso   1.000  H
  C87      1.0000 0.12010  0.39430  0.66410  Biso   1.000  C
  C88      1.0000 0.20380  0.42410  0.67540  Biso   1.000  C
  N20      1.0000 0.05090  0.44090  0.54360  Biso   1.000  N
  C89      1.0000 0.13310  0.46680  0.56110  Biso   1.000  C
  H39      1.0000 0.13610  0.49270  0.52510  Biso   1.000  H
  C90      1.0000 0.22020  0.37280  0.77630  Biso   1.000  C
  H40      1.0000 0.24760  0.35690  0.82570  Biso   1.000  H
  C91      1.0000 0.04270  0.40180  0.59190  Biso   1.000  C
  C92      1.0000 0.59950  0.44980  0.22700  Biso   1.000  C
  O47      1.0000 0.61770  0.44340  0.30110  Biso   1.000  O
  O48      1.0000 0.61580  0.49000  0.19510  Biso   1.000  O
