data_DUQCAU_clean
_audit_creation_date              2014-07-02
_audit_creation_method            'Materials Studio'
_symmetry_space_group_name_H-M    'P1'
_symmetry_Int_Tables_number       1
_symmetry_cell_setting            triclinic
loop_
_symmetry_equiv_pos_as_xyz
  x,y,z
_cell_length_a                    8.2811
_cell_length_b                    9.8834
_cell_length_c                    10.1818
_cell_angle_alpha                 99.0530
_cell_angle_beta                  90.0000
_cell_angle_gamma                 90.0000
loop_
_atom_site_label
_atom_site_type_symbol
_atom_site_fract_x
_atom_site_fract_y
_atom_site_fract_z
_atom_site_U_iso_or_equiv
_atom_site_adp_type
_atom_site_occupancy
Pr1    Pr    0.90161   0.81500   0.56293   0.01267  Uiso   1.00
Pr2    Pr    0.40161   0.18500   0.93707   0.01267  Uiso   1.00
Pr3    Pr    0.09839   0.18500   0.43707   0.01267  Uiso   1.00
Pr4    Pr    0.59839   0.81500   0.06293   0.01267  Uiso   1.00
C1     C     0.59500   0.02220   0.67090   0.01267  Uiso   1.00
C2     C     0.60320   0.91710   0.76810   0.01267  Uiso   1.00
C3     C     0.98350   0.49460   0.57390   0.01267  Uiso   1.00
C4     C     0.09500   0.97780   0.82910   0.01267  Uiso   1.00
C5     C     0.10320   0.08290   0.73190   0.01267  Uiso   1.00
C6     C     0.48350   0.50540   0.92610   0.01267  Uiso   1.00
C7     C     0.40500   0.97780   0.32910   0.01267  Uiso   1.00
C8     C     0.39680   0.08290   0.23190   0.01267  Uiso   1.00
C9     C     0.01650   0.50540   0.42610   0.01267  Uiso   1.00
C10    C     0.90500   0.02220   0.17090   0.01267  Uiso   1.00
C11    C     0.89680   0.91710   0.26810   0.01267  Uiso   1.00
C12    C     0.51650   0.49460   0.07390   0.01267  Uiso   1.00
O1     O     0.68330   0.99580   0.56980   0.01267  Uiso   1.00
O2     O     0.50550   0.12290   0.70090   0.01267  Uiso   1.00
O3     O     0.69080   0.81620   0.73900   0.01267  Uiso   1.00
O4     O     0.51980   0.94360   0.87386   0.01267  Uiso   1.00
O5     O     0.93350   0.59890   0.64710   0.01267  Uiso   1.00
O6     O     0.00900   0.38010   0.60760   0.01267  Uiso   1.00
O7     O     0.18330   0.00420   0.93020   0.01267  Uiso   1.00
O8     O     0.00550   0.87710   0.79910   0.01267  Uiso   1.00
O9     O     0.19080   0.18380   0.76100   0.01267  Uiso   1.00
O10    O     0.01980   0.05640   0.62614   0.01267  Uiso   1.00
O11    O     0.43350   0.40110   0.85290   0.01267  Uiso   1.00
O12    O     0.50900   0.61990   0.89240   0.01267  Uiso   1.00
O13    O     0.31670   0.00420   0.43020   0.01267  Uiso   1.00
O14    O     0.49450   0.87710   0.29910   0.01267  Uiso   1.00
O15    O     0.30920   0.18380   0.26100   0.01267  Uiso   1.00
O16    O     0.48020   0.05640   0.12614   0.01267  Uiso   1.00
O17    O     0.06650   0.40110   0.35290   0.01267  Uiso   1.00
O18    O     0.99100   0.61990   0.39240   0.01267  Uiso   1.00
O19    O     0.81670   0.99580   0.06980   0.01267  Uiso   1.00
O20    O     0.99450   0.12290   0.20090   0.01267  Uiso   1.00
O21    O     0.80920   0.81620   0.23900   0.01267  Uiso   1.00
O22    O     0.98020   0.94360   0.37386   0.01267  Uiso   1.00
O23    O     0.56650   0.59890   0.14710   0.01267  Uiso   1.00
O24    O     0.49100   0.38010   0.10760   0.01267  Uiso   1.00
