data_DUQSEO_clean
_audit_creation_date              2014-07-02
_audit_creation_method            'Materials Studio'
_symmetry_space_group_name_H-M    'P1'
_symmetry_Int_Tables_number       1
_symmetry_cell_setting            triclinic
loop_
_symmetry_equiv_pos_as_xyz
  x,y,z
_cell_length_a                    8.8840
_cell_length_b                    10.2819
_cell_length_c                    10.2819
_cell_angle_alpha                 79.0926
_cell_angle_beta                  64.4041
_cell_angle_gamma                 64.4041
loop_
_atom_site_label
_atom_site_type_symbol
_atom_site_fract_x
_atom_site_fract_y
_atom_site_fract_z
_atom_site_U_iso_or_equiv
_atom_site_adp_type
_atom_site_occupancy
La1    La    0.20595   0.54405   0.04405   0.01267  Uiso   1.00
La2    La    0.29405   0.95595   0.45595   0.01267  Uiso   1.00
H1     H     0.00850   0.36120   0.40460   0.01267  Uiso   1.00
H2     H     0.22570   0.90460   0.86120   0.01267  Uiso   1.00
H3     H     0.49150   0.59540   0.63880   0.01267  Uiso   1.00
H4     H     0.27430   0.13880   0.09540   0.01267  Uiso   1.00
H5     H     0.75000   0.38850   0.61150   0.01267  Uiso   1.00
H6     H     0.25000   0.11150   0.88850   0.01267  Uiso   1.00
C1     C     0.90329   0.44401   0.41681   0.01267  Uiso   1.00
C2     C     0.23589   0.91681   0.94401   0.01267  Uiso   1.00
C3     C     0.59671   0.58319   0.55599   0.01267  Uiso   1.00
C4     C     0.26411   0.05599   0.08319   0.01267  Uiso   1.00
C5     C     0.75000   0.77359   0.22641   0.01267  Uiso   1.00
C6     C     0.75000   0.66134   0.33866   0.01267  Uiso   1.00
C7     C     0.75000   0.45950   0.54050   0.01267  Uiso   1.00
C8     C     0.25000   0.72641   0.27359   0.01267  Uiso   1.00
C9     C     0.25000   0.83866   0.16134   0.01267  Uiso   1.00
C10    C     0.25000   0.04050   0.95950   0.01267  Uiso   1.00
C11    C     0.56300   0.25000   0.25000   0.01267  Uiso   1.00
C12    C     0.39490   0.25000   0.25000   0.01267  Uiso   1.00
C13    C     0.93700   0.75000   0.75000   0.01267  Uiso   1.00
C14    C     0.10510   0.75000   0.75000   0.01267  Uiso   1.00
N1     N     0.89594   0.76923   0.11043   0.01267  Uiso   1.00
N2     N     0.83719   0.89109   0.03753   0.01267  Uiso   1.00
N3     N     0.90493   0.54572   0.31288   0.01267  Uiso   1.00
N4     N     0.66197   0.31774   0.15220   0.01267  Uiso   1.00
N5     N     0.79802   0.29018   0.19162   0.01267  Uiso   1.00
N6     N     0.22440   0.61043   0.26923   0.01267  Uiso   1.00
N7     N     0.23419   0.53753   0.39109   0.01267  Uiso   1.00
N8     N     0.23647   0.81288   0.04572   0.01267  Uiso   1.00
N9     N     0.86809   0.65220   0.81774   0.01267  Uiso   1.00
N10    N     0.72018   0.69162   0.79018   0.01267  Uiso   1.00
N11    N     0.60406   0.88957   0.23077   0.01267  Uiso   1.00
N12    N     0.66281   0.96247   0.10891   0.01267  Uiso   1.00
N13    N     0.59507   0.68712   0.45428   0.01267  Uiso   1.00
N14    N     0.83803   0.84780   0.68226   0.01267  Uiso   1.00
N15    N     0.70198   0.80838   0.70982   0.01267  Uiso   1.00
N16    N     0.27560   0.73077   0.38957   0.01267  Uiso   1.00
N17    N     0.26581   0.60891   0.46247   0.01267  Uiso   1.00
N18    N     0.26353   0.95428   0.18712   0.01267  Uiso   1.00
N19    N     0.63191   0.18226   0.34780   0.01267  Uiso   1.00
N20    N     0.77982   0.20982   0.30838   0.01267  Uiso   1.00
O1     O     0.34141   0.32118   0.15460   0.01267  Uiso   1.00
O2     O     0.18281   0.65460   0.82118   0.01267  Uiso   1.00
O3     O     0.15859   0.84540   0.67882   0.01267  Uiso   1.00
O4     O     0.31719   0.17882   0.34540   0.01267  Uiso   1.00
