data_image0
_cell_length_a       9.6191
_cell_length_b       11.6023
_cell_length_c       14.3044
_cell_angle_alpha    90
_cell_angle_beta     122.456
_cell_angle_gamma    90

_symmetry_space_group_name_H-M    "P 1"
_symmetry_int_tables_number       1

loop_
  _symmetry_equiv_pos_as_xyz
  'x, y, z'

loop_
  _atom_site_label
  _atom_site_occupancy
  _atom_site_fract_x
  _atom_site_fract_y
  _atom_site_fract_z
  _atom_site_thermal_displace_type
  _atom_site_B_iso_or_equiv
  _atom_site_type_symbol
  Dy1      1.0000 0.38234  0.51298  0.66760  Biso   1.000  Dy
  O1       1.0000 0.60320  0.63700  0.79320  Biso   1.000  O
  O2       1.0000 0.38400  0.89370  0.70350  Biso   1.000  O
  O3       1.0000 0.29520  0.71170  0.65660  Biso   1.000  O
  O4       1.0000 0.48000  0.61770  0.56700  Biso   1.000  O
  O5       1.0000 0.69330  0.81800  0.82860  Biso   1.000  O
  O6       1.0000 0.53830  0.61130  0.43610  Biso   1.000  O
  O7       1.0000 0.11110  0.51050  0.64350  Biso   1.000  O
  O8       1.0000 0.83920  0.48860  0.52170  Biso   1.000  O
  C1       1.0000 0.58340  0.74290  0.78340  Biso   1.000  C
  C2       1.0000 0.50560  0.56580  0.50090  Biso   1.000  C
  C3       1.0000 0.40340  0.78680  0.70690  Biso   1.000  C
  C4       1.0000 0.98450  0.49980  0.54720  Biso   1.000  C
  Dy2      1.0000 0.61766  0.01298  0.83240  Biso   1.000  Dy
  O9       1.0000 0.39680  0.13700  0.70680  Biso   1.000  O
  O10      1.0000 0.61600  0.39370  0.79650  Biso   1.000  O
  O11      1.0000 0.70480  0.21170  0.84340  Biso   1.000  O
  O12      1.0000 0.52000  0.11770  0.93300  Biso   1.000  O
  O13      1.0000 0.30670  0.31800  0.67140  Biso   1.000  O
  O14      1.0000 0.46170  0.11130  0.06390  Biso   1.000  O
  O15      1.0000 0.88890  0.01050  0.85650  Biso   1.000  O
  O16      1.0000 0.16080  0.98860  0.97830  Biso   1.000  O
  C5       1.0000 0.41660  0.24290  0.71660  Biso   1.000  C
  C6       1.0000 0.49440  0.06580  0.99910  Biso   1.000  C
  C7       1.0000 0.59660  0.28680  0.79310  Biso   1.000  C
  C8       1.0000 0.01550  0.99980  0.95280  Biso   1.000  C
  Dy3      1.0000 0.61766  0.48702  0.33240  Biso   1.000  Dy
  O17      1.0000 0.39680  0.36300  0.20680  Biso   1.000  O
  O18      1.0000 0.61600  0.10630  0.29650  Biso   1.000  O
  O19      1.0000 0.70480  0.28830  0.34340  Biso   1.000  O
  O20      1.0000 0.52000  0.38230  0.43300  Biso   1.000  O
  O21      1.0000 0.30670  0.18200  0.17140  Biso   1.000  O
  O22      1.0000 0.46170  0.38870  0.56390  Biso   1.000  O
  O23      1.0000 0.88890  0.48950  0.35650  Biso   1.000  O
  O24      1.0000 0.16080  0.51140  0.47830  Biso   1.000  O
  C9       1.0000 0.41660  0.25710  0.21660  Biso   1.000  C
  C10      1.0000 0.49440  0.43420  0.49910  Biso   1.000  C
  C11      1.0000 0.59660  0.21320  0.29310  Biso   1.000  C
  C12      1.0000 0.01550  0.50020  0.45280  Biso   1.000  C
  Dy4      1.0000 0.38234  0.98702  0.16760  Biso   1.000  Dy
  O25      1.0000 0.60320  0.86300  0.29320  Biso   1.000  O
  O26      1.0000 0.38400  0.60630  0.20350  Biso   1.000  O
  O27      1.0000 0.29520  0.78830  0.15660  Biso   1.000  O
  O28      1.0000 0.48000  0.88230  0.06700  Biso   1.000  O
  O29      1.0000 0.69330  0.68200  0.32860  Biso   1.000  O
  O30      1.0000 0.53830  0.88870  0.93610  Biso   1.000  O
  O31      1.0000 0.11110  0.98950  0.14350  Biso   1.000  O
  O32      1.0000 0.83920  0.01140  0.02170  Biso   1.000  O
  C13      1.0000 0.58340  0.75710  0.28340  Biso   1.000  C
  C14      1.0000 0.50560  0.93420  0.00090  Biso   1.000  C
  C15      1.0000 0.40340  0.71320  0.20690  Biso   1.000  C
  C16      1.0000 0.98450  0.00020  0.04720  Biso   1.000  C
