data_image0
_cell_length_a       9.6239
_cell_length_b       11.603
_cell_length_c       14.305
_cell_angle_alpha    90
_cell_angle_beta     122.463
_cell_angle_gamma    90

_symmetry_space_group_name_H-M    "P 1"
_symmetry_int_tables_number       1

loop_
  _symmetry_equiv_pos_as_xyz
  'x, y, z'

loop_
  _atom_site_label
  _atom_site_occupancy
  _atom_site_fract_x
  _atom_site_fract_y
  _atom_site_fract_z
  _atom_site_thermal_displace_type
  _atom_site_B_iso_or_equiv
  _atom_site_type_symbol
  Dy1      1.0000 0.11766  0.98689  0.83232  Biso   1.000  Dy
  O1       1.0000 0.20480  0.78776  0.84376  Biso   1.000  O
  O2       1.0000 0.89700  0.86288  0.70709  Biso   1.000  O
  O3       1.0000 0.80610  0.68170  0.67093  Biso   1.000  O
  O4       1.0000 0.11690  0.60625  0.79662  Biso   1.000  O
  O5       1.0000 0.34000  0.98878  0.02214  Biso   1.000  O
  O6       1.0000 0.01920  0.88221  0.93259  Biso   1.000  O
  O7       1.0000 0.96190  0.88866  0.06433  Biso   1.000  O
  O8       1.0000 0.61060  0.01101  0.14319  Biso   1.000  O
  C1       1.0000 0.09650  0.71280  0.79310  Biso   1.000  C
  C2       1.0000 0.91710  0.75650  0.71680  Biso   1.000  C
  C3       1.0000 0.48560  0.99990  0.04830  Biso   1.000  C
  C4       1.0000 0.99450  0.93360  0.99900  Biso   1.000  C
  Dy2      1.0000 0.88234  0.48689  0.66768  Biso   1.000  Dy
  O9       1.0000 0.79520  0.28776  0.65624  Biso   1.000  O
  O10      1.0000 0.10300  0.36288  0.79291  Biso   1.000  O
  O11      1.0000 0.19390  0.18170  0.82907  Biso   1.000  O
  O12      1.0000 0.88310  0.10625  0.70338  Biso   1.000  O
  O13      1.0000 0.66000  0.48878  0.47786  Biso   1.000  O
  O14      1.0000 0.98080  0.38221  0.56741  Biso   1.000  O
  O15      1.0000 0.03810  0.38866  0.43567  Biso   1.000  O
  O16      1.0000 0.38940  0.51101  0.35681  Biso   1.000  O
  C5       1.0000 0.90350  0.21280  0.70690  Biso   1.000  C
  C6       1.0000 0.08290  0.25650  0.78320  Biso   1.000  C
  C7       1.0000 0.51440  0.49990  0.45170  Biso   1.000  C
  C8       1.0000 0.00550  0.43360  0.50100  Biso   1.000  C
  Dy3      1.0000 0.88234  0.01311  0.16768  Biso   1.000  Dy
  O17      1.0000 0.79520  0.21224  0.15624  Biso   1.000  O
  O18      1.0000 0.10300  0.13712  0.29291  Biso   1.000  O
  O19      1.0000 0.19390  0.31830  0.32907  Biso   1.000  O
  O20      1.0000 0.88310  0.39375  0.20338  Biso   1.000  O
  O21      1.0000 0.66000  0.01122  0.97786  Biso   1.000  O
  O22      1.0000 0.98080  0.11779  0.06741  Biso   1.000  O
  O23      1.0000 0.03810  0.11134  0.93567  Biso   1.000  O
  O24      1.0000 0.38940  0.98899  0.85681  Biso   1.000  O
  C9       1.0000 0.90350  0.28720  0.20690  Biso   1.000  C
  C10      1.0000 0.08290  0.24350  0.28320  Biso   1.000  C
  C11      1.0000 0.51440  0.00010  0.95170  Biso   1.000  C
  C12      1.0000 0.00550  0.06640  0.00100  Biso   1.000  C
  Dy4      1.0000 0.11766  0.51311  0.33232  Biso   1.000  Dy
  O25      1.0000 0.20480  0.71224  0.34376  Biso   1.000  O
  O26      1.0000 0.89700  0.63712  0.20709  Biso   1.000  O
  O27      1.0000 0.80610  0.81830  0.17093  Biso   1.000  O
  O28      1.0000 0.11690  0.89375  0.29662  Biso   1.000  O
  O29      1.0000 0.34000  0.51122  0.52214  Biso   1.000  O
  O30      1.0000 0.01920  0.61779  0.43259  Biso   1.000  O
  O31      1.0000 0.96190  0.61134  0.56433  Biso   1.000  O
  O32      1.0000 0.61060  0.48899  0.64319  Biso   1.000  O
  C13      1.0000 0.09650  0.78720  0.29310  Biso   1.000  C
  C14      1.0000 0.91710  0.74350  0.21680  Biso   1.000  C
  C15      1.0000 0.48560  0.50010  0.54830  Biso   1.000  C
  C16      1.0000 0.99450  0.56640  0.49900  Biso   1.000  C
