data_image0
_cell_length_a       18.416
_cell_length_b       10.154
_cell_length_c       27.01
_cell_angle_alpha    90
_cell_angle_beta     90
_cell_angle_gamma    90

_symmetry_space_group_name_H-M    "P 1"
_symmetry_int_tables_number       1

loop_
  _symmetry_equiv_pos_as_xyz
  'x, y, z'

loop_
  _atom_site_label
  _atom_site_occupancy
  _atom_site_fract_x
  _atom_site_fract_y
  _atom_site_fract_z
  _atom_site_thermal_displace_type
  _atom_site_B_iso_or_equiv
  _atom_site_type_symbol
  Zn1      1.0000 0.82834  0.68796  0.96752  Biso   1.000  Zn
  Zn2      1.0000 0.68785  0.99096  0.56630  Biso   1.000  Zn
  O1       1.0000 0.41300  0.92220  0.06578  Biso   1.000  O
  O2       1.0000 0.43060  0.81150  0.99415  Biso   1.000  O
  O3       1.0000 0.76490  0.65540  0.02915  Biso   1.000  O
  O4       1.0000 0.66880  0.02110  0.42999  Biso   1.000  O
  O5       1.0000 0.65890  0.31810  0.41033  Biso   1.000  O
  O6       1.0000 0.67960  0.41120  0.48237  Biso   1.000  O
  C1       1.0000 0.57480  0.75640  0.02480  Biso   1.000  C
  H1       1.0000 0.56800  0.75890  0.99070  Biso   1.000  H
  O7       1.0000 0.67740  0.89330  0.49809  Biso   1.000  O
  O8       1.0000 0.69740  0.70840  0.96517  Biso   1.000  O
  C2       1.0000 0.52950  0.78640  0.10790  Biso   1.000  C
  H2       1.0000 0.49320  0.81370  0.12960  Biso   1.000  H
  C3       1.0000 0.64890  0.70080  0.09640  Biso   1.000  C
  H3       1.0000 0.69240  0.66740  0.10870  Biso   1.000  H
  C4       1.0000 0.65960  0.61030  0.25290  Biso   1.000  C
  H4       1.0000 0.68980  0.54380  0.26450  Biso   1.000  H
  C5       1.0000 0.60590  0.71880  0.18270  Biso   1.000  C
  C6       1.0000 0.44880  0.85080  0.03850  Biso   1.000  C
  C7       1.0000 0.64290  0.61780  0.20140  Biso   1.000  C
  H5       1.0000 0.65820  0.55060  0.18040  Biso   1.000  H
  C8       1.0000 0.59520  0.73580  0.12790  Biso   1.000  C
  C9       1.0000 0.57750  0.81620  0.21570  Biso   1.000  C
  H6       1.0000 0.55150  0.88790  0.20380  Biso   1.000  H
  C10      1.0000 0.63880  0.71520  0.04430  Biso   1.000  C
  C11      1.0000 0.63190  0.69880  0.28460  Biso   1.000  C
  C12      1.0000 0.66900  0.66490  0.44200  Biso   1.000  C
  H7       1.0000 0.67870  0.65770  0.47570  Biso   1.000  H
  C13      1.0000 0.67060  0.91080  0.45310  Biso   1.000  C
  C14      1.0000 0.66090  0.54980  0.41310  Biso   1.000  C
  C15      1.0000 0.58990  0.80100  0.26600  Biso   1.000  C
  H8       1.0000 0.56940  0.86110  0.28790  Biso   1.000  H
  C16      1.0000 0.65060  0.80050  0.36890  Biso   1.000  C
  H9       1.0000 0.64620  0.88330  0.35450  Biso   1.000  H
  C17      1.0000 0.70440  0.68790  0.01050  Biso   1.000  C
  C18      1.0000 0.64560  0.68640  0.34010  Biso   1.000  C
  C19      1.0000 0.66250  0.78770  0.42070  Biso   1.000  C
  C20      1.0000 0.51760  0.79640  0.05790  Biso   1.000  C
  C21      1.0000 0.65200  0.56380  0.36270  Biso   1.000  C
  H10      1.0000 0.65020  0.48860  0.34310  Biso   1.000  H
  C22      1.0000 0.66830  0.41990  0.43620  Biso   1.000  C
  Zn3      1.0000 0.17166  0.31204  0.46752  Biso   1.000  Zn
  Zn4      1.0000 0.31215  0.00904  0.06630  Biso   1.000  Zn
  O9       1.0000 0.58700  0.07780  0.56578  Biso   1.000  O
  O10      1.0000 0.56940  0.18850  0.49415  Biso   1.000  O
  O11      1.0000 0.23510  0.34460  0.52915  Biso   1.000  O
  O12      1.0000 0.33120  0.97890  0.92999  Biso   1.000  O
  O13      1.0000 0.34110  0.68190  0.91033  Biso   1.000  O
  O14      1.0000 0.32040  0.58880  0.98237  Biso   1.000  O
  C23      1.0000 0.42520  0.24360  0.52480  Biso   1.000  C
  H11      1.0000 0.43200  0.24110  0.49070  Biso   1.000  H
  O15      1.0000 0.32260  0.10670  0.99809  Biso   1.000  O
  O16      1.0000 0.30260  0.29160  0.46517  Biso   1.000  O
  C24      1.0000 0.47050  0.21360  0.60790  Biso   1.000  C
  H12      1.0000 0.50680  0.18630  0.62960  Biso   1.000  H
  C25      1.0000 0.35110  0.29920  0.59640  Biso   1.000  C
  H13      1.0000 0.30760  0.33260  0.60870  Biso   1.000  H
  C26      1.0000 0.34040  0.38970  0.75290  Biso   1.000  C
  H14      1.0000 0.31020  0.45620  0.76450  Biso   1.000  H
  C27      1.0000 0.39410  0.28120  0.68270  Biso   1.000  C
  C28      1.0000 0.55120  0.14920  0.53850  Biso   1.000  C
  C29      1.0000 0.35710  0.38220  0.70140  Biso   1.000  C
  H15      1.0000 0.34180  0.44940  0.68040  Biso   1.000  H
  C30      1.0000 0.40480  0.26420  0.62790  Biso   1.000  C
  C31      1.0000 0.42250  0.18380  0.71570  Biso   1.000  C
  H16      1.0000 0.44850  0.11210  0.70380  Biso   1.000  H
  C32      1.0000 0.36120  0.28480  0.54430  Biso   1.000  C
  C33      1.0000 0.36810  0.30120  0.78460  Biso   1.000  C
  C34      1.0000 0.33100  0.33510  0.94200  Biso   1.000  C
  H17      1.0000 0.32130  0.34230  0.97570  Biso   1.000  H
  C35      1.0000 0.32940  0.08920  0.95310  Biso   1.000  C
  C36      1.0000 0.33910  0.45020  0.91310  Biso   1.000  C
  C37      1.0000 0.41010  0.19900  0.76600  Biso   1.000  C
  H18      1.0000 0.43060  0.13890  0.78790  Biso   1.000  H
  C38      1.0000 0.34940  0.19950  0.86890  Biso   1.000  C
  H19      1.0000 0.35380  0.11670  0.85450  Biso   1.000  H
  C39      1.0000 0.29560  0.31210  0.51050  Biso   1.000  C
  C40      1.0000 0.35440  0.31360  0.84010  Biso   1.000  C
  C41      1.0000 0.33750  0.21230  0.92070  Biso   1.000  C
  C42      1.0000 0.48240  0.20360  0.55790  Biso   1.000  C
  C43      1.0000 0.34800  0.43620  0.86270  Biso   1.000  C
  H20      1.0000 0.34980  0.51140  0.84310  Biso   1.000  H
  C44      1.0000 0.33170  0.58010  0.93620  Biso   1.000  C
  Zn5      1.0000 0.32834  0.81204  0.96752  Biso   1.000  Zn
  Zn6      1.0000 0.18785  0.50904  0.56630  Biso   1.000  Zn
  O17      1.0000 0.91300  0.57780  0.06578  Biso   1.000  O
  O18      1.0000 0.93060  0.68850  0.99415  Biso   1.000  O
  O19      1.0000 0.26490  0.84460  0.02915  Biso   1.000  O
  O20      1.0000 0.16880  0.47890  0.42999  Biso   1.000  O
  O21      1.0000 0.15890  0.18190  0.41033  Biso   1.000  O
  O22      1.0000 0.17960  0.08880  0.48237  Biso   1.000  O
  C45      1.0000 0.07480  0.74360  0.02480  Biso   1.000  C
  H21      1.0000 0.06800  0.74110  0.99070  Biso   1.000  H
  O23      1.0000 0.17740  0.60670  0.49809  Biso   1.000  O
  O24      1.0000 0.19740  0.79160  0.96517  Biso   1.000  O
  C46      1.0000 0.02950  0.71360  0.10790  Biso   1.000  C
  H22      1.0000 0.99320  0.68630  0.12960  Biso   1.000  H
  C47      1.0000 0.14890  0.79920  0.09640  Biso   1.000  C
  H23      1.0000 0.19240  0.83260  0.10870  Biso   1.000  H
  C48      1.0000 0.15960  0.88970  0.25290  Biso   1.000  C
  H24      1.0000 0.18980  0.95620  0.26450  Biso   1.000  H
  C49      1.0000 0.10590  0.78120  0.18270  Biso   1.000  C
  C50      1.0000 0.94880  0.64920  0.03850  Biso   1.000  C
  C51      1.0000 0.14290  0.88220  0.20140  Biso   1.000  C
  H25      1.0000 0.15820  0.94940  0.18040  Biso   1.000  H
  C52      1.0000 0.09520  0.76420  0.12790  Biso   1.000  C
  C53      1.0000 0.07750  0.68380  0.21570  Biso   1.000  C
  H26      1.0000 0.05150  0.61210  0.20380  Biso   1.000  H
  C54      1.0000 0.13880  0.78480  0.04430  Biso   1.000  C
  C55      1.0000 0.13190  0.80120  0.28460  Biso   1.000  C
  C56      1.0000 0.16900  0.83510  0.44200  Biso   1.000  C
  H27      1.0000 0.17870  0.84230  0.47570  Biso   1.000  H
  C57      1.0000 0.17060  0.58920  0.45310  Biso   1.000  C
  C58      1.0000 0.16090  0.95020  0.41310  Biso   1.000  C
  C59      1.0000 0.08990  0.69900  0.26600  Biso   1.000  C
  H28      1.0000 0.06940  0.63890  0.28790  Biso   1.000  H
  C60      1.0000 0.15060  0.69950  0.36890  Biso   1.000  C
  H29      1.0000 0.14620  0.61670  0.35450  Biso   1.000  H
  C61      1.0000 0.20440  0.81210  0.01050  Biso   1.000  C
  C62      1.0000 0.14560  0.81360  0.34010  Biso   1.000  C
  C63      1.0000 0.16250  0.71230  0.42070  Biso   1.000  C
  C64      1.0000 0.01760  0.70360  0.05790  Biso   1.000  C
  C65      1.0000 0.15200  0.93620  0.36270  Biso   1.000  C
  H30      1.0000 0.15020  0.01140  0.34310  Biso   1.000  H
  C66      1.0000 0.16830  0.08010  0.43620  Biso   1.000  C
  Zn7      1.0000 0.67166  0.18796  0.46752  Biso   1.000  Zn
  Zn8      1.0000 0.81215  0.49096  0.06630  Biso   1.000  Zn
  O25      1.0000 0.08700  0.42220  0.56578  Biso   1.000  O
  O26      1.0000 0.06940  0.31150  0.49415  Biso   1.000  O
  O27      1.0000 0.73510  0.15540  0.52915  Biso   1.000  O
  O28      1.0000 0.83120  0.52110  0.92999  Biso   1.000  O
  O29      1.0000 0.84110  0.81810  0.91033  Biso   1.000  O
  O30      1.0000 0.82040  0.91120  0.98237  Biso   1.000  O
  C67      1.0000 0.92520  0.25640  0.52480  Biso   1.000  C
  H31      1.0000 0.93200  0.25890  0.49070  Biso   1.000  H
  O31      1.0000 0.82260  0.39330  0.99809  Biso   1.000  O
  O32      1.0000 0.80260  0.20840  0.46517  Biso   1.000  O
  C68      1.0000 0.97050  0.28640  0.60790  Biso   1.000  C
  H32      1.0000 0.00680  0.31370  0.62960  Biso   1.000  H
  C69      1.0000 0.85110  0.20080  0.59640  Biso   1.000  C
  H33      1.0000 0.80760  0.16740  0.60870  Biso   1.000  H
  C70      1.0000 0.84040  0.11030  0.75290  Biso   1.000  C
  H34      1.0000 0.81020  0.04380  0.76450  Biso   1.000  H
  C71      1.0000 0.89410  0.21880  0.68270  Biso   1.000  C
  C72      1.0000 0.05120  0.35080  0.53850  Biso   1.000  C
  C73      1.0000 0.85710  0.11780  0.70140  Biso   1.000  C
  H35      1.0000 0.84180  0.05060  0.68040  Biso   1.000  H
  C74      1.0000 0.90480  0.23580  0.62790  Biso   1.000  C
  C75      1.0000 0.92250  0.31620  0.71570  Biso   1.000  C
  H36      1.0000 0.94850  0.38790  0.70380  Biso   1.000  H
  C76      1.0000 0.86120  0.21520  0.54430  Biso   1.000  C
  C77      1.0000 0.86810  0.19880  0.78460  Biso   1.000  C
  C78      1.0000 0.83100  0.16490  0.94200  Biso   1.000  C
  H37      1.0000 0.82130  0.15770  0.97570  Biso   1.000  H
  C79      1.0000 0.82940  0.41080  0.95310  Biso   1.000  C
  C80      1.0000 0.83910  0.04980  0.91310  Biso   1.000  C
  C81      1.0000 0.91010  0.30100  0.76600  Biso   1.000  C
  H38      1.0000 0.93060  0.36110  0.78790  Biso   1.000  H
  C82      1.0000 0.84940  0.30050  0.86890  Biso   1.000  C
  H39      1.0000 0.85380  0.38330  0.85450  Biso   1.000  H
  C83      1.0000 0.79560  0.18790  0.51050  Biso   1.000  C
  C84      1.0000 0.85440  0.18640  0.84010  Biso   1.000  C
  C85      1.0000 0.83750  0.28770  0.92070  Biso   1.000  C
  C86      1.0000 0.98240  0.29640  0.55790  Biso   1.000  C
  C87      1.0000 0.84800  0.06380  0.86270  Biso   1.000  C
  H40      1.0000 0.84980  0.98860  0.84310  Biso   1.000  H
  C88      1.0000 0.83170  0.91990  0.93620  Biso   1.000  C
