data_image0
_cell_length_a       26.7063
_cell_length_b       19.513
_cell_length_c       28.8938
_cell_angle_alpha    90
_cell_angle_beta     90
_cell_angle_gamma    90

_symmetry_space_group_name_H-M    "P 1"
_symmetry_int_tables_number       1

loop_
  _symmetry_equiv_pos_as_xyz
  'x, y, z'

loop_
  _atom_site_label
  _atom_site_occupancy
  _atom_site_fract_x
  _atom_site_fract_y
  _atom_site_fract_z
  _atom_site_thermal_displace_type
  _atom_site_B_iso_or_equiv
  _atom_site_type_symbol
  Cd1      1.0000 0.52018  0.72844  0.01550  Biso   1.000  Cd
  Cd2      1.0000 0.46481  0.86889  0.07853  Biso   1.000  Cd
  Cd3      1.0000 0.84745  0.87875  0.20439  Biso   1.000  Cd
  Cd4      1.0000 0.76401  0.74367  0.24557  Biso   1.000  Cd
  O1       1.0000 0.72258  0.35259  0.77178  Biso   1.000  O
  O2       1.0000 0.69189  0.25249  0.79171  Biso   1.000  O
  O3       1.0000 0.55938  0.23964  0.91161  Biso   1.000  O
  O4       1.0000 0.52592  0.33546  0.93933  Biso   1.000  O
  O5       1.0000 0.69548  0.65725  0.77033  Biso   1.000  O
  O6       1.0000 0.68883  0.74730  0.81642  Biso   1.000  O
  O7       1.0000 0.58073  0.72961  0.95752  Biso   1.000  O
  O8       1.0000 0.54891  0.62978  0.97649  Biso   1.000  O
  O9       1.0000 0.54207  0.82806  0.05332  Biso   1.000  O
  O10      1.0000 0.59100  0.74203  0.07249  Biso   1.000  O
  O11      1.0000 0.55021  0.12524  0.99713  Biso   1.000  O
  O12      1.0000 0.53824  0.22609  0.03240  Biso   1.000  O
  O13      1.0000 0.63804  0.27252  0.17458  Biso   1.000  O
  O14      1.0000 0.67949  0.18549  0.20722  Biso   1.000  O
  O15      1.0000 0.73106  0.79104  0.18306  Biso   1.000  O
  O16      1.0000 0.77077  0.89122  0.17304  Biso   1.000  O
  C1       1.0000 0.55601  0.30280  0.91375  Biso   1.000  C
  C2       1.0000 0.59121  0.34420  0.88414  Biso   1.000  C
  C3       1.0000 0.62287  0.31210  0.85319  Biso   1.000  C
  H1       1.0000 0.62170  0.26370  0.84960  Biso   1.000  H
  C4       1.0000 0.65662  0.35090  0.82728  Biso   1.000  C
  C5       1.0000 0.69198  0.31640  0.79484  Biso   1.000  C
  C6       1.0000 0.65803  0.42120  0.83323  Biso   1.000  C
  H2       1.0000 0.68160  0.44730  0.81610  Biso   1.000  H
  C7       1.0000 0.62589  0.45482  0.86364  Biso   1.000  C
  C8       1.0000 0.59218  0.41530  0.88882  Biso   1.000  C
  H3       1.0000 0.56950  0.43700  0.90950  Biso   1.000  H
  C9       1.0000 0.62772  0.53080  0.86988  Biso   1.000  C
  C10      1.0000 0.65210  0.57180  0.83724  Biso   1.000  C
  H4       1.0000 0.66710  0.55140  0.81080  Biso   1.000  H
  C11      1.0000 0.65447  0.64270  0.84338  Biso   1.000  C
  C12      1.0000 0.63147  0.67350  0.88098  Biso   1.000  C
  H5       1.0000 0.63340  0.72170  0.88510  Biso   1.000  H
  C13      1.0000 0.60541  0.63330  0.91284  Biso   1.000  C
  C14      1.0000 0.60447  0.56240  0.90720  Biso   1.000  C
  H6       1.0000 0.58750  0.53510  0.92940  Biso   1.000  H
  C15      1.0000 0.68090  0.68576  0.80828  Biso   1.000  C
  C16      1.0000 0.57675  0.66610  0.95168  Biso   1.000  C
  C17      1.0000 0.58079  0.80430  0.07340  Biso   1.000  C
  C18      1.0000 0.61560  0.85410  0.09653  Biso   1.000  C
  C19      1.0000 0.65652  0.83100  0.12133  Biso   1.000  C
  H7       1.0000 0.66180  0.78310  0.12500  Biso   1.000  H
  C20      1.0000 0.69012  0.87710  0.14104  Biso   1.000  C
  C21      1.0000 0.68131  0.94730  0.13655  Biso   1.000  C
  H8       1.0000 0.70450  0.97900  0.14930  Biso   1.000  H
  C22      1.0000 0.63855  0.97200  0.11337  Biso   1.000  C
  C23      1.0000 0.60622  0.92420  0.09320  Biso   1.000  C
  H9       1.0000 0.57740  0.93980  0.07700  Biso   1.000  H
  C24      1.0000 0.62739  0.04670  0.10988  Biso   1.000  C
  C25      1.0000 0.60026  0.07290  0.07242  Biso   1.000  C
  H10      1.0000 0.59140  0.04320  0.04770  Biso   1.000  H
  C26      1.0000 0.58592  0.14150  0.07064  Biso   1.000  C
  C27      1.0000 0.60088  0.18550  0.10580  Biso   1.000  C
  H11      1.0000 0.59060  0.23210  0.10520  Biso   1.000  H
  C28      1.0000 0.63059  0.16210  0.14171  Biso   1.000  C
  C29      1.0000 0.64333  0.09270  0.14408  Biso   1.000  C
  H12      1.0000 0.66300  0.07660  0.16920  Biso   1.000  H
  C30      1.0000 0.65096  0.21100  0.17721  Biso   1.000  C
  C31      1.0000 0.55584  0.16670  0.02990  Biso   1.000  C
  C32      1.0000 0.73443  0.85130  0.16779  Biso   1.000  C
  Cd5      1.0000 0.97982  0.77156  0.51550  Biso   1.000  Cd
  Cd6      1.0000 0.03519  0.63111  0.57853  Biso   1.000  Cd
  Cd7      1.0000 0.65255  0.62125  0.70439  Biso   1.000  Cd
  Cd8      1.0000 0.73599  0.75633  0.74557  Biso   1.000  Cd
  O17      1.0000 0.77742  0.14741  0.27178  Biso   1.000  O
  O18      1.0000 0.80811  0.24751  0.29171  Biso   1.000  O
  O19      1.0000 0.94062  0.26036  0.41161  Biso   1.000  O
  O20      1.0000 0.97408  0.16454  0.43933  Biso   1.000  O
  O21      1.0000 0.80452  0.84275  0.27033  Biso   1.000  O
  O22      1.0000 0.81117  0.75270  0.31642  Biso   1.000  O
  O23      1.0000 0.91927  0.77039  0.45752  Biso   1.000  O
  O24      1.0000 0.95109  0.87022  0.47649  Biso   1.000  O
  O25      1.0000 0.95793  0.67194  0.55332  Biso   1.000  O
  O26      1.0000 0.90900  0.75797  0.57249  Biso   1.000  O
  O27      1.0000 0.94979  0.37476  0.49713  Biso   1.000  O
  O28      1.0000 0.96176  0.27391  0.53240  Biso   1.000  O
  O29      1.0000 0.86196  0.22748  0.67458  Biso   1.000  O
  O30      1.0000 0.82051  0.31451  0.70722  Biso   1.000  O
  O31      1.0000 0.76894  0.70896  0.68306  Biso   1.000  O
  O32      1.0000 0.72923  0.60878  0.67304  Biso   1.000  O
  C33      1.0000 0.94399  0.19720  0.41375  Biso   1.000  C
  C34      1.0000 0.90879  0.15580  0.38414  Biso   1.000  C
  C35      1.0000 0.87713  0.18790  0.35319  Biso   1.000  C
  H13      1.0000 0.87830  0.23630  0.34960  Biso   1.000  H
  C36      1.0000 0.84338  0.14910  0.32728  Biso   1.000  C
  C37      1.0000 0.80802  0.18360  0.29484  Biso   1.000  C
  C38      1.0000 0.84197  0.07880  0.33323  Biso   1.000  C
  H14      1.0000 0.81840  0.05270  0.31610  Biso   1.000  H
  C39      1.0000 0.87411  0.04518  0.36364  Biso   1.000  C
  C40      1.0000 0.90782  0.08470  0.38882  Biso   1.000  C
  H15      1.0000 0.93050  0.06300  0.40950  Biso   1.000  H
  C41      1.0000 0.87228  0.96920  0.36988  Biso   1.000  C
  C42      1.0000 0.84790  0.92820  0.33724  Biso   1.000  C
  H16      1.0000 0.83290  0.94860  0.31080  Biso   1.000  H
  C43      1.0000 0.84553  0.85730  0.34338  Biso   1.000  C
  C44      1.0000 0.86853  0.82650  0.38098  Biso   1.000  C
  H17      1.0000 0.86660  0.77830  0.38510  Biso   1.000  H
  C45      1.0000 0.89459  0.86670  0.41284  Biso   1.000  C
  C46      1.0000 0.89553  0.93760  0.40720  Biso   1.000  C
  H18      1.0000 0.91250  0.96490  0.42940  Biso   1.000  H
  C47      1.0000 0.81910  0.81424  0.30828  Biso   1.000  C
  C48      1.0000 0.92325  0.83390  0.45168  Biso   1.000  C
  C49      1.0000 0.91921  0.69570  0.57340  Biso   1.000  C
  C50      1.0000 0.88440  0.64590  0.59653  Biso   1.000  C
  C51      1.0000 0.84348  0.66900  0.62133  Biso   1.000  C
  H19      1.0000 0.83820  0.71690  0.62500  Biso   1.000  H
  C52      1.0000 0.80988  0.62290  0.64104  Biso   1.000  C
  C53      1.0000 0.81869  0.55270  0.63655  Biso   1.000  C
  H20      1.0000 0.79550  0.52100  0.64930  Biso   1.000  H
  C54      1.0000 0.86145  0.52800  0.61337  Biso   1.000  C
  C55      1.0000 0.89378  0.57580  0.59320  Biso   1.000  C
  H21      1.0000 0.92260  0.56020  0.57700  Biso   1.000  H
  C56      1.0000 0.87261  0.45330  0.60988  Biso   1.000  C
  C57      1.0000 0.89974  0.42710  0.57242  Biso   1.000  C
  H22      1.0000 0.90860  0.45680  0.54770  Biso   1.000  H
  C58      1.0000 0.91408  0.35850  0.57064  Biso   1.000  C
  C59      1.0000 0.89912  0.31450  0.60580  Biso   1.000  C
  H23      1.0000 0.90940  0.26790  0.60520  Biso   1.000  H
  C60      1.0000 0.86941  0.33790  0.64171  Biso   1.000  C
  C61      1.0000 0.85667  0.40730  0.64408  Biso   1.000  C
  H24      1.0000 0.83700  0.42340  0.66920  Biso   1.000  H
  C62      1.0000 0.84904  0.28900  0.67721  Biso   1.000  C
  C63      1.0000 0.94416  0.33330  0.52990  Biso   1.000  C
  C64      1.0000 0.76557  0.64870  0.66779  Biso   1.000  C
  Cd9      1.0000 0.47982  0.72844  0.48450  Biso   1.000  Cd
  Cd10     1.0000 0.53519  0.86889  0.42147  Biso   1.000  Cd
  Cd11     1.0000 0.15255  0.87875  0.29561  Biso   1.000  Cd
  Cd12     1.0000 0.23599  0.74367  0.25443  Biso   1.000  Cd
  O33      1.0000 0.27742  0.35259  0.72822  Biso   1.000  O
  O34      1.0000 0.30811  0.25249  0.70829  Biso   1.000  O
  O35      1.0000 0.44062  0.23964  0.58839  Biso   1.000  O
  O36      1.0000 0.47408  0.33546  0.56067  Biso   1.000  O
  O37      1.0000 0.30452  0.65725  0.72967  Biso   1.000  O
  O38      1.0000 0.31117  0.74730  0.68358  Biso   1.000  O
  O39      1.0000 0.41927  0.72961  0.54248  Biso   1.000  O
  O40      1.0000 0.45109  0.62978  0.52351  Biso   1.000  O
  O41      1.0000 0.45793  0.82806  0.44668  Biso   1.000  O
  O42      1.0000 0.40900  0.74203  0.42751  Biso   1.000  O
  O43      1.0000 0.44979  0.12524  0.50287  Biso   1.000  O
  O44      1.0000 0.46176  0.22609  0.46760  Biso   1.000  O
  O45      1.0000 0.36196  0.27252  0.32542  Biso   1.000  O
  O46      1.0000 0.32051  0.18549  0.29278  Biso   1.000  O
  O47      1.0000 0.26894  0.79104  0.31694  Biso   1.000  O
  O48      1.0000 0.22923  0.89122  0.32696  Biso   1.000  O
  C65      1.0000 0.44399  0.30280  0.58625  Biso   1.000  C
  C66      1.0000 0.40879  0.34420  0.61586  Biso   1.000  C
  C67      1.0000 0.37713  0.31210  0.64681  Biso   1.000  C
  H25      1.0000 0.37830  0.26370  0.65040  Biso   1.000  H
  C68      1.0000 0.34338  0.35090  0.67272  Biso   1.000  C
  C69      1.0000 0.30802  0.31640  0.70516  Biso   1.000  C
  C70      1.0000 0.34197  0.42120  0.66677  Biso   1.000  C
  H26      1.0000 0.31840  0.44730  0.68390  Biso   1.000  H
  C71      1.0000 0.37411  0.45482  0.63636  Biso   1.000  C
  C72      1.0000 0.40782  0.41530  0.61118  Biso   1.000  C
  H27      1.0000 0.43050  0.43700  0.59050  Biso   1.000  H
  C73      1.0000 0.37228  0.53080  0.63012  Biso   1.000  C
  C74      1.0000 0.34790  0.57180  0.66276  Biso   1.000  C
  H28      1.0000 0.33290  0.55140  0.68920  Biso   1.000  H
  C75      1.0000 0.34553  0.64270  0.65662  Biso   1.000  C
  C76      1.0000 0.36853  0.67350  0.61902  Biso   1.000  C
  H29      1.0000 0.36660  0.72170  0.61490  Biso   1.000  H
  C77      1.0000 0.39459  0.63330  0.58716  Biso   1.000  C
  C78      1.0000 0.39553  0.56240  0.59280  Biso   1.000  C
  H30      1.0000 0.41250  0.53510  0.57060  Biso   1.000  H
  C79      1.0000 0.31910  0.68576  0.69172  Biso   1.000  C
  C80      1.0000 0.42325  0.66610  0.54832  Biso   1.000  C
  C81      1.0000 0.41921  0.80430  0.42660  Biso   1.000  C
  C82      1.0000 0.38440  0.85410  0.40347  Biso   1.000  C
  C83      1.0000 0.34348  0.83100  0.37867  Biso   1.000  C
  H31      1.0000 0.33820  0.78310  0.37500  Biso   1.000  H
  C84      1.0000 0.30988  0.87710  0.35896  Biso   1.000  C
  C85      1.0000 0.31869  0.94730  0.36345  Biso   1.000  C
  H32      1.0000 0.29550  0.97900  0.35070  Biso   1.000  H
  C86      1.0000 0.36145  0.97200  0.38663  Biso   1.000  C
  C87      1.0000 0.39378  0.92420  0.40680  Biso   1.000  C
  H33      1.0000 0.42260  0.93980  0.42300  Biso   1.000  H
  C88      1.0000 0.37261  0.04670  0.39012  Biso   1.000  C
  C89      1.0000 0.39974  0.07290  0.42758  Biso   1.000  C
  H34      1.0000 0.40860  0.04320  0.45230  Biso   1.000  H
  C90      1.0000 0.41408  0.14150  0.42936  Biso   1.000  C
  C91      1.0000 0.39912  0.18550  0.39420  Biso   1.000  C
  H35      1.0000 0.40940  0.23210  0.39480  Biso   1.000  H
  C92      1.0000 0.36941  0.16210  0.35829  Biso   1.000  C
  C93      1.0000 0.35667  0.09270  0.35592  Biso   1.000  C
  H36      1.0000 0.33700  0.07660  0.33080  Biso   1.000  H
  C94      1.0000 0.34904  0.21100  0.32279  Biso   1.000  C
  C95      1.0000 0.44416  0.16670  0.47010  Biso   1.000  C
  C96      1.0000 0.26557  0.85130  0.33221  Biso   1.000  C
  Cd13     1.0000 0.02018  0.77156  0.98450  Biso   1.000  Cd
  Cd14     1.0000 0.96481  0.63111  0.92147  Biso   1.000  Cd
  Cd15     1.0000 0.34745  0.62125  0.79561  Biso   1.000  Cd
  Cd16     1.0000 0.26401  0.75633  0.75443  Biso   1.000  Cd
  O49      1.0000 0.22258  0.14741  0.22822  Biso   1.000  O
  O50      1.0000 0.19189  0.24751  0.20829  Biso   1.000  O
  O51      1.0000 0.05938  0.26036  0.08839  Biso   1.000  O
  O52      1.0000 0.02592  0.16454  0.06067  Biso   1.000  O
  O53      1.0000 0.19548  0.84275  0.22967  Biso   1.000  O
  O54      1.0000 0.18883  0.75270  0.18358  Biso   1.000  O
  O55      1.0000 0.08073  0.77039  0.04248  Biso   1.000  O
  O56      1.0000 0.04891  0.87022  0.02351  Biso   1.000  O
  O57      1.0000 0.04207  0.67194  0.94668  Biso   1.000  O
  O58      1.0000 0.09100  0.75797  0.92751  Biso   1.000  O
  O59      1.0000 0.05021  0.37476  0.00287  Biso   1.000  O
  O60      1.0000 0.03824  0.27391  0.96760  Biso   1.000  O
  O61      1.0000 0.13804  0.22748  0.82542  Biso   1.000  O
  O62      1.0000 0.17949  0.31451  0.79278  Biso   1.000  O
  O63      1.0000 0.23106  0.70896  0.81694  Biso   1.000  O
  O64      1.0000 0.27077  0.60878  0.82696  Biso   1.000  O
  C97      1.0000 0.05601  0.19720  0.08625  Biso   1.000  C
  C98      1.0000 0.09121  0.15580  0.11586  Biso   1.000  C
  C99      1.0000 0.12287  0.18790  0.14681  Biso   1.000  C
  H37      1.0000 0.12170  0.23630  0.15040  Biso   1.000  H
  C100     1.0000 0.15662  0.14910  0.17272  Biso   1.000  C
  C101     1.0000 0.19198  0.18360  0.20516  Biso   1.000  C
  C102     1.0000 0.15803  0.07880  0.16677  Biso   1.000  C
  H38      1.0000 0.18160  0.05270  0.18390  Biso   1.000  H
  C103     1.0000 0.12589  0.04518  0.13636  Biso   1.000  C
  C104     1.0000 0.09218  0.08470  0.11118  Biso   1.000  C
  H39      1.0000 0.06950  0.06300  0.09050  Biso   1.000  H
  C105     1.0000 0.12772  0.96920  0.13012  Biso   1.000  C
  C106     1.0000 0.15210  0.92820  0.16276  Biso   1.000  C
  H40      1.0000 0.16710  0.94860  0.18920  Biso   1.000  H
  C107     1.0000 0.15447  0.85730  0.15662  Biso   1.000  C
  C108     1.0000 0.13147  0.82650  0.11902  Biso   1.000  C
  H41      1.0000 0.13340  0.77830  0.11490  Biso   1.000  H
  C109     1.0000 0.10541  0.86670  0.08716  Biso   1.000  C
  C110     1.0000 0.10447  0.93760  0.09280  Biso   1.000  C
  H42      1.0000 0.08750  0.96490  0.07060  Biso   1.000  H
  C111     1.0000 0.18090  0.81424  0.19172  Biso   1.000  C
  C112     1.0000 0.07675  0.83390  0.04832  Biso   1.000  C
  C113     1.0000 0.08079  0.69570  0.92660  Biso   1.000  C
  C114     1.0000 0.11560  0.64590  0.90347  Biso   1.000  C
  C115     1.0000 0.15652  0.66900  0.87867  Biso   1.000  C
  H43      1.0000 0.16180  0.71690  0.87500  Biso   1.000  H
  C116     1.0000 0.19012  0.62290  0.85896  Biso   1.000  C
  C117     1.0000 0.18131  0.55270  0.86345  Biso   1.000  C
  H44      1.0000 0.20450  0.52100  0.85070  Biso   1.000  H
  C118     1.0000 0.13855  0.52800  0.88663  Biso   1.000  C
  C119     1.0000 0.10622  0.57580  0.90680  Biso   1.000  C
  H45      1.0000 0.07740  0.56020  0.92300  Biso   1.000  H
  C120     1.0000 0.12739  0.45330  0.89012  Biso   1.000  C
  C121     1.0000 0.10026  0.42710  0.92758  Biso   1.000  C
  H46      1.0000 0.09140  0.45680  0.95230  Biso   1.000  H
  C122     1.0000 0.08592  0.35850  0.92936  Biso   1.000  C
  C123     1.0000 0.10088  0.31450  0.89420  Biso   1.000  C
  H47      1.0000 0.09060  0.26790  0.89480  Biso   1.000  H
  C124     1.0000 0.13059  0.33790  0.85829  Biso   1.000  C
  C125     1.0000 0.14333  0.40730  0.85592  Biso   1.000  C
  H48      1.0000 0.16300  0.42340  0.83080  Biso   1.000  H
  C126     1.0000 0.15096  0.28900  0.82279  Biso   1.000  C
  C127     1.0000 0.05584  0.33330  0.97010  Biso   1.000  C
  C128     1.0000 0.23443  0.64870  0.83221  Biso   1.000  C
  Cd17     1.0000 0.47982  0.27156  0.98450  Biso   1.000  Cd
  Cd18     1.0000 0.53519  0.13111  0.92147  Biso   1.000  Cd
  Cd19     1.0000 0.15255  0.12125  0.79561  Biso   1.000  Cd
  Cd20     1.0000 0.23599  0.25633  0.75443  Biso   1.000  Cd
  O65      1.0000 0.27742  0.64741  0.22822  Biso   1.000  O
  O66      1.0000 0.30811  0.74751  0.20829  Biso   1.000  O
  O67      1.0000 0.44062  0.76036  0.08839  Biso   1.000  O
  O68      1.0000 0.47408  0.66454  0.06067  Biso   1.000  O
  O69      1.0000 0.30452  0.34275  0.22967  Biso   1.000  O
  O70      1.0000 0.31117  0.25270  0.18358  Biso   1.000  O
  O71      1.0000 0.41927  0.27039  0.04248  Biso   1.000  O
  O72      1.0000 0.45109  0.37022  0.02351  Biso   1.000  O
  O73      1.0000 0.45793  0.17194  0.94668  Biso   1.000  O
  O74      1.0000 0.40900  0.25797  0.92751  Biso   1.000  O
  O75      1.0000 0.44979  0.87476  0.00287  Biso   1.000  O
  O76      1.0000 0.46176  0.77391  0.96760  Biso   1.000  O
  O77      1.0000 0.36196  0.72748  0.82542  Biso   1.000  O
  O78      1.0000 0.32051  0.81451  0.79278  Biso   1.000  O
  O79      1.0000 0.26894  0.20896  0.81694  Biso   1.000  O
  O80      1.0000 0.22923  0.10878  0.82696  Biso   1.000  O
  C129     1.0000 0.44399  0.69720  0.08625  Biso   1.000  C
  C130     1.0000 0.40879  0.65580  0.11586  Biso   1.000  C
  C131     1.0000 0.37713  0.68790  0.14681  Biso   1.000  C
  H49      1.0000 0.37830  0.73630  0.15040  Biso   1.000  H
  C132     1.0000 0.34338  0.64910  0.17272  Biso   1.000  C
  C133     1.0000 0.30802  0.68360  0.20516  Biso   1.000  C
  C134     1.0000 0.34197  0.57880  0.16677  Biso   1.000  C
  H50      1.0000 0.31840  0.55270  0.18390  Biso   1.000  H
  C135     1.0000 0.37411  0.54518  0.13636  Biso   1.000  C
  C136     1.0000 0.40782  0.58470  0.11118  Biso   1.000  C
  H51      1.0000 0.43050  0.56300  0.09050  Biso   1.000  H
  C137     1.0000 0.37228  0.46920  0.13012  Biso   1.000  C
  C138     1.0000 0.34790  0.42820  0.16276  Biso   1.000  C
  H52      1.0000 0.33290  0.44860  0.18920  Biso   1.000  H
  C139     1.0000 0.34553  0.35730  0.15662  Biso   1.000  C
  C140     1.0000 0.36853  0.32650  0.11902  Biso   1.000  C
  H53      1.0000 0.36660  0.27830  0.11490  Biso   1.000  H
  C141     1.0000 0.39459  0.36670  0.08716  Biso   1.000  C
  C142     1.0000 0.39553  0.43760  0.09280  Biso   1.000  C
  H54      1.0000 0.41250  0.46490  0.07060  Biso   1.000  H
  C143     1.0000 0.31910  0.31424  0.19172  Biso   1.000  C
  C144     1.0000 0.42325  0.33390  0.04832  Biso   1.000  C
  C145     1.0000 0.41921  0.19570  0.92660  Biso   1.000  C
  C146     1.0000 0.38440  0.14590  0.90347  Biso   1.000  C
  C147     1.0000 0.34348  0.16900  0.87867  Biso   1.000  C
  H55      1.0000 0.33820  0.21690  0.87500  Biso   1.000  H
  C148     1.0000 0.30988  0.12290  0.85896  Biso   1.000  C
  C149     1.0000 0.31869  0.05270  0.86345  Biso   1.000  C
  H56      1.0000 0.29550  0.02100  0.85070  Biso   1.000  H
  C150     1.0000 0.36145  0.02800  0.88663  Biso   1.000  C
  C151     1.0000 0.39378  0.07580  0.90680  Biso   1.000  C
  H57      1.0000 0.42260  0.06020  0.92300  Biso   1.000  H
  C152     1.0000 0.37261  0.95330  0.89012  Biso   1.000  C
  C153     1.0000 0.39974  0.92710  0.92758  Biso   1.000  C
  H58      1.0000 0.40860  0.95680  0.95230  Biso   1.000  H
  C154     1.0000 0.41408  0.85850  0.92936  Biso   1.000  C
  C155     1.0000 0.39912  0.81450  0.89420  Biso   1.000  C
  H59      1.0000 0.40940  0.76790  0.89480  Biso   1.000  H
  C156     1.0000 0.36941  0.83790  0.85829  Biso   1.000  C
  C157     1.0000 0.35667  0.90730  0.85592  Biso   1.000  C
  H60      1.0000 0.33700  0.92340  0.83080  Biso   1.000  H
  C158     1.0000 0.34904  0.78900  0.82279  Biso   1.000  C
  C159     1.0000 0.44416  0.83330  0.97010  Biso   1.000  C
  C160     1.0000 0.26557  0.14870  0.83221  Biso   1.000  C
  Cd21     1.0000 0.02018  0.22844  0.48450  Biso   1.000  Cd
  Cd22     1.0000 0.96481  0.36889  0.42147  Biso   1.000  Cd
  Cd23     1.0000 0.34745  0.37875  0.29561  Biso   1.000  Cd
  Cd24     1.0000 0.26401  0.24367  0.25443  Biso   1.000  Cd
  O81      1.0000 0.22258  0.85259  0.72822  Biso   1.000  O
  O82      1.0000 0.19189  0.75249  0.70829  Biso   1.000  O
  O83      1.0000 0.05938  0.73964  0.58839  Biso   1.000  O
  O84      1.0000 0.02592  0.83546  0.56067  Biso   1.000  O
  O85      1.0000 0.19548  0.15725  0.72967  Biso   1.000  O
  O86      1.0000 0.18883  0.24730  0.68358  Biso   1.000  O
  O87      1.0000 0.08073  0.22961  0.54248  Biso   1.000  O
  O88      1.0000 0.04891  0.12978  0.52351  Biso   1.000  O
  O89      1.0000 0.04207  0.32806  0.44668  Biso   1.000  O
  O90      1.0000 0.09100  0.24203  0.42751  Biso   1.000  O
  O91      1.0000 0.05021  0.62524  0.50287  Biso   1.000  O
  O92      1.0000 0.03824  0.72609  0.46760  Biso   1.000  O
  O93      1.0000 0.13804  0.77252  0.32542  Biso   1.000  O
  O94      1.0000 0.17949  0.68549  0.29278  Biso   1.000  O
  O95      1.0000 0.23106  0.29104  0.31694  Biso   1.000  O
  O96      1.0000 0.27077  0.39122  0.32696  Biso   1.000  O
  C161     1.0000 0.05601  0.80280  0.58625  Biso   1.000  C
  C162     1.0000 0.09121  0.84420  0.61586  Biso   1.000  C
  C163     1.0000 0.12287  0.81210  0.64681  Biso   1.000  C
  H61      1.0000 0.12170  0.76370  0.65040  Biso   1.000  H
  C164     1.0000 0.15662  0.85090  0.67272  Biso   1.000  C
  C165     1.0000 0.19198  0.81640  0.70516  Biso   1.000  C
  C166     1.0000 0.15803  0.92120  0.66677  Biso   1.000  C
  H62      1.0000 0.18160  0.94730  0.68390  Biso   1.000  H
  C167     1.0000 0.12589  0.95482  0.63636  Biso   1.000  C
  C168     1.0000 0.09218  0.91530  0.61118  Biso   1.000  C
  H63      1.0000 0.06950  0.93700  0.59050  Biso   1.000  H
  C169     1.0000 0.12772  0.03080  0.63012  Biso   1.000  C
  C170     1.0000 0.15210  0.07180  0.66276  Biso   1.000  C
  H64      1.0000 0.16710  0.05140  0.68920  Biso   1.000  H
  C171     1.0000 0.15447  0.14270  0.65662  Biso   1.000  C
  C172     1.0000 0.13147  0.17350  0.61902  Biso   1.000  C
  H65      1.0000 0.13340  0.22170  0.61490  Biso   1.000  H
  C173     1.0000 0.10541  0.13330  0.58716  Biso   1.000  C
  C174     1.0000 0.10447  0.06240  0.59280  Biso   1.000  C
  H66      1.0000 0.08750  0.03510  0.57060  Biso   1.000  H
  C175     1.0000 0.18090  0.18576  0.69172  Biso   1.000  C
  C176     1.0000 0.07675  0.16610  0.54832  Biso   1.000  C
  C177     1.0000 0.08079  0.30430  0.42660  Biso   1.000  C
  C178     1.0000 0.11560  0.35410  0.40347  Biso   1.000  C
  C179     1.0000 0.15652  0.33100  0.37867  Biso   1.000  C
  H67      1.0000 0.16180  0.28310  0.37500  Biso   1.000  H
  C180     1.0000 0.19012  0.37710  0.35896  Biso   1.000  C
  C181     1.0000 0.18131  0.44730  0.36345  Biso   1.000  C
  H68      1.0000 0.20450  0.47900  0.35070  Biso   1.000  H
  C182     1.0000 0.13855  0.47200  0.38663  Biso   1.000  C
  C183     1.0000 0.10622  0.42420  0.40680  Biso   1.000  C
  H69      1.0000 0.07740  0.43980  0.42300  Biso   1.000  H
  C184     1.0000 0.12739  0.54670  0.39012  Biso   1.000  C
  C185     1.0000 0.10026  0.57290  0.42758  Biso   1.000  C
  H70      1.0000 0.09140  0.54320  0.45230  Biso   1.000  H
  C186     1.0000 0.08592  0.64150  0.42936  Biso   1.000  C
  C187     1.0000 0.10088  0.68550  0.39420  Biso   1.000  C
  H71      1.0000 0.09060  0.73210  0.39480  Biso   1.000  H
  C188     1.0000 0.13059  0.66210  0.35829  Biso   1.000  C
  C189     1.0000 0.14333  0.59270  0.35592  Biso   1.000  C
  H72      1.0000 0.16300  0.57660  0.33080  Biso   1.000  H
  C190     1.0000 0.15096  0.71100  0.32279  Biso   1.000  C
  C191     1.0000 0.05584  0.66670  0.47010  Biso   1.000  C
  C192     1.0000 0.23443  0.35130  0.33221  Biso   1.000  C
  Cd25     1.0000 0.52018  0.27156  0.51550  Biso   1.000  Cd
  Cd26     1.0000 0.46481  0.13111  0.57853  Biso   1.000  Cd
  Cd27     1.0000 0.84745  0.12125  0.70439  Biso   1.000  Cd
  Cd28     1.0000 0.76401  0.25633  0.74557  Biso   1.000  Cd
  O97      1.0000 0.72258  0.64741  0.27178  Biso   1.000  O
  O98      1.0000 0.69189  0.74751  0.29171  Biso   1.000  O
  O99      1.0000 0.55938  0.76036  0.41161  Biso   1.000  O
  O100     1.0000 0.52592  0.66454  0.43933  Biso   1.000  O
  O101     1.0000 0.69548  0.34275  0.27033  Biso   1.000  O
  O102     1.0000 0.68883  0.25270  0.31642  Biso   1.000  O
  O103     1.0000 0.58073  0.27039  0.45752  Biso   1.000  O
  O104     1.0000 0.54891  0.37022  0.47649  Biso   1.000  O
  O105     1.0000 0.54207  0.17194  0.55332  Biso   1.000  O
  O106     1.0000 0.59100  0.25797  0.57249  Biso   1.000  O
  O107     1.0000 0.55021  0.87476  0.49713  Biso   1.000  O
  O108     1.0000 0.53824  0.77391  0.53240  Biso   1.000  O
  O109     1.0000 0.63804  0.72748  0.67458  Biso   1.000  O
  O110     1.0000 0.67949  0.81451  0.70722  Biso   1.000  O
  O111     1.0000 0.73106  0.20896  0.68306  Biso   1.000  O
  O112     1.0000 0.77077  0.10878  0.67304  Biso   1.000  O
  C193     1.0000 0.55601  0.69720  0.41375  Biso   1.000  C
  C194     1.0000 0.59121  0.65580  0.38414  Biso   1.000  C
  C195     1.0000 0.62287  0.68790  0.35319  Biso   1.000  C
  H73      1.0000 0.62170  0.73630  0.34960  Biso   1.000  H
  C196     1.0000 0.65662  0.64910  0.32728  Biso   1.000  C
  C197     1.0000 0.69198  0.68360  0.29484  Biso   1.000  C
  C198     1.0000 0.65803  0.57880  0.33323  Biso   1.000  C
  H74      1.0000 0.68160  0.55270  0.31610  Biso   1.000  H
  C199     1.0000 0.62589  0.54518  0.36364  Biso   1.000  C
  C200     1.0000 0.59218  0.58470  0.38882  Biso   1.000  C
  H75      1.0000 0.56950  0.56300  0.40950  Biso   1.000  H
  C201     1.0000 0.62772  0.46920  0.36988  Biso   1.000  C
  C202     1.0000 0.65210  0.42820  0.33724  Biso   1.000  C
  H76      1.0000 0.66710  0.44860  0.31080  Biso   1.000  H
  C203     1.0000 0.65447  0.35730  0.34338  Biso   1.000  C
  C204     1.0000 0.63147  0.32650  0.38098  Biso   1.000  C
  H77      1.0000 0.63340  0.27830  0.38510  Biso   1.000  H
  C205     1.0000 0.60541  0.36670  0.41284  Biso   1.000  C
  C206     1.0000 0.60447  0.43760  0.40720  Biso   1.000  C
  H78      1.0000 0.58750  0.46490  0.42940  Biso   1.000  H
  C207     1.0000 0.68090  0.31424  0.30828  Biso   1.000  C
  C208     1.0000 0.57675  0.33390  0.45168  Biso   1.000  C
  C209     1.0000 0.58079  0.19570  0.57340  Biso   1.000  C
  C210     1.0000 0.61560  0.14590  0.59653  Biso   1.000  C
  C211     1.0000 0.65652  0.16900  0.62133  Biso   1.000  C
  H79      1.0000 0.66180  0.21690  0.62500  Biso   1.000  H
  C212     1.0000 0.69012  0.12290  0.64104  Biso   1.000  C
  C213     1.0000 0.68131  0.05270  0.63655  Biso   1.000  C
  H80      1.0000 0.70450  0.02100  0.64930  Biso   1.000  H
  C214     1.0000 0.63855  0.02800  0.61337  Biso   1.000  C
  C215     1.0000 0.60622  0.07580  0.59320  Biso   1.000  C
  H81      1.0000 0.57740  0.06020  0.57700  Biso   1.000  H
  C216     1.0000 0.62739  0.95330  0.60988  Biso   1.000  C
  C217     1.0000 0.60026  0.92710  0.57242  Biso   1.000  C
  H82      1.0000 0.59140  0.95680  0.54770  Biso   1.000  H
  C218     1.0000 0.58592  0.85850  0.57064  Biso   1.000  C
  C219     1.0000 0.60088  0.81450  0.60580  Biso   1.000  C
  H83      1.0000 0.59060  0.76790  0.60520  Biso   1.000  H
  C220     1.0000 0.63059  0.83790  0.64171  Biso   1.000  C
  C221     1.0000 0.64333  0.90730  0.64408  Biso   1.000  C
  H84      1.0000 0.66300  0.92340  0.66920  Biso   1.000  H
  C222     1.0000 0.65096  0.78900  0.67721  Biso   1.000  C
  C223     1.0000 0.55584  0.83330  0.52990  Biso   1.000  C
  C224     1.0000 0.73443  0.14870  0.66779  Biso   1.000  C
  Cd29     1.0000 0.97982  0.22844  0.01550  Biso   1.000  Cd
  Cd30     1.0000 0.03519  0.36889  0.07853  Biso   1.000  Cd
  Cd31     1.0000 0.65255  0.37875  0.20439  Biso   1.000  Cd
  Cd32     1.0000 0.73599  0.24367  0.24557  Biso   1.000  Cd
  O113     1.0000 0.77742  0.85259  0.77178  Biso   1.000  O
  O114     1.0000 0.80811  0.75249  0.79171  Biso   1.000  O
  O115     1.0000 0.94062  0.73964  0.91161  Biso   1.000  O
  O116     1.0000 0.97408  0.83546  0.93933  Biso   1.000  O
  O117     1.0000 0.80452  0.15725  0.77033  Biso   1.000  O
  O118     1.0000 0.81117  0.24730  0.81642  Biso   1.000  O
  O119     1.0000 0.91927  0.22961  0.95752  Biso   1.000  O
  O120     1.0000 0.95109  0.12978  0.97649  Biso   1.000  O
  O121     1.0000 0.95793  0.32806  0.05332  Biso   1.000  O
  O122     1.0000 0.90900  0.24203  0.07249  Biso   1.000  O
  O123     1.0000 0.94979  0.62524  0.99713  Biso   1.000  O
  O124     1.0000 0.96176  0.72609  0.03240  Biso   1.000  O
  O125     1.0000 0.86196  0.77252  0.17458  Biso   1.000  O
  O126     1.0000 0.82051  0.68549  0.20722  Biso   1.000  O
  O127     1.0000 0.76894  0.29104  0.18306  Biso   1.000  O
  O128     1.0000 0.72923  0.39122  0.17304  Biso   1.000  O
  C225     1.0000 0.94399  0.80280  0.91375  Biso   1.000  C
  C226     1.0000 0.90879  0.84420  0.88414  Biso   1.000  C
  C227     1.0000 0.87713  0.81210  0.85319  Biso   1.000  C
  H85      1.0000 0.87830  0.76370  0.84960  Biso   1.000  H
  C228     1.0000 0.84338  0.85090  0.82728  Biso   1.000  C
  C229     1.0000 0.80802  0.81640  0.79484  Biso   1.000  C
  C230     1.0000 0.84197  0.92120  0.83323  Biso   1.000  C
  H86      1.0000 0.81840  0.94730  0.81610  Biso   1.000  H
  C231     1.0000 0.87411  0.95482  0.86364  Biso   1.000  C
  C232     1.0000 0.90782  0.91530  0.88882  Biso   1.000  C
  H87      1.0000 0.93050  0.93700  0.90950  Biso   1.000  H
  C233     1.0000 0.87228  0.03080  0.86988  Biso   1.000  C
  C234     1.0000 0.84790  0.07180  0.83724  Biso   1.000  C
  H88      1.0000 0.83290  0.05140  0.81080  Biso   1.000  H
  C235     1.0000 0.84553  0.14270  0.84338  Biso   1.000  C
  C236     1.0000 0.86853  0.17350  0.88098  Biso   1.000  C
  H89      1.0000 0.86660  0.22170  0.88510  Biso   1.000  H
  C237     1.0000 0.89459  0.13330  0.91284  Biso   1.000  C
  C238     1.0000 0.89553  0.06240  0.90720  Biso   1.000  C
  H90      1.0000 0.91250  0.03510  0.92940  Biso   1.000  H
  C239     1.0000 0.81910  0.18576  0.80828  Biso   1.000  C
  C240     1.0000 0.92325  0.16610  0.95168  Biso   1.000  C
  C241     1.0000 0.91921  0.30430  0.07340  Biso   1.000  C
  C242     1.0000 0.88440  0.35410  0.09653  Biso   1.000  C
  C243     1.0000 0.84348  0.33100  0.12133  Biso   1.000  C
  H91      1.0000 0.83820  0.28310  0.12500  Biso   1.000  H
  C244     1.0000 0.80988  0.37710  0.14104  Biso   1.000  C
  C245     1.0000 0.81869  0.44730  0.13655  Biso   1.000  C
  H92      1.0000 0.79550  0.47900  0.14930  Biso   1.000  H
  C246     1.0000 0.86145  0.47200  0.11337  Biso   1.000  C
  C247     1.0000 0.89378  0.42420  0.09320  Biso   1.000  C
  H93      1.0000 0.92260  0.43980  0.07700  Biso   1.000  H
  C248     1.0000 0.87261  0.54670  0.10988  Biso   1.000  C
  C249     1.0000 0.89974  0.57290  0.07242  Biso   1.000  C
  H94      1.0000 0.90860  0.54320  0.04770  Biso   1.000  H
  C250     1.0000 0.91408  0.64150  0.07064  Biso   1.000  C
  C251     1.0000 0.89912  0.68550  0.10580  Biso   1.000  C
  H95      1.0000 0.90940  0.73210  0.10520  Biso   1.000  H
  C252     1.0000 0.86941  0.66210  0.14171  Biso   1.000  C
  C253     1.0000 0.85667  0.59270  0.14408  Biso   1.000  C
  H96      1.0000 0.83700  0.57660  0.16920  Biso   1.000  H
  C254     1.0000 0.84904  0.71100  0.17721  Biso   1.000  C
  C255     1.0000 0.94416  0.66670  0.02990  Biso   1.000  C
  C256     1.0000 0.76557  0.35130  0.16779  Biso   1.000  C
