data_image0
_cell_length_a       20.071
_cell_length_b       9.698
_cell_length_c       10.986
_cell_angle_alpha    90
_cell_angle_beta     90
_cell_angle_gamma    90

_symmetry_space_group_name_H-M    "P 1"
_symmetry_int_tables_number       1

loop_
  _symmetry_equiv_pos_as_xyz
  'x, y, z'

loop_
  _atom_site_label
  _atom_site_occupancy
  _atom_site_fract_x
  _atom_site_fract_y
  _atom_site_fract_z
  _atom_site_thermal_displace_type
  _atom_site_B_iso_or_equiv
  _atom_site_type_symbol
  Zn1      1.0000 0.64744  0.86779  0.50703  Biso   1.000  Zn
  O1       1.0000 0.55507  0.75930  0.53200  Biso   1.000  O
  N1       1.0000 0.73917  0.00660  0.49330  Biso   1.000  N
  N2       1.0000 0.78083  0.98470  0.59040  Biso   1.000  N
  N3       1.0000 0.81939  0.09200  0.60370  Biso   1.000  N
  N4       1.0000 0.80343  0.18710  0.51680  Biso   1.000  N
  N5       1.0000 0.62390  0.91960  0.33380  Biso   1.000  N
  N6       1.0000 0.61023  0.82070  0.24830  Biso   1.000  N
  N7       1.0000 0.61110  0.87690  0.14200  Biso   1.000  N
  N8       1.0000 0.62513  0.01340  0.15480  Biso   1.000  N
  C1       1.0000 0.75447  0.13270  0.45180  Biso   1.000  C
  C2       1.0000 0.72385  0.20180  0.34480  Biso   1.000  C
  H1       1.0000 0.74730  0.17250  0.27200  Biso   1.000  H
  H2       1.0000 0.73010  0.30060  0.35280  Biso   1.000  H
  C3       1.0000 0.64947  0.17300  0.32780  Biso   1.000  C
  H3       1.0000 0.62780  0.17940  0.40650  Biso   1.000  H
  H4       1.0000 0.63080  0.24440  0.27630  Biso   1.000  H
  C4       1.0000 0.63318  0.03540  0.27310  Biso   1.000  C
  Zn2      1.0000 0.14744  0.36779  0.50703  Biso   1.000  Zn
  O2       1.0000 0.05507  0.25930  0.53200  Biso   1.000  O
  N9       1.0000 0.23917  0.50660  0.49330  Biso   1.000  N
  N10      1.0000 0.28083  0.48470  0.59040  Biso   1.000  N
  N11      1.0000 0.31939  0.59200  0.60370  Biso   1.000  N
  N12      1.0000 0.30343  0.68710  0.51680  Biso   1.000  N
  N13      1.0000 0.12390  0.41960  0.33380  Biso   1.000  N
  N14      1.0000 0.11023  0.32070  0.24830  Biso   1.000  N
  N15      1.0000 0.11110  0.37690  0.14200  Biso   1.000  N
  N16      1.0000 0.12513  0.51340  0.15480  Biso   1.000  N
  C5       1.0000 0.25447  0.63270  0.45180  Biso   1.000  C
  C6       1.0000 0.22385  0.70180  0.34480  Biso   1.000  C
  H5       1.0000 0.24730  0.67250  0.27200  Biso   1.000  H
  H6       1.0000 0.23010  0.80060  0.35280  Biso   1.000  H
  C7       1.0000 0.14947  0.67300  0.32780  Biso   1.000  C
  H7       1.0000 0.12780  0.67940  0.40650  Biso   1.000  H
  H8       1.0000 0.13080  0.74440  0.27630  Biso   1.000  H
  C8       1.0000 0.13318  0.53540  0.27310  Biso   1.000  C
  Zn3      1.0000 0.35256  0.13221  0.00703  Biso   1.000  Zn
  O3       1.0000 0.44493  0.24070  0.03200  Biso   1.000  O
  N17      1.0000 0.26083  0.99340  0.99330  Biso   1.000  N
  N18      1.0000 0.21917  0.01530  0.09040  Biso   1.000  N
  N19      1.0000 0.18061  0.90800  0.10370  Biso   1.000  N
  N20      1.0000 0.19657  0.81290  0.01680  Biso   1.000  N
  N21      1.0000 0.37610  0.08040  0.83380  Biso   1.000  N
  N22      1.0000 0.38977  0.17930  0.74830  Biso   1.000  N
  N23      1.0000 0.38890  0.12310  0.64200  Biso   1.000  N
  N24      1.0000 0.37487  0.98660  0.65480  Biso   1.000  N
  C9       1.0000 0.24553  0.86730  0.95180  Biso   1.000  C
  C10      1.0000 0.27615  0.79820  0.84480  Biso   1.000  C
  H9       1.0000 0.25270  0.82750  0.77200  Biso   1.000  H
  H10      1.0000 0.26990  0.69940  0.85280  Biso   1.000  H
  C11      1.0000 0.35053  0.82700  0.82780  Biso   1.000  C
  H11      1.0000 0.37220  0.82060  0.90650  Biso   1.000  H
  H12      1.0000 0.36920  0.75560  0.77630  Biso   1.000  H
  C12      1.0000 0.36682  0.96460  0.77310  Biso   1.000  C
  Zn4      1.0000 0.85256  0.63221  0.00703  Biso   1.000  Zn
  O4       1.0000 0.94493  0.74070  0.03200  Biso   1.000  O
  N25      1.0000 0.76083  0.49340  0.99330  Biso   1.000  N
  N26      1.0000 0.71917  0.51530  0.09040  Biso   1.000  N
  N27      1.0000 0.68061  0.40800  0.10370  Biso   1.000  N
  N28      1.0000 0.69657  0.31290  0.01680  Biso   1.000  N
  N29      1.0000 0.87610  0.58040  0.83380  Biso   1.000  N
  N30      1.0000 0.88977  0.67930  0.74830  Biso   1.000  N
  N31      1.0000 0.88890  0.62310  0.64200  Biso   1.000  N
  N32      1.0000 0.87487  0.48660  0.65480  Biso   1.000  N
  C13      1.0000 0.74553  0.36730  0.95180  Biso   1.000  C
  C14      1.0000 0.77615  0.29820  0.84480  Biso   1.000  C
  H13      1.0000 0.75270  0.32750  0.77200  Biso   1.000  H
  H14      1.0000 0.76990  0.19940  0.85280  Biso   1.000  H
  C15      1.0000 0.85053  0.32700  0.82780  Biso   1.000  C
  H15      1.0000 0.87220  0.32060  0.90650  Biso   1.000  H
  H16      1.0000 0.86920  0.25560  0.77630  Biso   1.000  H
  C16      1.0000 0.86682  0.46460  0.77310  Biso   1.000  C
  Zn5      1.0000 0.64744  0.13221  0.00703  Biso   1.000  Zn
  O5       1.0000 0.55507  0.24070  0.03200  Biso   1.000  O
  N33      1.0000 0.73917  0.99340  0.99330  Biso   1.000  N
  N34      1.0000 0.78083  0.01530  0.09040  Biso   1.000  N
  N35      1.0000 0.81939  0.90800  0.10370  Biso   1.000  N
  N36      1.0000 0.80343  0.81290  0.01680  Biso   1.000  N
  N37      1.0000 0.62390  0.08040  0.83380  Biso   1.000  N
  N38      1.0000 0.61023  0.17930  0.74830  Biso   1.000  N
  N39      1.0000 0.61110  0.12310  0.64200  Biso   1.000  N
  N40      1.0000 0.62513  0.98660  0.65480  Biso   1.000  N
  C17      1.0000 0.75447  0.86730  0.95180  Biso   1.000  C
  C18      1.0000 0.72385  0.79820  0.84480  Biso   1.000  C
  H17      1.0000 0.74730  0.82750  0.77200  Biso   1.000  H
  H18      1.0000 0.73010  0.69940  0.85280  Biso   1.000  H
  C19      1.0000 0.64947  0.82700  0.82780  Biso   1.000  C
  H19      1.0000 0.62780  0.82060  0.90650  Biso   1.000  H
  H20      1.0000 0.63080  0.75560  0.77630  Biso   1.000  H
  C20      1.0000 0.63318  0.96460  0.77310  Biso   1.000  C
  Zn6      1.0000 0.14744  0.63221  0.00703  Biso   1.000  Zn
  O6       1.0000 0.05507  0.74070  0.03200  Biso   1.000  O
  N41      1.0000 0.23917  0.49340  0.99330  Biso   1.000  N
  N42      1.0000 0.28083  0.51530  0.09040  Biso   1.000  N
  N43      1.0000 0.31939  0.40800  0.10370  Biso   1.000  N
  N44      1.0000 0.30343  0.31290  0.01680  Biso   1.000  N
  N45      1.0000 0.12390  0.58040  0.83380  Biso   1.000  N
  N46      1.0000 0.11023  0.67930  0.74830  Biso   1.000  N
  N47      1.0000 0.11110  0.62310  0.64200  Biso   1.000  N
  N48      1.0000 0.12513  0.48660  0.65480  Biso   1.000  N
  C21      1.0000 0.25447  0.36730  0.95180  Biso   1.000  C
  C22      1.0000 0.22385  0.29820  0.84480  Biso   1.000  C
  H21      1.0000 0.24730  0.32750  0.77200  Biso   1.000  H
  H22      1.0000 0.23010  0.19940  0.85280  Biso   1.000  H
  C23      1.0000 0.14947  0.32700  0.82780  Biso   1.000  C
  H23      1.0000 0.12780  0.32060  0.90650  Biso   1.000  H
  H24      1.0000 0.13080  0.25560  0.77630  Biso   1.000  H
  C24      1.0000 0.13318  0.46460  0.77310  Biso   1.000  C
  Zn7      1.0000 0.35256  0.86779  0.50703  Biso   1.000  Zn
  O7       1.0000 0.44493  0.75930  0.53200  Biso   1.000  O
  N49      1.0000 0.26083  0.00660  0.49330  Biso   1.000  N
  N50      1.0000 0.21917  0.98470  0.59040  Biso   1.000  N
  N51      1.0000 0.18061  0.09200  0.60370  Biso   1.000  N
  N52      1.0000 0.19657  0.18710  0.51680  Biso   1.000  N
  N53      1.0000 0.37610  0.91960  0.33380  Biso   1.000  N
  N54      1.0000 0.38977  0.82070  0.24830  Biso   1.000  N
  N55      1.0000 0.38890  0.87690  0.14200  Biso   1.000  N
  N56      1.0000 0.37487  0.01340  0.15480  Biso   1.000  N
  C25      1.0000 0.24553  0.13270  0.45180  Biso   1.000  C
  C26      1.0000 0.27615  0.20180  0.34480  Biso   1.000  C
  H25      1.0000 0.25270  0.17250  0.27200  Biso   1.000  H
  H26      1.0000 0.26990  0.30060  0.35280  Biso   1.000  H
  C27      1.0000 0.35053  0.17300  0.32780  Biso   1.000  C
  H27      1.0000 0.37220  0.17940  0.40650  Biso   1.000  H
  H28      1.0000 0.36920  0.24440  0.27630  Biso   1.000  H
  C28      1.0000 0.36682  0.03540  0.27310  Biso   1.000  C
  Zn8      1.0000 0.85256  0.36779  0.50703  Biso   1.000  Zn
  O8       1.0000 0.94493  0.25930  0.53200  Biso   1.000  O
  N57      1.0000 0.76083  0.50660  0.49330  Biso   1.000  N
  N58      1.0000 0.71917  0.48470  0.59040  Biso   1.000  N
  N59      1.0000 0.68061  0.59200  0.60370  Biso   1.000  N
  N60      1.0000 0.69657  0.68710  0.51680  Biso   1.000  N
  N61      1.0000 0.87610  0.41960  0.33380  Biso   1.000  N
  N62      1.0000 0.88977  0.32070  0.24830  Biso   1.000  N
  N63      1.0000 0.88890  0.37690  0.14200  Biso   1.000  N
  N64      1.0000 0.87487  0.51340  0.15480  Biso   1.000  N
  C29      1.0000 0.74553  0.63270  0.45180  Biso   1.000  C
  C30      1.0000 0.77615  0.70180  0.34480  Biso   1.000  C
  H29      1.0000 0.75270  0.67250  0.27200  Biso   1.000  H
  H30      1.0000 0.76990  0.80060  0.35280  Biso   1.000  H
  C31      1.0000 0.85053  0.67300  0.32780  Biso   1.000  C
  H31      1.0000 0.87220  0.67940  0.40650  Biso   1.000  H
  H32      1.0000 0.86920  0.74440  0.27630  Biso   1.000  H
  C32      1.0000 0.86682  0.53540  0.27310  Biso   1.000  C
  C33      1.0000 0.50000  0.81760  0.53430  Biso   1.000  C
  H33      1.0000 0.50000  0.87390  0.60730  Biso   1.000  H
  H34      1.0000 0.50000  0.88120  0.46620  Biso   1.000  H
  C34      1.0000 0.00000  0.31760  0.53430  Biso   1.000  C
  H35      1.0000 0.00000  0.37390  0.60730  Biso   1.000  H
  H36      1.0000 0.00000  0.38120  0.46620  Biso   1.000  H
  C35      1.0000 0.50000  0.18240  0.03430  Biso   1.000  C
  H37      1.0000 0.50000  0.12610  0.10730  Biso   1.000  H
  H38      1.0000 0.50000  0.11880  0.96620  Biso   1.000  H
  C36      1.0000 0.00000  0.68240  0.03430  Biso   1.000  C
  H39      1.0000 0.00000  0.62610  0.10730  Biso   1.000  H
  H40      1.0000 0.00000  0.61880  0.96620  Biso   1.000  H
