data_image0
_cell_length_a       12.8097
_cell_length_b       8.1785
_cell_length_c       23.3387
_cell_angle_alpha    90
_cell_angle_beta     104.414
_cell_angle_gamma    90

_symmetry_space_group_name_H-M    "P 1"
_symmetry_int_tables_number       1

loop_
  _symmetry_equiv_pos_as_xyz
  'x, y, z'

loop_
  _atom_site_label
  _atom_site_occupancy
  _atom_site_fract_x
  _atom_site_fract_y
  _atom_site_fract_z
  _atom_site_thermal_displace_type
  _atom_site_B_iso_or_equiv
  _atom_site_type_symbol
  Cd1      1.0000 0.31075  0.77039  0.40366  Biso   1.000  Cd
  O1       1.0000 0.13060  0.75810  0.34101  Biso   1.000  O
  S1       1.0000 0.03052  0.84396  0.34216  Biso   1.000  S
  C1       1.0000 0.74270  0.24660  0.47200  Biso   1.000  C
  H1       1.0000 0.70010  0.15320  0.46740  Biso   1.000  H
  C2       1.0000 0.04210  0.88890  0.22884  Biso   1.000  C
  H2       1.0000 0.10450  0.82670  0.24070  Biso   1.000  H
  N1       1.0000 0.38490  0.84570  0.32852  Biso   1.000  N
  O2       1.0000 0.17520  0.01060  0.13040  Biso   1.000  O
  N2       1.0000 0.75690  0.32950  0.52199  Biso   1.000  N
  C3       1.0000 0.78780  0.29100  0.42612  Biso   1.000  C
  C4       1.0000 0.00890  0.94350  0.17051  Biso   1.000  C
  C5       1.0000 0.63760  0.03330  0.30670  Biso   1.000  C
  C6       1.0000 0.81470  0.05920  0.28981  Biso   1.000  C
  C7       1.0000 0.71050  0.99930  0.27310  Biso   1.000  C
  H3       1.0000 0.68910  0.93580  0.23910  Biso   1.000  H
  C8       1.0000 0.98320  0.92660  0.26893  Biso   1.000  C
  C9       1.0000 0.33840  0.79670  0.27330  Biso   1.000  C
  H4       1.0000 0.27570  0.73480  0.26690  Biso   1.000  H
  N3       1.0000 0.66450  0.12570  0.35615  Biso   1.000  N
  C10      1.0000 0.52760  0.96140  0.29249  Biso   1.000  C
  C11      1.0000 0.76420  0.18900  0.37122  Biso   1.000  C
  O3       1.0000 0.94680  0.73740  0.35155  Biso   1.000  O
  C12      1.0000 0.91660  0.03630  0.15274  Biso   1.000  C
  H5       1.0000 0.89500  0.07490  0.11410  Biso   1.000  H
  C13      1.0000 0.81760  0.46340  0.52820  Biso   1.000  C
  H6       1.0000 0.82880  0.52200  0.56340  Biso   1.000  H
  C14      1.0000 0.86470  0.51880  0.48490  Biso   1.000  C
  H7       1.0000 0.90560  0.61420  0.49040  Biso   1.000  H
  C15      1.0000 0.84170  0.15820  0.33997  Biso   1.000  C
  H8       1.0000 0.91040  0.20300  0.35240  Biso   1.000  H
  C16      1.0000 0.88860  0.01920  0.25174  Biso   1.000  C
  C17      1.0000 0.85040  0.43130  0.43340  Biso   1.000  C
  H9       1.0000 0.88230  0.46560  0.40370  Biso   1.000  H
  C18      1.0000 0.85650  0.07160  0.19293  Biso   1.000  C
  H10      1.0000 0.79310  0.13150  0.18050  Biso   1.000  H
  C19      1.0000 0.37880  0.83350  0.22610  Biso   1.000  C
  H11      1.0000 0.34170  0.80220  0.18820  Biso   1.000  H
  O4       1.0000 0.05140  0.98350  0.38222  Biso   1.000  O
  C20      1.0000 0.47450  0.91700  0.23480  Biso   1.000  C
  H12      1.0000 0.50330  0.94320  0.20310  Biso   1.000  H
  C21      1.0000 0.47770  0.92660  0.33700  Biso   1.000  C
  H13      1.0000 0.51070  0.96160  0.37510  Biso   1.000  H
  S2       1.0000 0.08651  0.89386  0.11979  Biso   1.000  S
  O5       1.0000 0.12760  0.72950  0.13500  Biso   1.000  O
  O6       1.0000 0.01600  0.90930  0.06219  Biso   1.000  O
  Cd2      1.0000 0.18925  0.27039  0.09634  Biso   1.000  Cd
  O7       1.0000 0.36940  0.25810  0.15899  Biso   1.000  O
  S3       1.0000 0.46948  0.34396  0.15784  Biso   1.000  S
  C22      1.0000 0.75730  0.74660  0.02800  Biso   1.000  C
  H14      1.0000 0.79990  0.65320  0.03260  Biso   1.000  H
  C23      1.0000 0.45790  0.38890  0.27116  Biso   1.000  C
  H15      1.0000 0.39550  0.32670  0.25930  Biso   1.000  H
  N4       1.0000 0.11510  0.34570  0.17148  Biso   1.000  N
  O8       1.0000 0.32480  0.51060  0.36960  Biso   1.000  O
  N5       1.0000 0.74310  0.82950  0.97801  Biso   1.000  N
  C24      1.0000 0.71220  0.79100  0.07388  Biso   1.000  C
  C25      1.0000 0.49110  0.44350  0.32949  Biso   1.000  C
  C26      1.0000 0.86240  0.53330  0.19330  Biso   1.000  C
  C27      1.0000 0.68530  0.55920  0.21019  Biso   1.000  C
  C28      1.0000 0.78950  0.49930  0.22690  Biso   1.000  C
  H16      1.0000 0.81090  0.43580  0.26090  Biso   1.000  H
  C29      1.0000 0.51680  0.42660  0.23107  Biso   1.000  C
  C30      1.0000 0.16160  0.29670  0.22670  Biso   1.000  C
  H17      1.0000 0.22430  0.23480  0.23310  Biso   1.000  H
  N6       1.0000 0.83550  0.62570  0.14385  Biso   1.000  N
  C31      1.0000 0.97240  0.46140  0.20751  Biso   1.000  C
  C32      1.0000 0.73580  0.68900  0.12878  Biso   1.000  C
  O9       1.0000 0.55320  0.23740  0.14845  Biso   1.000  O
  C33      1.0000 0.58340  0.53630  0.34726  Biso   1.000  C
  H18      1.0000 0.60500  0.57490  0.38590  Biso   1.000  H
  C34      1.0000 0.68240  0.96340  0.97180  Biso   1.000  C
  H19      1.0000 0.67120  0.02200  0.93660  Biso   1.000  H
  C35      1.0000 0.63530  0.01880  0.01510  Biso   1.000  C
  H20      1.0000 0.59440  0.11420  0.00960  Biso   1.000  H
  C36      1.0000 0.65830  0.65820  0.16003  Biso   1.000  C
  H21      1.0000 0.58960  0.70300  0.14760  Biso   1.000  H
  C37      1.0000 0.61140  0.51920  0.24826  Biso   1.000  C
  C38      1.0000 0.64960  0.93130  0.06660  Biso   1.000  C
  H22      1.0000 0.61770  0.96560  0.09630  Biso   1.000  H
  C39      1.0000 0.64350  0.57160  0.30707  Biso   1.000  C
  H23      1.0000 0.70690  0.63150  0.31950  Biso   1.000  H
  C40      1.0000 0.12120  0.33350  0.27390  Biso   1.000  C
  H24      1.0000 0.15830  0.30220  0.31180  Biso   1.000  H
  O10      1.0000 0.44860  0.48350  0.11778  Biso   1.000  O
  C41      1.0000 0.02550  0.41700  0.26520  Biso   1.000  C
  H25      1.0000 0.99670  0.44320  0.29690  Biso   1.000  H
  C42      1.0000 0.02230  0.42660  0.16300  Biso   1.000  C
  H26      1.0000 0.98930  0.46160  0.12490  Biso   1.000  H
  S4       1.0000 0.41349  0.39386  0.38021  Biso   1.000  S
  O11      1.0000 0.37240  0.22950  0.36500  Biso   1.000  O
  O12      1.0000 0.48400  0.40930  0.43781  Biso   1.000  O
  Cd3      1.0000 0.68925  0.22961  0.59634  Biso   1.000  Cd
  O13      1.0000 0.86940  0.24190  0.65899  Biso   1.000  O
  S5       1.0000 0.96948  0.15604  0.65784  Biso   1.000  S
  C43      1.0000 0.25730  0.75340  0.52800  Biso   1.000  C
  H27      1.0000 0.29990  0.84680  0.53260  Biso   1.000  H
  C44      1.0000 0.95790  0.11110  0.77116  Biso   1.000  C
  H28      1.0000 0.89550  0.17330  0.75930  Biso   1.000  H
  N7       1.0000 0.61510  0.15430  0.67148  Biso   1.000  N
  O14      1.0000 0.82480  0.98940  0.86960  Biso   1.000  O
  N8       1.0000 0.24310  0.67050  0.47801  Biso   1.000  N
  C45      1.0000 0.21220  0.70900  0.57388  Biso   1.000  C
  C46      1.0000 0.99110  0.05650  0.82949  Biso   1.000  C
  C47      1.0000 0.36240  0.96670  0.69330  Biso   1.000  C
  C48      1.0000 0.18530  0.94080  0.71019  Biso   1.000  C
  C49      1.0000 0.28950  0.00070  0.72690  Biso   1.000  C
  H29      1.0000 0.31090  0.06420  0.76090  Biso   1.000  H
  C50      1.0000 0.01680  0.07340  0.73107  Biso   1.000  C
  C51      1.0000 0.66160  0.20330  0.72670  Biso   1.000  C
  H30      1.0000 0.72430  0.26520  0.73310  Biso   1.000  H
  N9       1.0000 0.33550  0.87430  0.64385  Biso   1.000  N
  C52      1.0000 0.47240  0.03860  0.70751  Biso   1.000  C
  C53      1.0000 0.23580  0.81100  0.62878  Biso   1.000  C
  O15      1.0000 0.05320  0.26260  0.64845  Biso   1.000  O
  C54      1.0000 0.08340  0.96370  0.84726  Biso   1.000  C
  H31      1.0000 0.10500  0.92510  0.88590  Biso   1.000  H
  C55      1.0000 0.18240  0.53660  0.47180  Biso   1.000  C
  H32      1.0000 0.17120  0.47800  0.43660  Biso   1.000  H
  C56      1.0000 0.13530  0.48120  0.51510  Biso   1.000  C
  H33      1.0000 0.09440  0.38580  0.50960  Biso   1.000  H
  C57      1.0000 0.15830  0.84180  0.66003  Biso   1.000  C
  H34      1.0000 0.08960  0.79700  0.64760  Biso   1.000  H
  C58      1.0000 0.11140  0.98080  0.74826  Biso   1.000  C
  C59      1.0000 0.14960  0.56870  0.56660  Biso   1.000  C
  H35      1.0000 0.11770  0.53440  0.59630  Biso   1.000  H
  C60      1.0000 0.14350  0.92840  0.80707  Biso   1.000  C
  H36      1.0000 0.20690  0.86850  0.81950  Biso   1.000  H
  C61      1.0000 0.62120  0.16650  0.77390  Biso   1.000  C
  H37      1.0000 0.65830  0.19780  0.81180  Biso   1.000  H
  O16      1.0000 0.94860  0.01650  0.61778  Biso   1.000  O
  C62      1.0000 0.52550  0.08300  0.76520  Biso   1.000  C
  H38      1.0000 0.49670  0.05680  0.79690  Biso   1.000  H
  C63      1.0000 0.52230  0.07340  0.66300  Biso   1.000  C
  H39      1.0000 0.48930  0.03840  0.62490  Biso   1.000  H
  S6       1.0000 0.91349  0.10614  0.88021  Biso   1.000  S
  O17      1.0000 0.87240  0.27050  0.86500  Biso   1.000  O
  O18      1.0000 0.98400  0.09070  0.93781  Biso   1.000  O
  Cd4      1.0000 0.81075  0.72961  0.90366  Biso   1.000  Cd
  O19      1.0000 0.63060  0.74190  0.84101  Biso   1.000  O
  S7       1.0000 0.53052  0.65604  0.84216  Biso   1.000  S
  C64      1.0000 0.24270  0.25340  0.97200  Biso   1.000  C
  H40      1.0000 0.20010  0.34680  0.96740  Biso   1.000  H
  C65      1.0000 0.54210  0.61110  0.72884  Biso   1.000  C
  H41      1.0000 0.60450  0.67330  0.74070  Biso   1.000  H
  N10      1.0000 0.88490  0.65430  0.82852  Biso   1.000  N
  O20      1.0000 0.67520  0.48940  0.63040  Biso   1.000  O
  N11      1.0000 0.25690  0.17050  0.02199  Biso   1.000  N
  C66      1.0000 0.28780  0.20900  0.92612  Biso   1.000  C
  C67      1.0000 0.50890  0.55650  0.67051  Biso   1.000  C
  C68      1.0000 0.13760  0.46670  0.80670  Biso   1.000  C
  C69      1.0000 0.31470  0.44080  0.78981  Biso   1.000  C
  C70      1.0000 0.21050  0.50070  0.77310  Biso   1.000  C
  H42      1.0000 0.18910  0.56420  0.73910  Biso   1.000  H
  C71      1.0000 0.48320  0.57340  0.76893  Biso   1.000  C
  C72      1.0000 0.83840  0.70330  0.77330  Biso   1.000  C
  H43      1.0000 0.77570  0.76520  0.76690  Biso   1.000  H
  N12      1.0000 0.16450  0.37430  0.85615  Biso   1.000  N
  C73      1.0000 0.02760  0.53860  0.79249  Biso   1.000  C
  C74      1.0000 0.26420  0.31100  0.87122  Biso   1.000  C
  O21      1.0000 0.44680  0.76260  0.85155  Biso   1.000  O
  C75      1.0000 0.41660  0.46370  0.65274  Biso   1.000  C
  H44      1.0000 0.39500  0.42510  0.61410  Biso   1.000  H
  C76      1.0000 0.31760  0.03660  0.02820  Biso   1.000  C
  H45      1.0000 0.32880  0.97800  0.06340  Biso   1.000  H
  C77      1.0000 0.36470  0.98120  0.98490  Biso   1.000  C
  H46      1.0000 0.40560  0.88580  0.99040  Biso   1.000  H
  C78      1.0000 0.34170  0.34180  0.83997  Biso   1.000  C
  H47      1.0000 0.41040  0.29700  0.85240  Biso   1.000  H
  C79      1.0000 0.38860  0.48080  0.75174  Biso   1.000  C
  C80      1.0000 0.35040  0.06870  0.93340  Biso   1.000  C
  H48      1.0000 0.38230  0.03440  0.90370  Biso   1.000  H
  C81      1.0000 0.35650  0.42840  0.69293  Biso   1.000  C
  H49      1.0000 0.29310  0.36850  0.68050  Biso   1.000  H
  C82      1.0000 0.87880  0.66650  0.72610  Biso   1.000  C
  H50      1.0000 0.84170  0.69780  0.68820  Biso   1.000  H
  O22      1.0000 0.55140  0.51650  0.88222  Biso   1.000  O
  C83      1.0000 0.97450  0.58300  0.73480  Biso   1.000  C
  H51      1.0000 0.00330  0.55680  0.70310  Biso   1.000  H
  C84      1.0000 0.97770  0.57340  0.83700  Biso   1.000  C
  H52      1.0000 0.01070  0.53840  0.87510  Biso   1.000  H
  S8       1.0000 0.58651  0.60614  0.61979  Biso   1.000  S
  O23      1.0000 0.62760  0.77050  0.63500  Biso   1.000  O
  O24      1.0000 0.51600  0.59070  0.56219  Biso   1.000  O
