data_image0
_cell_length_a       7.6627
_cell_length_b       7.8432
_cell_length_c       9.7695
_cell_angle_alpha    72.092
_cell_angle_beta     83.275
_cell_angle_gamma    84.998

_symmetry_space_group_name_H-M    "P 1"
_symmetry_int_tables_number       1

loop_
  _symmetry_equiv_pos_as_xyz
  'x, y, z'

loop_
  _atom_site_label
  _atom_site_occupancy
  _atom_site_fract_x
  _atom_site_fract_y
  _atom_site_fract_z
  _atom_site_thermal_displace_type
  _atom_site_B_iso_or_equiv
  _atom_site_type_symbol
  Mg1      1.0000 0.37231  0.01672  0.73755  Biso   1.000  Mg
  Mg2      1.0000 0.30514  0.71166  0.37331  Biso   1.000  Mg
  P1       1.0000 0.41507  0.28097  0.40778  Biso   1.000  P
  O1       1.0000 0.48990  0.19510  0.55436  Biso   1.000  O
  O2       1.0000 0.41680  0.48210  0.36079  Biso   1.000  O
  O3       1.0000 0.50930  0.20490  0.29263  Biso   1.000  O
  O4       1.0000 0.21470  0.23310  0.43010  Biso   1.000  O
  H1       1.0000 0.20460  0.14910  0.39870  Biso   1.000  H
  O5       1.0000 0.13060  0.92960  0.70125  Biso   1.000  O
  O6       1.0000 0.85580  0.03870  0.65690  Biso   1.000  O
  O7       1.0000 0.18920  0.21970  0.76900  Biso   1.000  O
  O8       1.0000 0.92340  0.33940  0.70740  Biso   1.000  O
  O9       1.0000 0.55760  0.13560  0.82543  Biso   1.000  O
  O10      1.0000 0.65830  0.12270  0.03469  Biso   1.000  O
  C1       1.0000 0.00590  0.04470  0.69220  Biso   1.000  C
  C2       1.0000 0.04210  0.21790  0.72670  Biso   1.000  C
  C3       1.0000 0.56450  0.07520  0.96060  Biso   1.000  C
  Mg3      1.0000 0.62769  0.98328  0.26245  Biso   1.000  Mg
  Mg4      1.0000 0.69486  0.28834  0.62669  Biso   1.000  Mg
  P2       1.0000 0.58493  0.71903  0.59222  Biso   1.000  P
  O11      1.0000 0.51010  0.80490  0.44564  Biso   1.000  O
  O12      1.0000 0.58320  0.51790  0.63921  Biso   1.000  O
  O13      1.0000 0.49070  0.79510  0.70737  Biso   1.000  O
  O14      1.0000 0.78530  0.76690  0.56990  Biso   1.000  O
  H2       1.0000 0.79540  0.85090  0.60130  Biso   1.000  H
  O15      1.0000 0.86940  0.07040  0.29875  Biso   1.000  O
  O16      1.0000 0.14420  0.96130  0.34310  Biso   1.000  O
  O17      1.0000 0.81080  0.78030  0.23100  Biso   1.000  O
  O18      1.0000 0.07660  0.66060  0.29260  Biso   1.000  O
  O19      1.0000 0.44240  0.86440  0.17457  Biso   1.000  O
  O20      1.0000 0.34170  0.87730  0.96531  Biso   1.000  O
  C4       1.0000 0.99410  0.95530  0.30780  Biso   1.000  C
  C5       1.0000 0.95790  0.78210  0.27330  Biso   1.000  C
  C6       1.0000 0.43550  0.92480  0.03940  Biso   1.000  C
