data_image0
_cell_length_a       9.3755
_cell_length_b       7.4746
_cell_length_c       15.431
_cell_angle_alpha    90
_cell_angle_beta     100.119
_cell_angle_gamma    90

_symmetry_space_group_name_H-M    "P 1"
_symmetry_int_tables_number       1

loop_
  _symmetry_equiv_pos_as_xyz
  'x, y, z'

loop_
  _atom_site_label
  _atom_site_occupancy
  _atom_site_fract_x
  _atom_site_fract_y
  _atom_site_fract_z
  _atom_site_thermal_displace_type
  _atom_site_B_iso_or_equiv
  _atom_site_type_symbol
  Mg1      1.0000 0.78015  0.46719  0.59849  Biso   1.000  Mg
  P1       1.0000 0.65247  0.59715  0.77434  Biso   1.000  P
  O1       1.0000 0.74348  0.61460  0.70399  Biso   1.000  O
  O2       1.0000 0.71540  0.45260  0.84425  Biso   1.000  O
  H1       1.0000 0.72710  0.35830  0.81920  Biso   1.000  H
  O3       1.0000 0.63442  0.76390  0.82407  Biso   1.000  O
  O4       1.0000 0.50160  0.52460  0.72507  Biso   1.000  O
  H2       1.0000 0.43940  0.54330  0.75530  Biso   1.000  H
  O5       1.0000 0.63731  0.65790  0.52095  Biso   1.000  O
  O6       1.0000 0.41185  0.68550  0.44644  Biso   1.000  O
  O7       1.0000 0.96788  0.61760  0.59181  Biso   1.000  O
  O8       1.0000 0.14943  0.64040  0.51497  Biso   1.000  O
  C1       1.0000 0.51430  0.59950  0.49047  Biso   1.000  C
  C2       1.0000 0.03480  0.57570  0.53153  Biso   1.000  C
  Mg2      1.0000 0.71985  0.96719  0.90151  Biso   1.000  Mg
  P2       1.0000 0.84753  0.09715  0.72566  Biso   1.000  P
  O9       1.0000 0.75652  0.11460  0.79601  Biso   1.000  O
  O10      1.0000 0.78460  0.95260  0.65575  Biso   1.000  O
  H3       1.0000 0.77290  0.85830  0.68080  Biso   1.000  H
  O11      1.0000 0.86558  0.26390  0.67593  Biso   1.000  O
  O12      1.0000 0.99840  0.02460  0.77493  Biso   1.000  O
  H4       1.0000 0.06060  0.04330  0.74470  Biso   1.000  H
  O13      1.0000 0.86269  0.15790  0.97905  Biso   1.000  O
  O14      1.0000 0.08815  0.18550  0.05356  Biso   1.000  O
  O15      1.0000 0.53212  0.11760  0.90819  Biso   1.000  O
  O16      1.0000 0.35057  0.14040  0.98503  Biso   1.000  O
  C3       1.0000 0.98570  0.09950  0.00953  Biso   1.000  C
  C4       1.0000 0.46520  0.07570  0.96847  Biso   1.000  C
  Mg3      1.0000 0.21985  0.53281  0.40151  Biso   1.000  Mg
  P3       1.0000 0.34753  0.40285  0.22566  Biso   1.000  P
  O17      1.0000 0.25652  0.38540  0.29601  Biso   1.000  O
  O18      1.0000 0.28460  0.54740  0.15575  Biso   1.000  O
  H5       1.0000 0.27290  0.64170  0.18080  Biso   1.000  H
  O19      1.0000 0.36558  0.23610  0.17593  Biso   1.000  O
  O20      1.0000 0.49840  0.47540  0.27493  Biso   1.000  O
  H6       1.0000 0.56060  0.45670  0.24470  Biso   1.000  H
  O21      1.0000 0.36269  0.34210  0.47905  Biso   1.000  O
  O22      1.0000 0.58815  0.31450  0.55356  Biso   1.000  O
  O23      1.0000 0.03212  0.38240  0.40819  Biso   1.000  O
  O24      1.0000 0.85057  0.35960  0.48503  Biso   1.000  O
  C5       1.0000 0.48570  0.40050  0.50953  Biso   1.000  C
  C6       1.0000 0.96520  0.42430  0.46847  Biso   1.000  C
  Mg4      1.0000 0.28015  0.03281  0.09849  Biso   1.000  Mg
  P4       1.0000 0.15247  0.90285  0.27434  Biso   1.000  P
  O25      1.0000 0.24348  0.88540  0.20399  Biso   1.000  O
  O26      1.0000 0.21540  0.04740  0.34425  Biso   1.000  O
  H7       1.0000 0.22710  0.14170  0.31920  Biso   1.000  H
  O27      1.0000 0.13442  0.73610  0.32407  Biso   1.000  O
  O28      1.0000 0.00160  0.97540  0.22507  Biso   1.000  O
  H8       1.0000 0.93940  0.95670  0.25530  Biso   1.000  H
  O29      1.0000 0.13731  0.84210  0.02095  Biso   1.000  O
  O30      1.0000 0.91185  0.81450  0.94644  Biso   1.000  O
  O31      1.0000 0.46788  0.88240  0.09181  Biso   1.000  O
  O32      1.0000 0.64943  0.85960  0.01497  Biso   1.000  O
  C7       1.0000 0.01430  0.90050  0.99047  Biso   1.000  C
  C8       1.0000 0.53480  0.92430  0.03153  Biso   1.000  C
