data_image0
_cell_length_a       9.3254
_cell_length_b       9.428
_cell_length_c       14.306
_cell_angle_alpha    96.449
_cell_angle_beta     103.879
_cell_angle_gamma    104.35

_symmetry_space_group_name_H-M    "P 1"
_symmetry_int_tables_number       1

loop_
  _symmetry_equiv_pos_as_xyz
  'x, y, z'

loop_
  _atom_site_label
  _atom_site_occupancy
  _atom_site_fract_x
  _atom_site_fract_y
  _atom_site_fract_z
  _atom_site_thermal_displace_type
  _atom_site_B_iso_or_equiv
  _atom_site_type_symbol
  Mg1      1.0000 0.20695  0.48237  0.89214  Biso   1.000  Mg
  Mg2      1.0000 0.16084  0.29821  0.53675  Biso   1.000  Mg
  P1       1.0000 0.33949  0.59343  0.71123  Biso   1.000  P
  O1       1.0000 0.25911  0.59703  0.79062  Biso   1.000  O
  O2       1.0000 0.31249  0.44102  0.65459  Biso   1.000  O
  O3       1.0000 0.51454  0.66767  0.75113  Biso   1.000  O
  O4       1.0000 0.27001  0.69471  0.64198  Biso   1.000  O
  H1       1.0000 0.33180  0.73040  0.61270  Biso   1.000  H
  O5       1.0000 0.05086  0.60278  0.91350  Biso   1.000  O
  O6       1.0000 0.88683  0.62010  0.00228  Biso   1.000  O
  O7       1.0000 0.39429  0.62770  0.00460  Biso   1.000  O
  O8       1.0000 0.63122  0.63904  0.09309  Biso   1.000  O
  O9       1.0000 0.99605  0.12868  0.42257  Biso   1.000  O
  O10      1.0000 0.87423  0.88553  0.39272  Biso   1.000  O
  O11      1.0000 0.12749  0.44567  0.44259  Biso   1.000  O
  O12      1.0000 0.01410  0.62725  0.42108  Biso   1.000  O
  C1       1.0000 0.98180  0.56550  0.97538  Biso   1.000  C
  C2       1.0000 0.50640  0.57750  0.02772  Biso   1.000  C
  C3       1.0000 0.96220  0.00460  0.44620  Biso   1.000  C
  C4       1.0000 0.04110  0.52240  0.46020  Biso   1.000  C
  Mg3      1.0000 0.79305  0.51763  0.10786  Biso   1.000  Mg
  Mg4      1.0000 0.83916  0.70179  0.46325  Biso   1.000  Mg
  P2       1.0000 0.66051  0.40657  0.28877  Biso   1.000  P
  O13      1.0000 0.74089  0.40297  0.20938  Biso   1.000  O
  O14      1.0000 0.68751  0.55898  0.34541  Biso   1.000  O
  O15      1.0000 0.48546  0.33233  0.24887  Biso   1.000  O
  O16      1.0000 0.72999  0.30529  0.35802  Biso   1.000  O
  H2       1.0000 0.66820  0.26960  0.38730  Biso   1.000  H
  O17      1.0000 0.94914  0.39722  0.08650  Biso   1.000  O
  O18      1.0000 0.11317  0.37990  0.99772  Biso   1.000  O
  O19      1.0000 0.60571  0.37230  0.99540  Biso   1.000  O
  O20      1.0000 0.36878  0.36096  0.90691  Biso   1.000  O
  O21      1.0000 0.00395  0.87132  0.57743  Biso   1.000  O
  O22      1.0000 0.12577  0.11447  0.60728  Biso   1.000  O
  O23      1.0000 0.87251  0.55433  0.55741  Biso   1.000  O
  O24      1.0000 0.98590  0.37275  0.57892  Biso   1.000  O
  C5       1.0000 0.01820  0.43450  0.02462  Biso   1.000  C
  C6       1.0000 0.49360  0.42250  0.97228  Biso   1.000  C
  C7       1.0000 0.03780  0.99540  0.55380  Biso   1.000  C
  C8       1.0000 0.95890  0.47760  0.53980  Biso   1.000  C
