data_DUXKEN_clean
_audit_creation_date              2014-07-02
_audit_creation_method            'Materials Studio'
_symmetry_space_group_name_H-M    'P1'
_symmetry_Int_Tables_number       1
_symmetry_cell_setting            triclinic
loop_
_symmetry_equiv_pos_as_xyz
  x,y,z
_cell_length_a                    11.2784
_cell_length_b                    22.5210
_cell_length_c                    22.6000
_cell_angle_alpha                 104.6260
_cell_angle_beta                  96.2410
_cell_angle_gamma                 100.2150
loop_
_atom_site_label
_atom_site_type_symbol
_atom_site_fract_x
_atom_site_fract_y
_atom_site_fract_z
_atom_site_U_iso_or_equiv
_atom_site_adp_type
_atom_site_occupancy
V1     V     0.12786   0.38186   0.53766   0.01267  Uiso   1.00
V2     V     0.34130   0.43947   0.31489   0.01267  Uiso   1.00
V3     V     0.48263   0.36269   0.50166   0.01267  Uiso   1.00
V4     V     0.28907   0.42073   0.16120   0.01267  Uiso   1.00
V5     V     0.47678   0.33776   0.97899   0.01267  Uiso   1.00
V6     V     0.32527   0.44828   0.82133   0.01267  Uiso   1.00
V7     V     0.25349   0.39590   0.93683   0.01267  Uiso   1.00
V8     V     0.35199   0.29158   0.10295   0.01267  Uiso   1.00
V9     V     0.45560   0.78335   0.89567   0.01267  Uiso   1.00
V10    V     0.12340   0.46966   0.05097   0.01267  Uiso   1.00
V11    V     0.24159   0.34443   0.40324   0.01267  Uiso   1.00
V12    V     0.23200   0.94002   0.52488   0.01267  Uiso   1.00
V13    V     0.30686   0.41164   0.67177   0.01267  Uiso   1.00
V14    V     0.19247   0.94718   0.01622   0.01267  Uiso   1.00
V15    V     0.43660   0.88186   0.04030   0.01267  Uiso   1.00
V16    V     0.92412   0.85570   0.01756   0.01267  Uiso   1.00
V17    V     0.93430   0.86690   0.52297   0.01267  Uiso   1.00
V18    V     0.75402   0.85536   0.89629   0.01267  Uiso   1.00
V19    V     0.46140   0.77154   0.39405   0.01267  Uiso   1.00
V20    V     0.40278   0.28606   0.61556   0.01267  Uiso   1.00
V21    V     0.75150   0.86040   0.40070   0.01267  Uiso   1.00
V22    V     0.72917   0.92878   0.10523   0.01267  Uiso   1.00
V23    V     0.71310   0.91953   0.60493   0.01267  Uiso   1.00
V24    V     0.41220   0.84617   0.53544   0.01267  Uiso   1.00
Ni1    Ni    0.24053   0.12112   0.05503   0.01267  Uiso   1.00
Ni2    Ni    0.74702   0.88046   0.24624   0.01267  Uiso   1.00
Ni3    Ni    0.29652   0.11335   0.55700   0.01267  Uiso   1.00
Ni4    Ni    0.40232   0.62002   0.89341   0.01267  Uiso   1.00
Ni5    Ni    0.40652   0.60707   0.38998   0.01267  Uiso   1.00
Ni6    Ni    0.81212   0.38584   0.00952   0.01267  Uiso   1.00
Ni7    Ni    0.81133   0.38508   0.50866   0.01267  Uiso   1.00
Ni8    Ni    0.79529   0.88658   0.74978   0.01267  Uiso   1.00
H1     H     0.70190   0.79680   0.61840   0.01267  Uiso   1.00
H2     H     0.71820   0.69820   0.55900   0.01267  Uiso   1.00
H3     H     0.89920   0.67460   0.71540   0.01267  Uiso   1.00
H4     H     0.86740   0.77320   0.76980   0.01267  Uiso   1.00
H5     H     0.98830   0.50660   0.59190   0.01267  Uiso   1.00
H6     H     0.98720   0.61010   0.64090   0.01267  Uiso   1.00
H7     H     0.65220   0.58630   0.53960   0.01267  Uiso   1.00
H8     H     0.67070   0.48550   0.49160   0.01267  Uiso   1.00
H9     H     0.95670   0.83340   0.30310   0.01267  Uiso   1.00
H10    H     0.16070   0.83320   0.30020   0.01267  Uiso   1.00
H11    H     0.15280   0.92270   0.16930   0.01267  Uiso   1.00
H12    H     0.95380   0.92820   0.17890   0.01267  Uiso   1.00
H13    H     0.56210   0.95250   0.20630   0.01267  Uiso   1.00
H14    H     0.35880   0.95420   0.20290   0.01267  Uiso   1.00
H15    H     0.30530   0.79010   0.25170   0.01267  Uiso   1.00
H16    H     0.51050   0.79180   0.25290   0.01267  Uiso   1.00
H17    H     0.54930   0.82350   0.67160   0.01267  Uiso   1.00
H18    H     0.34100   0.82250   0.67010   0.01267  Uiso   1.00
H19    H     0.42420   0.93590   0.84640   0.01267  Uiso   1.00
H20    H     0.62810   0.93370   0.84440   0.01267  Uiso   1.00
H21    H     0.99210   0.89500   0.66670   0.01267  Uiso   1.00
H22    H     0.19930   0.88760   0.66430   0.01267  Uiso   1.00
H23    H     0.22020   0.88960   0.84920   0.01267  Uiso   1.00
H24    H     0.01030   0.89420   0.83990   0.01267  Uiso   1.00
H25    H     0.65060   0.25290   0.49290   0.01267  Uiso   1.00
H26    H     0.62490   0.15080   0.43280   0.01267  Uiso   1.00
H27    H     0.95000   0.20210   0.37960   0.01267  Uiso   1.00
H28    H     0.95950   0.30370   0.43560   0.01267  Uiso   1.00
H29    H     0.63370   0.95660   0.34060   0.01267  Uiso   1.00
H30    H     0.63310   0.05700   0.39540   0.01267  Uiso   1.00
H31    H     0.91260   0.11860   0.31210   0.01267  Uiso   1.00
H32    H     0.89430   0.01820   0.25450   0.01267  Uiso   1.00
H33    H     0.95150   0.98620   0.86300   0.01267  Uiso   1.00
H34    H     0.95770   0.08890   0.92180   0.01267  Uiso   1.00
H35    H     0.72240   0.10340   0.77950   0.01267  Uiso   1.00
H36    H     0.72220   0.99840   0.73110   0.01267  Uiso   1.00
H37    H     0.65200   0.27150   0.92040   0.01267  Uiso   1.00
H38    H     0.65500   0.16990   0.86480   0.01267  Uiso   1.00
H39    H     0.00570   0.19710   0.94300   0.01267  Uiso   1.00
H40    H     0.99660   0.29720   0.99720   0.01267  Uiso   1.00
H41    H     0.70610   0.49110   0.97900   0.01267  Uiso   1.00
H42    H     0.69350   0.59370   0.02350   0.01267  Uiso   1.00
H43    H     0.87370   0.58370   0.18340   0.01267  Uiso   1.00
H44    H     0.90090   0.48590   0.13060   0.01267  Uiso   1.00
H45    H     0.72930   0.64660   0.22320   0.01267  Uiso   1.00
H46    H     0.70020   0.74670   0.27110   0.01267  Uiso   1.00
H47    H     0.76010   0.80090   0.11710   0.01267  Uiso   1.00
H48    H     0.78920   0.70070   0.06910   0.01267  Uiso   1.00
H49    H     0.54910   0.18880   0.62740   0.01267  Uiso   1.00
H50    H     0.75240   0.19680   0.61650   0.01267  Uiso   1.00
H51    H     0.65840   0.02610   0.48860   0.01267  Uiso   1.00
H52    H     0.45460   0.02840   0.49800   0.01267  Uiso   1.00
H53    H     0.05180   0.01940   0.52160   0.01267  Uiso   1.00
H54    H     0.84360   0.01820   0.51990   0.01267  Uiso   1.00
H55    H     0.91640   0.20830   0.56190   0.01267  Uiso   1.00
H56    H     0.12470   0.20950   0.56360   0.01267  Uiso   1.00
H57    H     0.39140   0.05020   0.65390   0.01267  Uiso   1.00
H58    H     0.37320   0.04850   0.75470   0.01267  Uiso   1.00
H59    H     0.16630   0.17820   0.76420   0.01267  Uiso   1.00
H60    H     0.19530   0.17910   0.66510   0.01267  Uiso   1.00
H61    H     0.23650   0.02580   0.93140   0.01267  Uiso   1.00
H62    H     0.24960   0.02170   0.82840   0.01267  Uiso   1.00
H63    H     0.24270   0.20480   0.86730   0.01267  Uiso   1.00
H64    H     0.22680   0.20480   0.96840   0.01267  Uiso   1.00
H65    H     0.42940   0.05060   0.09210   0.01267  Uiso   1.00
H66    H     0.63440   0.04810   0.09050   0.01267  Uiso   1.00
H67    H     0.67190   0.20190   0.02800   0.01267  Uiso   1.00
H68    H     0.46570   0.19730   0.02540   0.01267  Uiso   1.00
H69    H     0.07910   0.21120   0.09980   0.01267  Uiso   1.00
H70    H     0.87440   0.21550   0.10160   0.01267  Uiso   1.00
H71    H     0.78420   0.03000   0.01320   0.01267  Uiso   1.00
H72    H     0.99040   0.03200   0.01050   0.01267  Uiso   1.00
H73    H     0.98830   0.39940   0.91960   0.01267  Uiso   1.00
H74    H     0.99220   0.39150   0.81490   0.01267  Uiso   1.00
H75    H     0.62780   0.38740   0.79210   0.01267  Uiso   1.00
H76    H     0.63300   0.39220   0.89630   0.01267  Uiso   1.00
H77    H     0.66900   0.42550   0.61290   0.01267  Uiso   1.00
H78    H     0.67170   0.43250   0.71600   0.01267  Uiso   1.00
H79    H     0.93780   0.33150   0.70680   0.01267  Uiso   1.00
H80    H     0.92840   0.32670   0.60350   0.01267  Uiso   1.00
H81    H     0.64220   0.38030   0.10240   0.01267  Uiso   1.00
H82    H     0.64720   0.39000   0.20730   0.01267  Uiso   1.00
H83    H     0.99040   0.35800   0.21580   0.01267  Uiso   1.00
H84    H     0.97960   0.35480   0.11220   0.01267  Uiso   1.00
H85    H     0.99450   0.42410   0.42470   0.01267  Uiso   1.00
H86    H     0.00530   0.41260   0.32070   0.01267  Uiso   1.00
H87    H     0.63610   0.35300   0.28460   0.01267  Uiso   1.00
H88    H     0.63750   0.35770   0.38890   0.01267  Uiso   1.00
H89    H     0.11390   0.04900   0.13690   0.01267  Uiso   1.00
H90    H     0.12240   0.04670   0.23850   0.01267  Uiso   1.00
H91    H     0.40740   0.19480   0.28540   0.01267  Uiso   1.00
H92    H     0.38910   0.19650   0.18380   0.01267  Uiso   1.00
H93    H     0.34710   0.20630   0.48080   0.01267  Uiso   1.00
H94    H     0.33650   0.21200   0.38020   0.01267  Uiso   1.00
H95    H     0.22270   0.02250   0.32390   0.01267  Uiso   1.00
H96    H     0.23300   0.02270   0.42610   0.01267  Uiso   1.00
H97    H     0.34550   0.51650   0.47000   0.01267  Uiso   1.00
H98    H     0.33880   0.51660   0.57160   0.01267  Uiso   1.00
H99    H     0.46600   0.70630   0.62080   0.01267  Uiso   1.00
H100   H     0.47650   0.69900   0.51750   0.01267  Uiso   1.00
H101   H     0.55070   0.68230   0.81310   0.01267  Uiso   1.00
H102   H     0.55890   0.67890   0.71060   0.01267  Uiso   1.00
H103   H     0.23490   0.55320   0.66470   0.01267  Uiso   1.00
H104   H     0.23970   0.56010   0.76770   0.01267  Uiso   1.00
H105   H     0.18310   0.54560   0.92680   0.01267  Uiso   1.00
H106   H     0.97740   0.54210   0.93070   0.01267  Uiso   1.00
H107   H     0.00810   0.69630   0.86750   0.01267  Uiso   1.00
H108   H     0.21320   0.69260   0.86110   0.01267  Uiso   1.00
H109   H     0.65170   0.70890   0.94290   0.01267  Uiso   1.00
H110   H     0.85670   0.71180   0.94610   0.01267  Uiso   1.00
H111   H     0.77360   0.52630   0.85850   0.01267  Uiso   1.00
H112   H     0.57000   0.52880   0.85810   0.01267  Uiso   1.00
H113   H     0.24690   0.68450   0.45790   0.01267  Uiso   1.00
H114   H     0.04490   0.68730   0.46330   0.01267  Uiso   1.00
H115   H     0.94910   0.53080   0.31880   0.01267  Uiso   1.00
H116   H     0.15350   0.53180   0.31630   0.01267  Uiso   1.00
H117   H     0.58170   0.51830   0.38780   0.01267  Uiso   1.00
H118   H     0.78300   0.51420   0.37890   0.01267  Uiso   1.00
H119   H     0.85570   0.70390   0.41160   0.01267  Uiso   1.00
H120   H     0.65170   0.70050   0.41510   0.01267  Uiso   1.00
C1     C     0.73880   0.77050   0.63820   0.01267  Uiso   1.00
C2     C     0.74850   0.71210   0.60220   0.01267  Uiso   1.00
C3     C     0.80500   0.67470   0.63220   0.01267  Uiso   1.00
C4     C     0.85480   0.69790   0.69500   0.01267  Uiso   1.00
C5     C     0.83680   0.75700   0.72670   0.01267  Uiso   1.00
C6     C     0.91740   0.52220   0.58310   0.01267  Uiso   1.00
C7     C     0.91920   0.58450   0.61140   0.01267  Uiso   1.00
C8     C     0.81900   0.60890   0.59580   0.01267  Uiso   1.00
C9     C     0.72200   0.57110   0.55140   0.01267  Uiso   1.00
C10    C     0.73200   0.51000   0.52500   0.01267  Uiso   1.00
C11    C     0.99810   0.85490   0.27760   0.01267  Uiso   1.00
C12    C     0.11810   0.85220   0.27410   0.01267  Uiso   1.00
C13    C     0.17540   0.87690   0.23320   0.01267  Uiso   1.00
C14    C     0.11450   0.90530   0.19830   0.01267  Uiso   1.00
C15    C     0.99650   0.90900   0.20480   0.01267  Uiso   1.00
C16    C     0.50910   0.91960   0.21580   0.01267  Uiso   1.00
C17    C     0.38870   0.92080   0.21380   0.01267  Uiso   1.00
C18    C     0.30800   0.87270   0.22770   0.01267  Uiso   1.00
C19    C     0.35670   0.82370   0.24250   0.01267  Uiso   1.00
C20    C     0.47850   0.82520   0.24330   0.01267  Uiso   1.00
C21    C     0.52380   0.84660   0.70750   0.01267  Uiso   1.00
C22    C     0.39840   0.84630   0.70580   0.01267  Uiso   1.00
C23    C     0.35970   0.88200   0.75780   0.01267  Uiso   1.00
C24    C     0.44790   0.91310   0.80980   0.01267  Uiso   1.00
C25    C     0.56990   0.91120   0.80860   0.01267  Uiso   1.00
C26    C     0.03950   0.89210   0.70280   0.01267  Uiso   1.00
C27    C     0.16300   0.88750   0.70030   0.01267  Uiso   1.00
C28    C     0.22800   0.88280   0.75600   0.01267  Uiso   1.00
C29    C     0.17490   0.88840   0.81080   0.01267  Uiso   1.00
C30    C     0.05010   0.89210   0.80470   0.01267  Uiso   1.00
C31    C     0.71080   0.24250   0.46810   0.01267  Uiso   1.00
C32    C     0.69560   0.18120   0.43350   0.01267  Uiso   1.00
C33    C     0.78670   0.16450   0.39930   0.01267  Uiso   1.00
C34    C     0.88560   0.21170   0.40170   0.01267  Uiso   1.00
C35    C     0.89140   0.27210   0.43570   0.01267  Uiso   1.00
C36    C     0.69180   0.98990   0.33490   0.01267  Uiso   1.00
C37    C     0.69170   0.05020   0.36860   0.01267  Uiso   1.00
C38    C     0.77800   0.10180   0.36360   0.01267  Uiso   1.00
C39    C     0.85390   0.08620   0.31900   0.01267  Uiso   1.00
C40    C     0.84460   0.02550   0.28580   0.01267  Uiso   1.00
C41    C     0.89740   0.00920   0.84850   0.01267  Uiso   1.00
C42    C     0.90450   0.07060   0.88330   0.01267  Uiso   1.00
C43    C     0.83000   0.10310   0.85860   0.01267  Uiso   1.00
C44    C     0.76470   0.07920   0.79970   0.01267  Uiso   1.00
C45    C     0.76590   0.01670   0.77190   0.01267  Uiso   1.00
C46    C     0.72390   0.25560   0.92580   0.01267  Uiso   1.00
C47    C     0.72610   0.19520   0.89210   0.01267  Uiso   1.00
C48    C     0.83050   0.17110   0.89760   0.01267  Uiso   1.00
C49    C     0.93160   0.21110   0.93800   0.01267  Uiso   1.00
C50    C     0.92570   0.27060   0.97070   0.01267  Uiso   1.00
C51    C     0.74310   0.51080   0.02090   0.01267  Uiso   1.00
C52    C     0.73320   0.57180   0.04770   0.01267  Uiso   1.00
C53    C     0.78100   0.60150   0.10990   0.01267  Uiso   1.00
C54    C     0.84090   0.56680   0.14070   0.01267  Uiso   1.00
C55    C     0.85320   0.50720   0.10928   0.01267  Uiso   1.00
C56    C     0.76200   0.66423   0.14162   0.01267  Uiso   1.00
C57    C     0.73550   0.67790   0.20163   0.01267  Uiso   1.00
C58    C     0.71830   0.73740   0.23012   0.01267  Uiso   1.00
C59    C     0.75390   0.76955   0.13861   0.01267  Uiso   1.00
C60    C     0.77110   0.71005   0.11012   0.01267  Uiso   1.00
C61    C     0.57140   0.15695   0.59709   0.01267  Uiso   1.00
C62    C     0.69340   0.16091   0.59231   0.01267  Uiso   1.00
C63    C     0.72980   0.11250   0.55230   0.01267  Uiso   1.00
C64    C     0.63820   0.06090   0.51620   0.01267  Uiso   1.00
C65    C     0.51670   0.06279   0.52235   0.01267  Uiso   1.00
C66    C     0.02430   0.05775   0.52981   0.01267  Uiso   1.00
C67    C     0.90060   0.05705   0.52877   0.01267  Uiso   1.00
C68    C     0.86040   0.11315   0.54073   0.01267  Uiso   1.00
C69    C     0.94390   0.16994   0.55373   0.01267  Uiso   1.00
C70    C     0.06760   0.17065   0.55476   0.01267  Uiso   1.00
C71    C     0.34560   0.07670   0.67690   0.01267  Uiso   1.00
C72    C     0.33440   0.07560   0.73700   0.01267  Uiso   1.00
C73    C     0.26660   0.11370   0.77250   0.01267  Uiso   1.00
C74    C     0.21420   0.15160   0.74310   0.01267  Uiso   1.00
C75    C     0.23060   0.15140   0.68340   0.01267  Uiso   1.00
C76    C     0.23820   0.06290   0.91850   0.01267  Uiso   1.00
C77    C     0.24710   0.06050   0.85670   0.01267  Uiso   1.00
C78    C     0.25240   0.11360   0.83600   0.01267  Uiso   1.00
C79    C     0.24270   0.16720   0.87910   0.01267  Uiso   1.00
C80    C     0.23310   0.16690   0.93980   0.01267  Uiso   1.00
C81    C     0.47880   0.08100   0.07770   0.01267  Uiso   1.00
C82    C     0.60170   0.07960   0.07740   0.01267  Uiso   1.00
C83    C     0.67570   0.12420   0.05790   0.01267  Uiso   1.00
C84    C     0.62320   0.16940   0.04000   0.01267  Uiso   1.00
C85    C     0.50040   0.16690   0.03950   0.01267  Uiso   1.00
C86    C     0.01840   0.17420   0.08050   0.01267  Uiso   1.00
C87    C     0.89600   0.17710   0.08260   0.01267  Uiso   1.00
C88    C     0.80680   0.12280   0.05650   0.01267  Uiso   1.00
C89    C     0.84280   0.06820   0.03020   0.01267  Uiso   1.00
C90    C     0.96670   0.06990   0.02900   0.01267  Uiso   1.00
C91    C     0.91460   0.39640   0.89330   0.01267  Uiso   1.00
C92    C     0.91760   0.39160   0.83070   0.01267  Uiso   1.00
C93    C     0.80940   0.38680   0.79140   0.01267  Uiso   1.00
C94    C     0.70220   0.38870   0.81700   0.01267  Uiso   1.00
C95    C     0.70680   0.39260   0.87960   0.01267  Uiso   1.00
C96    C     0.72520   0.40690   0.63270   0.01267  Uiso   1.00
C97    C     0.72580   0.41090   0.69410   0.01267  Uiso   1.00
C98    C     0.80570   0.38340   0.72490   0.01267  Uiso   1.00
C99    C     0.88240   0.35140   0.68840   0.01267  Uiso   1.00
C100   C     0.87710   0.34910   0.62690   0.01267  Uiso   1.00
C101   C     0.71450   0.37690   0.12600   0.01267  Uiso   1.00
C102   C     0.71620   0.38160   0.18870   0.01267  Uiso   1.00
C103   C     0.81910   0.37400   0.22460   0.01267  Uiso   1.00
C104   C     0.91820   0.36360   0.19400   0.01267  Uiso   1.00
C105   C     0.91060   0.36130   0.13160   0.01267  Uiso   1.00
C106   C     0.92120   0.40810   0.39550   0.01267  Uiso   1.00
C107   C     0.92880   0.40200   0.33360   0.01267  Uiso   1.00
C108   C     0.82110   0.37970   0.29030   0.01267  Uiso   1.00
C109   C     0.71120   0.36580   0.31240   0.01267  Uiso   1.00
C110   C     0.71200   0.37050   0.37510   0.01267  Uiso   1.00
C111   C     0.17430   0.07940   0.16750   0.01267  Uiso   1.00
C112   C     0.17940   0.07730   0.22800   0.01267  Uiso   1.00
C113   C     0.26850   0.12010   0.27370   0.01267  Uiso   1.00
C114   C     0.34590   0.16430   0.25540   0.01267  Uiso   1.00
C115   C     0.33510   0.16490   0.19460   0.01267  Uiso   1.00
C116   C     0.32060   0.16850   0.44810   0.01267  Uiso   1.00
C117   C     0.31450   0.17230   0.38810   0.01267  Uiso   1.00
C118   C     0.27560   0.11750   0.33820   0.01267  Uiso   1.00
C119   C     0.24730   0.06130   0.35530   0.01267  Uiso   1.00
C120   C     0.25470   0.06160   0.41670   0.01267  Uiso   1.00
C121   C     0.37110   0.55530   0.50130   0.01267  Uiso   1.00
C122   C     0.36550   0.55490   0.56180   0.01267  Uiso   1.00
C123   C     0.40000   0.61180   0.60880   0.01267  Uiso   1.00
C124   C     0.44160   0.66660   0.59070   0.01267  Uiso   1.00
C125   C     0.44640   0.66190   0.52880   0.01267  Uiso   1.00
C126   C     0.48650   0.65540   0.78210   0.01267  Uiso   1.00
C127   C     0.49160   0.65380   0.72090   0.01267  Uiso   1.00
C128   C     0.39800   0.61550   0.67430   0.01267  Uiso   1.00
C129   C     0.30180   0.58010   0.69410   0.01267  Uiso   1.00
C130   C     0.30560   0.58450   0.75570   0.01267  Uiso   1.00
C131   C     0.14640   0.57590   0.91350   0.01267  Uiso   1.00
C132   C     0.02420   0.57400   0.91710   0.01267  Uiso   1.00
C133   C     0.97180   0.61990   0.90040   0.01267  Uiso   1.00
C134   C     0.04200   0.66450   0.87940   0.01267  Uiso   1.00
C135   C     0.16490   0.66200   0.87580   0.01267  Uiso   1.00
C136   C     0.67670   0.67110   0.92500   0.01267  Uiso   1.00
C137   C     0.79960   0.67330   0.92720   0.01267  Uiso   1.00
C138   C     0.84040   0.61930   0.90190   0.01267  Uiso   1.00
C139   C     0.75090   0.56480   0.87600   0.01267  Uiso   1.00
C140   C     0.62900   0.56680   0.87580   0.01267  Uiso   1.00
C141   C     0.18530   0.65280   0.42930   0.01267  Uiso   1.00
C142   C     0.06550   0.65470   0.43300   0.01267  Uiso   1.00
C143   C     0.97560   0.60920   0.39240   0.01267  Uiso   1.00
C144   C     0.00950   0.56270   0.34790   0.01267  Uiso   1.00
C145   C     0.13090   0.56350   0.34670   0.01267  Uiso   1.00
C146   C     0.63780   0.55620   0.39090   0.01267  Uiso   1.00
C147   C     0.75860   0.55340   0.38700   0.01267  Uiso   1.00
C148   C     0.84340   0.60900   0.39510   0.01267  Uiso   1.00
C149   C     0.80110   0.66480   0.40570   0.01267  Uiso   1.00
C150   C     0.67880   0.66200   0.40740   0.01267  Uiso   1.00
N1     N     0.77800   0.79130   0.69840   0.01267  Uiso   1.00
N2     N     0.82000   0.48170   0.54330   0.01267  Uiso   1.00
N3     N     0.93750   0.88650   0.24660   0.01267  Uiso   1.00
N4     N     0.55610   0.87290   0.23100   0.01267  Uiso   1.00
N5     N     0.60980   0.87790   0.75760   0.01267  Uiso   1.00
N6     N     0.98660   0.89260   0.75210   0.01267  Uiso   1.00
N7     N     0.80520   0.28880   0.46910   0.01267  Uiso   1.00
N8     N     0.77000   0.97480   0.29380   0.01267  Uiso   1.00
N9     N     0.82190   0.98120   0.79740   0.01267  Uiso   1.00
N10    N     0.82220   0.29210   0.96620   0.01267  Uiso   1.00
N11    N     0.80180   0.47860   0.05110   0.01267  Uiso   1.00
N12    N     0.72740   0.78323   0.19862   0.01267  Uiso   1.00
N13    N     0.48330   0.11017   0.56045   0.01267  Uiso   1.00
N14    N     0.10780   0.11454   0.54280   0.01267  Uiso   1.00
N15    N     0.29270   0.11470   0.65060   0.01267  Uiso   1.00
N16    N     0.23220   0.11580   0.95960   0.01267  Uiso   1.00
N17    N     0.42730   0.12370   0.05820   0.01267  Uiso   1.00
N18    N     0.05420   0.12230   0.05270   0.01267  Uiso   1.00
N19    N     0.81010   0.39700   0.91790   0.01267  Uiso   1.00
N20    N     0.80170   0.37740   0.59830   0.01267  Uiso   1.00
N21    N     0.81150   0.36780   0.09720   0.01267  Uiso   1.00
N22    N     0.81610   0.39280   0.41700   0.01267  Uiso   1.00
N23    N     0.25070   0.12240   0.14890   0.01267  Uiso   1.00
N24    N     0.29090   0.11370   0.46330   0.01267  Uiso   1.00
N25    N     0.41050   0.60760   0.48380   0.01267  Uiso   1.00
N26    N     0.39460   0.62050   0.79960   0.01267  Uiso   1.00
N27    N     0.21600   0.61830   0.89200   0.01267  Uiso   1.00
N28    N     0.58960   0.61890   0.89910   0.01267  Uiso   1.00
N29    N     0.21950   0.60790   0.38710   0.01267  Uiso   1.00
N30    N     0.59530   0.60950   0.39900   0.01267  Uiso   1.00
O1     O     0.25650   0.01630   0.53550   0.01267  Uiso   1.00
O2     O     0.33620   0.21020   0.58590   0.01267  Uiso   1.00
O3     O     0.62730   0.36330   0.99590   0.01267  Uiso   1.00
O4     O     0.62720   0.36530   0.49130   0.01267  Uiso   1.00
O5     O     0.99520   0.40340   0.52880   0.01267  Uiso   1.00
O6     O     0.36610   0.51130   0.36180   0.01267  Uiso   1.00
O7     O     0.22820   0.40030   0.85930   0.01267  Uiso   1.00
O8     O     0.35470   0.52320   0.86140   0.01267  Uiso   1.00
O9     O     0.20820   0.02570   0.03510   0.01267  Uiso   1.00
O10    O     0.24580   0.38520   0.34690   0.01267  Uiso   1.00
O11    O     0.29550   0.32930   0.65470   0.01267  Uiso   1.00
O12    O     0.25250   0.43740   0.74230   0.01267  Uiso   1.00
O13    O     0.40770   0.40100   0.96290   0.01267  Uiso   1.00
O14    O     0.34930   0.91660   0.56730   0.01267  Uiso   1.00
O15    O     0.32220   0.92450   0.05370   0.01267  Uiso   1.00
O16    O     0.23750   0.33830   0.12630   0.01267  Uiso   1.00
O17    O     0.26340   0.43830   0.23950   0.01267  Uiso   1.00
O18    O     0.99570   0.41420   0.03060   0.01267  Uiso   1.00
O19    O     0.20390   0.45750   0.98540   0.01267  Uiso   1.00
O20    O     0.79880   0.86260   0.82900   0.01267  Uiso   1.00
O21    O     0.83230   0.90970   0.55710   0.01267  Uiso   1.00
O22    O     0.44270   0.71730   0.91910   0.01267  Uiso   1.00
O23    O     0.22190   0.42920   0.61030   0.01267  Uiso   1.00
O24    O     0.42250   0.31270   0.04200   0.01267  Uiso   1.00
O25    O     0.43010   0.84840   0.95940   0.01267  Uiso   1.00
O26    O     0.60940   0.80260   0.88110   0.01267  Uiso   1.00
O27    O     0.44090   0.70330   0.41250   0.01267  Uiso   1.00
O28    O     0.61940   0.80040   0.39730   0.01267  Uiso   1.00
O29    O     0.21290   0.46350   0.11990   0.01267  Uiso   1.00
O30    O     0.57920   0.92950   0.06930   0.01267  Uiso   1.00
O31    O     0.19340   0.38800   0.46930   0.01267  Uiso   1.00
O32    O     0.27630   0.21660   0.07680   0.01267  Uiso   1.00
O33    O     0.86620   0.82610   0.93920   0.01267  Uiso   1.00
O34    O     0.38430   0.32790   0.42620   0.01267  Uiso   1.00
O35    O     0.44520   0.31550   0.55320   0.01267  Uiso   1.00
O36    O     0.76420   0.85990   0.32770   0.01267  Uiso   1.00
O37    O     0.89050   0.84620   0.44190   0.01267  Uiso   1.00
O38    O     0.40140   0.82030   0.45570   0.01267  Uiso   1.00
O39    O     0.77660   0.90750   0.66820   0.01267  Uiso   1.00
O40    O     0.05360   0.91360   0.04010   0.01267  Uiso   1.00
O41    O     0.80550   0.87620   0.05690   0.01267  Uiso   1.00
O42    O     0.08370   0.91180   0.54430   0.01267  Uiso   1.00
O43    O     0.56710   0.86750   0.57070   0.01267  Uiso   1.00
O44    O     0.72260   0.89930   0.16460   0.01267  Uiso   1.00
