data_DUXKUD_clean
_audit_creation_date              2014-07-02
_audit_creation_method            'Materials Studio'
_symmetry_space_group_name_H-M    'P1'
_symmetry_Int_Tables_number       1
_symmetry_cell_setting            triclinic
loop_
_symmetry_equiv_pos_as_xyz
  x,y,z
_cell_length_a                    10.1919
_cell_length_b                    13.5280
_cell_length_c                    13.5280
_cell_angle_alpha                 104.0020
_cell_angle_beta                  96.1810
_cell_angle_gamma                 83.8190
loop_
_atom_site_label
_atom_site_type_symbol
_atom_site_fract_x
_atom_site_fract_y
_atom_site_fract_z
_atom_site_U_iso_or_equiv
_atom_site_adp_type
_atom_site_occupancy
U1     U     0.75000   0.64890   0.64890   0.01267  Uiso   1.00
U2     U     0.25000   0.35110   0.35110   0.01267  Uiso   1.00
H1     H     0.39910   0.31090   0.74950   0.01267  Uiso   1.00
H2     H     0.80750   0.42700   0.89380   0.01267  Uiso   1.00
H3     H     0.74070   0.42000   0.99080   0.01267  Uiso   1.00
H4     H     0.61280   0.51040   0.83280   0.01267  Uiso   1.00
H5     H     0.54590   0.51320   0.93300   0.01267  Uiso   1.00
H6     H     0.62670   0.32950   0.79390   0.01267  Uiso   1.00
H7     H     0.55560   0.33390   0.89230   0.01267  Uiso   1.00
H8     H     0.33750   0.49920   0.87280   0.01267  Uiso   1.00
H9     H     0.23590   0.43450   0.79490   0.01267  Uiso   1.00
H10    H     0.62300   0.64450   0.04550   0.01267  Uiso   1.00
H11    H     0.74830   0.68820   0.11240   0.01267  Uiso   1.00
H12    H     0.73170   0.63630   0.88570   0.01267  Uiso   1.00
H13    H     0.83600   0.69510   0.96610   0.01267  Uiso   1.00
H14    H     0.52660   0.41020   0.66760   0.01267  Uiso   1.00
H15    H     0.41360   0.49440   0.70760   0.01267  Uiso   1.00
H16    H     0.10090   0.74950   0.31090   0.01267  Uiso   1.00
H17    H     0.69250   0.89380   0.42700   0.01267  Uiso   1.00
H18    H     0.75930   0.99080   0.42000   0.01267  Uiso   1.00
H19    H     0.88720   0.83280   0.51040   0.01267  Uiso   1.00
H20    H     0.95410   0.93300   0.51320   0.01267  Uiso   1.00
H21    H     0.87330   0.79390   0.32950   0.01267  Uiso   1.00
H22    H     0.94440   0.89230   0.33390   0.01267  Uiso   1.00
H23    H     0.16250   0.87280   0.49920   0.01267  Uiso   1.00
H24    H     0.26410   0.79490   0.43450   0.01267  Uiso   1.00
H25    H     0.87700   0.04550   0.64450   0.01267  Uiso   1.00
H26    H     0.75170   0.11240   0.68820   0.01267  Uiso   1.00
H27    H     0.76830   0.88570   0.63630   0.01267  Uiso   1.00
H28    H     0.66400   0.96610   0.69510   0.01267  Uiso   1.00
H29    H     0.97340   0.66760   0.41020   0.01267  Uiso   1.00
H30    H     0.08640   0.70760   0.49440   0.01267  Uiso   1.00
H31    H     0.60090   0.68910   0.25050   0.01267  Uiso   1.00
H32    H     0.19250   0.57300   0.10620   0.01267  Uiso   1.00
H33    H     0.25930   0.58000   0.00920   0.01267  Uiso   1.00
H34    H     0.38720   0.48960   0.16720   0.01267  Uiso   1.00
H35    H     0.45410   0.48680   0.06700   0.01267  Uiso   1.00
H36    H     0.37330   0.67050   0.20610   0.01267  Uiso   1.00
H37    H     0.44440   0.66610   0.10770   0.01267  Uiso   1.00
H38    H     0.66250   0.50080   0.12720   0.01267  Uiso   1.00
H39    H     0.76410   0.56550   0.20510   0.01267  Uiso   1.00
H40    H     0.37700   0.35550   0.95450   0.01267  Uiso   1.00
H41    H     0.25170   0.31180   0.88760   0.01267  Uiso   1.00
H42    H     0.26830   0.36370   0.11430   0.01267  Uiso   1.00
H43    H     0.16400   0.30490   0.03390   0.01267  Uiso   1.00
H44    H     0.47340   0.58980   0.33240   0.01267  Uiso   1.00
H45    H     0.58640   0.50560   0.29240   0.01267  Uiso   1.00
H46    H     0.89910   0.25050   0.68910   0.01267  Uiso   1.00
H47    H     0.30750   0.10620   0.57300   0.01267  Uiso   1.00
H48    H     0.24070   0.00920   0.58000   0.01267  Uiso   1.00
H49    H     0.11280   0.16720   0.48960   0.01267  Uiso   1.00
H50    H     0.04590   0.06700   0.48680   0.01267  Uiso   1.00
H51    H     0.12670   0.20610   0.67050   0.01267  Uiso   1.00
H52    H     0.05560   0.10770   0.66610   0.01267  Uiso   1.00
H53    H     0.83750   0.12720   0.50080   0.01267  Uiso   1.00
H54    H     0.73590   0.20510   0.56550   0.01267  Uiso   1.00
H55    H     0.12300   0.95450   0.35550   0.01267  Uiso   1.00
H56    H     0.24830   0.88760   0.31180   0.01267  Uiso   1.00
H57    H     0.23170   0.11430   0.36370   0.01267  Uiso   1.00
H58    H     0.33600   0.03390   0.30490   0.01267  Uiso   1.00
H59    H     0.02660   0.33240   0.58980   0.01267  Uiso   1.00
H60    H     0.91360   0.29240   0.50560   0.01267  Uiso   1.00
C1     C     0.74490   0.46210   0.94250   0.01267  Uiso   1.00
C2     C     0.60810   0.47400   0.88580   0.01267  Uiso   1.00
C3     C     0.56180   0.36890   0.83850   0.01267  Uiso   1.00
C4     C     0.31600   0.43020   0.84000   0.01267  Uiso   1.00
C5     C     0.70780   0.62570   0.07910   0.01267  Uiso   1.00
C6     C     0.81400   0.62790   0.92730   0.01267  Uiso   1.00
C7     C     0.92340   0.58050   0.85750   0.01267  Uiso   1.00
C8     C     0.43670   0.42120   0.68780   0.01267  Uiso   1.00
C9     C     0.34320   0.37390   0.59830   0.01267  Uiso   1.00
C10    C     0.75510   0.94250   0.46210   0.01267  Uiso   1.00
C11    C     0.89190   0.88580   0.47400   0.01267  Uiso   1.00
C12    C     0.93820   0.83850   0.36890   0.01267  Uiso   1.00
C13    C     0.18400   0.84000   0.43020   0.01267  Uiso   1.00
C14    C     0.79220   0.07910   0.62570   0.01267  Uiso   1.00
C15    C     0.68600   0.92730   0.62790   0.01267  Uiso   1.00
C16    C     0.57660   0.85750   0.58050   0.01267  Uiso   1.00
C17    C     0.06330   0.68780   0.42120   0.01267  Uiso   1.00
C18    C     0.15680   0.59830   0.37390   0.01267  Uiso   1.00
C19    C     0.25510   0.53790   0.05750   0.01267  Uiso   1.00
C20    C     0.39190   0.52600   0.11420   0.01267  Uiso   1.00
C21    C     0.43820   0.63110   0.16150   0.01267  Uiso   1.00
C22    C     0.68400   0.56980   0.16000   0.01267  Uiso   1.00
C23    C     0.29220   0.37430   0.92090   0.01267  Uiso   1.00
C24    C     0.18600   0.37210   0.07270   0.01267  Uiso   1.00
C25    C     0.07660   0.41950   0.14250   0.01267  Uiso   1.00
C26    C     0.56330   0.57880   0.31220   0.01267  Uiso   1.00
C27    C     0.65680   0.62610   0.40170   0.01267  Uiso   1.00
C28    C     0.24490   0.05750   0.53790   0.01267  Uiso   1.00
C29    C     0.10810   0.11420   0.52600   0.01267  Uiso   1.00
C30    C     0.06180   0.16150   0.63110   0.01267  Uiso   1.00
C31    C     0.81600   0.16000   0.56980   0.01267  Uiso   1.00
C32    C     0.20780   0.92090   0.37430   0.01267  Uiso   1.00
C33    C     0.31400   0.07270   0.37210   0.01267  Uiso   1.00
C34    C     0.42340   0.14250   0.41950   0.01267  Uiso   1.00
C35    C     0.93670   0.31220   0.57880   0.01267  Uiso   1.00
C36    C     0.84320   0.40170   0.62610   0.01267  Uiso   1.00
N1     N     0.79430   0.56390   0.99970   0.01267  Uiso   1.00
N2     N     0.42890   0.37410   0.77790   0.01267  Uiso   1.00
N3     N     0.70570   0.99970   0.56390   0.01267  Uiso   1.00
N4     N     0.07110   0.77790   0.37410   0.01267  Uiso   1.00
N5     N     0.20570   0.43610   0.00030   0.01267  Uiso   1.00
N6     N     0.57110   0.62590   0.22210   0.01267  Uiso   1.00
N7     N     0.29430   0.00030   0.43610   0.01267  Uiso   1.00
N8     N     0.92890   0.22210   0.62590   0.01267  Uiso   1.00
O1     O     0.91510   0.60910   0.77430   0.01267  Uiso   1.00
O2     O     0.01420   0.52410   0.88630   0.01267  Uiso   1.00
O3     O     0.34380   0.41328   0.52112   0.01267  Uiso   1.00
O4     O     0.28060   0.30410   0.60510   0.01267  Uiso   1.00
O5     O     0.58490   0.77430   0.60910   0.01267  Uiso   1.00
O6     O     0.48580   0.88630   0.52410   0.01267  Uiso   1.00
O7     O     0.15620   0.52112   0.41328   0.01267  Uiso   1.00
O8     O     0.21940   0.60510   0.30410   0.01267  Uiso   1.00
O9     O     0.08490   0.39090   0.22570   0.01267  Uiso   1.00
O10    O     0.98580   0.47590   0.11370   0.01267  Uiso   1.00
O11    O     0.65620   0.58672   0.47888   0.01267  Uiso   1.00
O12    O     0.71940   0.69590   0.39490   0.01267  Uiso   1.00
O13    O     0.41510   0.22570   0.39090   0.01267  Uiso   1.00
O14    O     0.51420   0.11370   0.47590   0.01267  Uiso   1.00
O15    O     0.84380   0.47888   0.58672   0.01267  Uiso   1.00
O16    O     0.78060   0.39490   0.69590   0.01267  Uiso   1.00
