data_image0
_cell_length_a       11.573
_cell_length_b       13.892
_cell_length_c       14.655
_cell_angle_alpha    62.631
_cell_angle_beta     68.977
_cell_angle_gamma    68.8

_symmetry_space_group_name_H-M    "P 1"
_symmetry_int_tables_number       1

loop_
  _symmetry_equiv_pos_as_xyz
  'x, y, z'

loop_
  _atom_site_label
  _atom_site_occupancy
  _atom_site_fract_x
  _atom_site_fract_y
  _atom_site_fract_z
  _atom_site_thermal_displace_type
  _atom_site_B_iso_or_equiv
  _atom_site_type_symbol
  C1       1.0000 0.94200  0.35190  0.34400  Biso   1.000  C
  H1       1.0000 0.88980  0.39000  0.38810  Biso   1.000  H
  C2       1.0000 0.89280  0.29710  0.31360  Biso   1.000  C
  C3       1.0000 0.96900  0.23970  0.24840  Biso   1.000  C
  H2       1.0000 0.93430  0.20430  0.22760  Biso   1.000  H
  C4       1.0000 0.09660  0.23620  0.21520  Biso   1.000  C
  C5       1.0000 0.15020  0.28990  0.24360  Biso   1.000  C
  H3       1.0000 0.23710  0.28660  0.22060  Biso   1.000  H
  C6       1.0000 0.07080  0.34860  0.30740  Biso   1.000  C
  C7       1.0000 0.08620  0.51440  0.32120  Biso   1.000  C
  H4       1.0000 0.01700  0.56580  0.29380  Biso   1.000  H
  C8       1.0000 0.28890  0.20060  0.07590  Biso   1.000  C
  H5       1.0000 0.32760  0.25500  0.06360  Biso   1.000  H
  C9       1.0000 0.15550  0.09260  0.14050  Biso   1.000  C
  H6       1.0000 0.08580  0.06130  0.18030  Biso   1.000  H
  C10      1.0000 0.66370  0.37660  0.37740  Biso   1.000  C
  H7       1.0000 0.67230  0.44300  0.37210  Biso   1.000  H
  C11      1.0000 0.71030  0.21310  0.37010  Biso   1.000  C
  H8       1.0000 0.75450  0.14700  0.35930  Biso   1.000  H
  C12      1.0000 0.58400  0.24540  0.40650  Biso   1.000  C
  H9       1.0000 0.52500  0.20430  0.42600  Biso   1.000  H
  C13      1.0000 0.22560  0.36640  0.37640  Biso   1.000  C
  H10      1.0000 0.27190  0.29250  0.39460  Biso   1.000  H
  C14      1.0000 0.16510  0.53530  0.35340  Biso   1.000  C
  H11      1.0000 0.16040  0.60420  0.35200  Biso   1.000  H
  C15      1.0000 0.53930  0.01650  0.19150  Biso   1.000  C
  C16      1.0000 0.44600  0.94320  0.25910  Biso   1.000  C
  C17      1.0000 0.47240  0.83880  0.25740  Biso   1.000  C
  H12      1.0000 0.54720  0.81340  0.21430  Biso   1.000  H
  C18      1.0000 0.38700  0.77250  0.31990  Biso   1.000  C
  C19      1.0000 0.27250  0.81380  0.37920  Biso   1.000  C
  H13      1.0000 0.21460  0.76920  0.42100  Biso   1.000  H
  C20      1.0000 0.24370  0.91920  0.37720  Biso   1.000  C
  C21      1.0000 0.33200  0.98300  0.31890  Biso   1.000  C
  H14      1.0000 0.31470  0.05350  0.31980  Biso   1.000  H
  C22      1.0000 0.11740  0.96210  0.44000  Biso   1.000  C
  C23      1.0000 0.00970  0.93260  0.45150  Biso   1.000  C
  H15      1.0000 0.01570  0.88740  0.41810  Biso   1.000  H
  C24      1.0000 0.10650  0.03130  0.48870  Biso   1.000  C
  H16      1.0000 0.17750  0.05330  0.48100  Biso   1.000  H
  C25      1.0000 0.41710  0.65560  0.32610  Biso   1.000  C
  C26      1.0000 0.27360  0.31140  0.64600  Biso   1.000  C
  C27      1.0000 0.18430  0.28860  0.75140  Biso   1.000  C
  C28      1.0000 0.11030  0.21430  0.78670  Biso   1.000  C
  H17      1.0000 0.12440  0.17160  0.74840  Biso   1.000  H
  C29      1.0000 0.01500  0.20250  0.87870  Biso   1.000  C
  C30      1.0000 0.99380  0.26780  0.93460  Biso   1.000  C
  H18      1.0000 0.92930  0.26080  0.99590  Biso   1.000  H
  C31      1.0000 0.06690  0.34300  0.90050  Biso   1.000  C
  C32      1.0000 0.16230  0.35190  0.80900  Biso   1.000  C
  H19      1.0000 0.21280  0.40150  0.78560  Biso   1.000  H
  C33      1.0000 0.03300  0.42320  0.95300  Biso   1.000  C
  C34      1.0000 0.90930  0.45600  0.00340  Biso   1.000  C
  H20      1.0000 0.84670  0.42680  0.00630  Biso   1.000  H
  C35      1.0000 0.12350  0.46740  0.94990  Biso   1.000  C
  H21      1.0000 0.20780  0.44600  0.91600  Biso   1.000  H
  C36      1.0000 0.92770  0.13240  0.90780  Biso   1.000  C
  C37      1.0000 0.33170  0.12810  0.02890  Biso   1.000  C
  H22      1.0000 0.40580  0.12440  0.97610  Biso   1.000  H
  Co1      1.0000 0.38401  0.43284  0.45397  Biso   1.000  Co
  Co2      1.0000 0.72718  0.05665  0.98441  Biso   1.000  Co
  N1       1.0000 0.55630  0.34720  0.41030  Biso   1.000  N
  N2       1.0000 0.76000  0.29640  0.35230  Biso   1.000  N
  N3       1.0000 0.17560  0.17940  0.14650  Biso   1.000  N
  N4       1.0000 0.12370  0.40640  0.33510  Biso   1.000  N
  O1       1.0000 0.52560  0.09870  0.20750  Biso   1.000  O
  O2       1.0000 0.62280  0.98580  0.12190  Biso   1.000  O
  O3       1.0000 0.47650  0.63410  0.24740  Biso   1.000  O
  O4       1.0000 0.37590  0.58800  0.41530  Biso   1.000  O
  O5       1.0000 0.30630  0.40360  0.60450  Biso   1.000  O
  O6       1.0000 0.30760  0.24850  0.59900  Biso   1.000  O
  O7       1.0000 0.92230  0.10270  0.84250  Biso   1.000  O
  N5       1.0000 0.25220  0.44150  0.38800  Biso   1.000  N
  O8       1.0000 0.85440  0.10840  0.99740  Biso   1.000  O
  N6       1.0000 0.24970  0.05910  0.07000  Biso   1.000  N
  C38      1.0000 0.05800  0.64810  0.65600  Biso   1.000  C
  H23      1.0000 0.11020  0.61000  0.61190  Biso   1.000  H
  C39      1.0000 0.10720  0.70290  0.68640  Biso   1.000  C
  C40      1.0000 0.03100  0.76030  0.75160  Biso   1.000  C
  H24      1.0000 0.06570  0.79570  0.77240  Biso   1.000  H
  C41      1.0000 0.90340  0.76380  0.78480  Biso   1.000  C
  C42      1.0000 0.84980  0.71010  0.75640  Biso   1.000  C
  H25      1.0000 0.76290  0.71340  0.77940  Biso   1.000  H
  C43      1.0000 0.92920  0.65140  0.69260  Biso   1.000  C
  C44      1.0000 0.91380  0.48560  0.67880  Biso   1.000  C
  H26      1.0000 0.98300  0.43420  0.70620  Biso   1.000  H
  C45      1.0000 0.71110  0.79940  0.92410  Biso   1.000  C
  H27      1.0000 0.67240  0.74500  0.93640  Biso   1.000  H
  C46      1.0000 0.84450  0.90740  0.85950  Biso   1.000  C
  H28      1.0000 0.91420  0.93870  0.81970  Biso   1.000  H
  C47      1.0000 0.33630  0.62340  0.62260  Biso   1.000  C
  H29      1.0000 0.32770  0.55700  0.62790  Biso   1.000  H
  C48      1.0000 0.28970  0.78690  0.62990  Biso   1.000  C
  H30      1.0000 0.24550  0.85300  0.64070  Biso   1.000  H
  C49      1.0000 0.41600  0.75460  0.59350  Biso   1.000  C
  H31      1.0000 0.47500  0.79570  0.57400  Biso   1.000  H
  C50      1.0000 0.77440  0.63360  0.62360  Biso   1.000  C
  H32      1.0000 0.72810  0.70750  0.60540  Biso   1.000  H
  C51      1.0000 0.83490  0.46470  0.64660  Biso   1.000  C
  H33      1.0000 0.83960  0.39580  0.64800  Biso   1.000  H
  C52      1.0000 0.46070  0.98350  0.80850  Biso   1.000  C
  C53      1.0000 0.55400  0.05680  0.74090  Biso   1.000  C
  C54      1.0000 0.52760  0.16120  0.74260  Biso   1.000  C
  H34      1.0000 0.45280  0.18660  0.78570  Biso   1.000  H
  C55      1.0000 0.61300  0.22750  0.68010  Biso   1.000  C
  C56      1.0000 0.72750  0.18620  0.62080  Biso   1.000  C
  H35      1.0000 0.78540  0.23080  0.57900  Biso   1.000  H
  C57      1.0000 0.75630  0.08080  0.62280  Biso   1.000  C
  C58      1.0000 0.66800  0.01700  0.68110  Biso   1.000  C
  H36      1.0000 0.68530  0.94650  0.68020  Biso   1.000  H
  C59      1.0000 0.88260  0.03790  0.56000  Biso   1.000  C
  C60      1.0000 0.99030  0.06740  0.54850  Biso   1.000  C
  H37      1.0000 0.98430  0.11260  0.58190  Biso   1.000  H
  C61      1.0000 0.89350  0.96870  0.51130  Biso   1.000  C
  H38      1.0000 0.82250  0.94670  0.51900  Biso   1.000  H
  C62      1.0000 0.58290  0.34440  0.67390  Biso   1.000  C
  C63      1.0000 0.72640  0.68860  0.35400  Biso   1.000  C
  C64      1.0000 0.81570  0.71140  0.24860  Biso   1.000  C
  C65      1.0000 0.88970  0.78570  0.21330  Biso   1.000  C
  H39      1.0000 0.87560  0.82840  0.25160  Biso   1.000  H
  C66      1.0000 0.98500  0.79750  0.12130  Biso   1.000  C
  C67      1.0000 0.00620  0.73220  0.06540  Biso   1.000  C
  H40      1.0000 0.07070  0.73920  0.00410  Biso   1.000  H
  C68      1.0000 0.93310  0.65700  0.09950  Biso   1.000  C
  C69      1.0000 0.83770  0.64810  0.19100  Biso   1.000  C
  H41      1.0000 0.78720  0.59850  0.21440  Biso   1.000  H
  C70      1.0000 0.96700  0.57680  0.04700  Biso   1.000  C
  C71      1.0000 0.09070  0.54400  0.99660  Biso   1.000  C
  H42      1.0000 0.15330  0.57320  0.99370  Biso   1.000  H
  C72      1.0000 0.87650  0.53260  0.05010  Biso   1.000  C
  H43      1.0000 0.79220  0.55400  0.08400  Biso   1.000  H
  C73      1.0000 0.07230  0.86760  0.09220  Biso   1.000  C
  C74      1.0000 0.66830  0.87190  0.97110  Biso   1.000  C
  H44      1.0000 0.59420  0.87560  0.02390  Biso   1.000  H
  Co3      1.0000 0.61599  0.56716  0.54603  Biso   1.000  Co
  Co4      1.0000 0.27282  0.94335  0.01559  Biso   1.000  Co
  N7       1.0000 0.44370  0.65280  0.58970  Biso   1.000  N
  N8       1.0000 0.24000  0.70360  0.64770  Biso   1.000  N
  N9       1.0000 0.82440  0.82060  0.85350  Biso   1.000  N
  N10      1.0000 0.87630  0.59360  0.66490  Biso   1.000  N
  O9       1.0000 0.47440  0.90130  0.79250  Biso   1.000  O
  O10      1.0000 0.37720  0.01420  0.87810  Biso   1.000  O
  O11      1.0000 0.52350  0.36590  0.75260  Biso   1.000  O
  O12      1.0000 0.62410  0.41200  0.58470  Biso   1.000  O
  O13      1.0000 0.69370  0.59640  0.39550  Biso   1.000  O
  O14      1.0000 0.69240  0.75150  0.40100  Biso   1.000  O
  O15      1.0000 0.07770  0.89730  0.15750  Biso   1.000  O
  N11      1.0000 0.74780  0.55850  0.61200  Biso   1.000  N
  O16      1.0000 0.14560  0.89160  0.00260  Biso   1.000  O
  N12      1.0000 0.75030  0.94090  0.93000  Biso   1.000  N
