data_image0
_cell_length_a       15.8574
_cell_length_b       19.3325
_cell_length_c       25.2962
_cell_angle_alpha    90
_cell_angle_beta     102.694
_cell_angle_gamma    90

_symmetry_space_group_name_H-M    "P 1"
_symmetry_int_tables_number       1

loop_
  _symmetry_equiv_pos_as_xyz
  'x, y, z'

loop_
  _atom_site_label
  _atom_site_occupancy
  _atom_site_fract_x
  _atom_site_fract_y
  _atom_site_fract_z
  _atom_site_thermal_displace_type
  _atom_site_B_iso_or_equiv
  _atom_site_type_symbol
  C1       1.0000 0.42200  0.11720  0.07453  Biso   1.000  C
  H1       1.0000 0.47870  0.12230  0.07090  Biso   1.000  H
  C2       1.0000 0.36140  0.16620  0.05040  Biso   1.000  C
  H2       1.0000 0.37680  0.20190  0.02980  Biso   1.000  H
  C3       1.0000 0.27700  0.16080  0.05781  Biso   1.000  C
  C4       1.0000 0.25820  0.10600  0.08910  Biso   1.000  C
  H3       1.0000 0.20310  0.10170  0.09590  Biso   1.000  H
  C5       1.0000 0.32140  0.05790  0.11020  Biso   1.000  C
  H4       1.0000 0.30710  0.02090  0.13010  Biso   1.000  H
  C6       1.0000 0.21600  0.27800  0.02550  Biso   1.000  C
  C7       1.0000 0.29100  0.32180  0.05010  Biso   1.000  C
  C8       1.0000 0.31980  0.37300  0.01970  Biso   1.000  C
  H5       1.0000 0.29330  0.37930  0.98340  Biso   1.000  H
  C9       1.0000 0.38780  0.41390  0.04400  Biso   1.000  C
  H6       1.0000 0.40710  0.44710  0.02280  Biso   1.000  H
  C10      1.0000 0.40250  0.35930  0.12520  Biso   1.000  C
  H7       1.0000 0.43110  0.35390  0.16120  Biso   1.000  H
  C11      1.0000 0.33440  0.31440  0.10440  Biso   1.000  C
  H8       1.0000 0.31830  0.28020  0.12610  Biso   1.000  H
  C12      1.0000 0.05870  0.24910  0.97650  Biso   1.000  C
  C13      1.0000 0.97370  0.25310  0.95430  Biso   1.000  C
  C14      1.0000 0.81550  0.29540  0.92410  Biso   1.000  C
  C15      1.0000 0.74290  0.34410  0.91330  Biso   1.000  C
  C16      1.0000 0.74690  0.40550  0.88630  Biso   1.000  C
  H9       1.0000 0.79640  0.41720  0.87430  Biso   1.000  H
  C17      1.0000 0.67740  0.44900  0.87750  Biso   1.000  C
  H10      1.0000 0.68160  0.49000  0.85900  Biso   1.000  H
  C18      1.0000 0.59970  0.37810  0.92070  Biso   1.000  C
  H11      1.0000 0.54940  0.36780  0.93240  Biso   1.000  H
  C19      1.0000 0.66790  0.33130  0.93250  Biso   1.000  C
  H12      1.0000 0.66370  0.29190  0.95300  Biso   1.000  H
  C20      1.0000 0.81070  0.22610  0.92800  Biso   1.000  C
  C21      1.0000 0.73040  0.18340  0.91700  Biso   1.000  C
  C22      1.0000 0.67510  0.18420  0.86570  Biso   1.000  C
  H13      1.0000 0.68620  0.21330  0.83880  Biso   1.000  H
  C23      1.0000 0.60400  0.14140  0.85560  Biso   1.000  C
  H14      1.0000 0.56780  0.14220  0.82120  Biso   1.000  H
  C24      1.0000 0.63550  0.10030  0.94310  Biso   1.000  C
  H15      1.0000 0.62070  0.07330  0.97010  Biso   1.000  H
  C25      1.0000 0.70940  0.14120  0.95620  Biso   1.000  C
  H16      1.0000 0.74430  0.14000  0.99090  Biso   1.000  H
  C26      1.0000 0.47270  0.03190  0.23990  Biso   1.000  C
  H17      1.0000 0.43000  0.06000  0.21960  Biso   1.000  H
  C27      1.0000 0.48450  0.03290  0.29490  Biso   1.000  C
  H18      1.0000 0.44880  0.06000  0.31110  Biso   1.000  H
  C28      1.0000 0.54930  0.99360  0.32688  Biso   1.000  C
  C29      1.0000 0.59960  0.95240  0.30003  Biso   1.000  C
  H19      1.0000 0.64350  0.92450  0.31950  Biso   1.000  H
  C30      1.0000 0.58260  0.95430  0.24438  Biso   1.000  C
  H20      1.0000 0.61710  0.92730  0.22710  Biso   1.000  H
  C31      1.0000 0.56230  0.99270  0.38630  Biso   1.000  C
  C32      1.0000 0.52110  0.99530  0.47994  Biso   1.000  C
  C33      1.0000 0.63760  0.99340  0.42318  Biso   1.000  C
  C34      1.0000 0.72510  0.99620  0.41175  Biso   1.000  C
  C35      1.0000 0.74840  0.04780  0.37940  Biso   1.000  C
  H21      1.0000 0.70900  0.08180  0.36440  Biso   1.000  H
  C36      1.0000 0.83000  0.04780  0.36980  Biso   1.000  C
  H22      1.0000 0.84430  0.08220  0.34750  Biso   1.000  H
  C37      1.0000 0.86820  0.95110  0.42227  Biso   1.000  C
  H23      1.0000 0.90890  0.91750  0.43650  Biso   1.000  H
  C38      1.0000 0.78830  0.94730  0.43443  Biso   1.000  C
  H24      1.0000 0.77610  0.91290  0.45730  Biso   1.000  H
  C39      1.0000 0.92570  0.95350  0.25530  Biso   1.000  C
  H25      1.0000 0.89630  0.92200  0.27240  Biso   1.000  H
  C40      1.0000 0.90760  0.95380  0.19960  Biso   1.000  C
  H26      1.0000 0.86690  0.92350  0.18010  Biso   1.000  H
  C41      1.0000 0.95110  0.00060  0.17280  Biso   1.000  C
  C42      1.0000 0.01080  0.04370  0.20460  Biso   1.000  C
  H27      1.0000 0.04200  0.07490  0.18840  Biso   1.000  H
  C43      1.0000 0.02460  0.04040  0.26040  Biso   1.000  C
  H28      1.0000 0.06440  0.07060  0.28090  Biso   1.000  H
  C44      1.0000 0.93600  0.00310  0.11330  Biso   1.000  C
  C45      1.0000 0.86090  0.00240  0.07660  Biso   1.000  C
  C46      1.0000 0.77240  0.00130  0.08710  Biso   1.000  C
  C47      1.0000 0.75010  0.04070  0.12730  Biso   1.000  C
  H29      1.0000 0.79070  0.06970  0.14860  Biso   1.000  H
  C48      1.0000 0.66670  0.03680  0.13590  Biso   1.000  C
  H30      1.0000 0.65270  0.06440  0.16280  Biso   1.000  H
  C49      1.0000 0.62750  0.95790  0.06891  Biso   1.000  C
  H31      1.0000 0.58600  0.92880  0.04870  Biso   1.000  H
  C50      1.0000 0.70820  0.95940  0.05690  Biso   1.000  C
  H32      1.0000 0.71960  0.93250  0.02890  Biso   1.000  H
  C51      1.0000 0.97840  0.00400  0.01990  Biso   1.000  C
  C52      1.0000 0.20920  0.20880  0.03110  Biso   1.000  C
  Cu1      1.0000 0.49222  0.98638  0.13011  Biso   1.000  Cu
  Cu2      1.0000 0.00385  0.99568  0.36878  Biso   1.000  Cu
  N1       1.0000 0.40290  0.06280  0.10285  Biso   1.000  N
  N2       1.0000 0.42890  0.40920  0.09678  Biso   1.000  N
  N3       1.0000 0.60250  0.43660  0.89370  Biso   1.000  N
  N4       1.0000 0.58450  0.09830  0.89313  Biso   1.000  N
  N5       1.0000 0.52010  0.99210  0.21316  Biso   1.000  N
  N6       1.0000 0.89120  0.00060  0.39087  Biso   1.000  N
  N7       1.0000 0.60570  0.99570  0.10763  Biso   1.000  N
  N8       1.0000 0.98290  0.99540  0.28656  Biso   1.000  N
  S1       1.0000 0.12705  0.32220  0.98546  Biso   1.000  S
  S2       1.0000 0.11178  0.17056  0.99659  Biso   1.000  S
  S3       1.0000 0.90775  0.17902  0.94378  Biso   1.000  S
  S4       1.0000 0.92085  0.33063  0.93230  Biso   1.000  S
  S5       1.0000 0.46762  0.98713  0.41170  Biso   1.000  S
  S6       1.0000 0.63429  0.98871  0.49204  Biso   1.000  S
  S7       1.0000 0.86506  0.00771  0.00760  Biso   1.000  S
  S8       1.0000 0.03073  0.01073  0.08830  Biso   1.000  S
  C53      1.0000 0.07800  0.61720  0.42547  Biso   1.000  C
  H33      1.0000 0.02130  0.62230  0.42910  Biso   1.000  H
  C54      1.0000 0.13860  0.66620  0.44960  Biso   1.000  C
  H34      1.0000 0.12320  0.70190  0.47020  Biso   1.000  H
  C55      1.0000 0.22300  0.66080  0.44219  Biso   1.000  C
  C56      1.0000 0.24180  0.60600  0.41090  Biso   1.000  C
  H35      1.0000 0.29690  0.60170  0.40410  Biso   1.000  H
  C57      1.0000 0.17860  0.55790  0.38980  Biso   1.000  C
  H36      1.0000 0.19290  0.52090  0.36990  Biso   1.000  H
  C58      1.0000 0.28400  0.77800  0.47450  Biso   1.000  C
  C59      1.0000 0.20900  0.82180  0.44990  Biso   1.000  C
  C60      1.0000 0.18020  0.87300  0.48030  Biso   1.000  C
  H37      1.0000 0.20670  0.87930  0.51660  Biso   1.000  H
  C61      1.0000 0.11220  0.91390  0.45600  Biso   1.000  C
  H38      1.0000 0.09290  0.94710  0.47720  Biso   1.000  H
  C62      1.0000 0.09750  0.85930  0.37480  Biso   1.000  C
  H39      1.0000 0.06890  0.85390  0.33880  Biso   1.000  H
  C63      1.0000 0.16560  0.81440  0.39560  Biso   1.000  C
  H40      1.0000 0.18170  0.78020  0.37390  Biso   1.000  H
  C64      1.0000 0.44130  0.74910  0.52350  Biso   1.000  C
  C65      1.0000 0.52630  0.75310  0.54570  Biso   1.000  C
  C66      1.0000 0.68450  0.79540  0.57590  Biso   1.000  C
  C67      1.0000 0.75710  0.84410  0.58670  Biso   1.000  C
  C68      1.0000 0.75310  0.90550  0.61370  Biso   1.000  C
  H41      1.0000 0.70360  0.91720  0.62570  Biso   1.000  H
  C69      1.0000 0.82260  0.94900  0.62250  Biso   1.000  C
  H42      1.0000 0.81840  0.99000  0.64100  Biso   1.000  H
  C70      1.0000 0.90030  0.87810  0.57930  Biso   1.000  C
  H43      1.0000 0.95060  0.86780  0.56760  Biso   1.000  H
  C71      1.0000 0.83210  0.83130  0.56750  Biso   1.000  C
  H44      1.0000 0.83630  0.79190  0.54700  Biso   1.000  H
  C72      1.0000 0.68930  0.72610  0.57200  Biso   1.000  C
  C73      1.0000 0.76960  0.68340  0.58300  Biso   1.000  C
  C74      1.0000 0.82490  0.68420  0.63430  Biso   1.000  C
  H45      1.0000 0.81380  0.71330  0.66120  Biso   1.000  H
  C75      1.0000 0.89600  0.64140  0.64440  Biso   1.000  C
  H46      1.0000 0.93220  0.64220  0.67880  Biso   1.000  H
  C76      1.0000 0.86450  0.60030  0.55690  Biso   1.000  C
  H47      1.0000 0.87930  0.57330  0.52990  Biso   1.000  H
  C77      1.0000 0.79060  0.64120  0.54380  Biso   1.000  C
  H48      1.0000 0.75570  0.64000  0.50910  Biso   1.000  H
  C78      1.0000 0.02730  0.53190  0.26010  Biso   1.000  C
  H49      1.0000 0.07000  0.56000  0.28040  Biso   1.000  H
  C79      1.0000 0.01550  0.53290  0.20510  Biso   1.000  C
  H50      1.0000 0.05120  0.56000  0.18890  Biso   1.000  H
  C80      1.0000 0.95070  0.49360  0.17312  Biso   1.000  C
  C81      1.0000 0.90040  0.45240  0.19997  Biso   1.000  C
  H51      1.0000 0.85650  0.42450  0.18050  Biso   1.000  H
  C82      1.0000 0.91740  0.45430  0.25562  Biso   1.000  C
  H52      1.0000 0.88290  0.42730  0.27290  Biso   1.000  H
  C83      1.0000 0.93770  0.49270  0.11370  Biso   1.000  C
  C84      1.0000 0.97890  0.49530  0.02006  Biso   1.000  C
  C85      1.0000 0.86240  0.49340  0.07682  Biso   1.000  C
  C86      1.0000 0.77490  0.49620  0.08825  Biso   1.000  C
  C87      1.0000 0.75160  0.54780  0.12060  Biso   1.000  C
  H53      1.0000 0.79100  0.58180  0.13560  Biso   1.000  H
  C88      1.0000 0.67000  0.54780  0.13020  Biso   1.000  C
  H54      1.0000 0.65570  0.58220  0.15250  Biso   1.000  H
  C89      1.0000 0.63180  0.45110  0.07773  Biso   1.000  C
  H55      1.0000 0.59110  0.41750  0.06350  Biso   1.000  H
  C90      1.0000 0.71170  0.44730  0.06557  Biso   1.000  C
  H56      1.0000 0.72390  0.41290  0.04270  Biso   1.000  H
  C91      1.0000 0.57430  0.45350  0.24470  Biso   1.000  C
  H57      1.0000 0.60370  0.42200  0.22760  Biso   1.000  H
  C92      1.0000 0.59240  0.45380  0.30040  Biso   1.000  C
  H58      1.0000 0.63310  0.42350  0.31990  Biso   1.000  H
  C93      1.0000 0.54890  0.50060  0.32720  Biso   1.000  C
  C94      1.0000 0.48920  0.54370  0.29540  Biso   1.000  C
  H59      1.0000 0.45800  0.57490  0.31160  Biso   1.000  H
  C95      1.0000 0.47540  0.54040  0.23960  Biso   1.000  C
  H60      1.0000 0.43560  0.57060  0.21910  Biso   1.000  H
  C96      1.0000 0.56400  0.50310  0.38670  Biso   1.000  C
  C97      1.0000 0.63910  0.50240  0.42340  Biso   1.000  C
  C98      1.0000 0.72760  0.50130  0.41290  Biso   1.000  C
  C99      1.0000 0.74990  0.54070  0.37270  Biso   1.000  C
  H61      1.0000 0.70930  0.56970  0.35140  Biso   1.000  H
  C100     1.0000 0.83330  0.53680  0.36410  Biso   1.000  C
  H62      1.0000 0.84730  0.56440  0.33720  Biso   1.000  H
  C101     1.0000 0.87250  0.45790  0.43109  Biso   1.000  C
  H63      1.0000 0.91400  0.42880  0.45130  Biso   1.000  H
  C102     1.0000 0.79180  0.45940  0.44310  Biso   1.000  C
  H64      1.0000 0.78040  0.43250  0.47110  Biso   1.000  H
  C103     1.0000 0.52160  0.50400  0.48010  Biso   1.000  C
  C104     1.0000 0.29080  0.70880  0.46890  Biso   1.000  C
  Cu3      1.0000 0.00778  0.48638  0.36989  Biso   1.000  Cu
  Cu4      1.0000 0.49615  0.49568  0.13122  Biso   1.000  Cu
  N9       1.0000 0.09710  0.56280  0.39715  Biso   1.000  N
  N10      1.0000 0.07110  0.90920  0.40322  Biso   1.000  N
  N11      1.0000 0.89750  0.93660  0.60630  Biso   1.000  N
  N12      1.0000 0.91550  0.59830  0.60687  Biso   1.000  N
  N13      1.0000 0.97990  0.49210  0.28684  Biso   1.000  N
  N14      1.0000 0.60880  0.50060  0.10913  Biso   1.000  N
  N15      1.0000 0.89430  0.49570  0.39237  Biso   1.000  N
  N16      1.0000 0.51710  0.49540  0.21344  Biso   1.000  N
  S9       1.0000 0.37295  0.82220  0.51454  Biso   1.000  S
  S10      1.0000 0.38822  0.67056  0.50341  Biso   1.000  S
  S11      1.0000 0.59225  0.67902  0.55622  Biso   1.000  S
  S12      1.0000 0.57915  0.83063  0.56770  Biso   1.000  S
  S13      1.0000 0.03238  0.48713  0.08830  Biso   1.000  S
  S14      1.0000 0.86571  0.48871  0.00796  Biso   1.000  S
  S15      1.0000 0.63494  0.50771  0.49240  Biso   1.000  S
  S16      1.0000 0.46927  0.51073  0.41170  Biso   1.000  S
  C105     1.0000 0.57800  0.88280  0.92547  Biso   1.000  C
  H65      1.0000 0.52130  0.87770  0.92910  Biso   1.000  H
  C106     1.0000 0.63860  0.83380  0.94960  Biso   1.000  C
  H66      1.0000 0.62320  0.79810  0.97020  Biso   1.000  H
  C107     1.0000 0.72300  0.83920  0.94219  Biso   1.000  C
  C108     1.0000 0.74180  0.89400  0.91090  Biso   1.000  C
  H67      1.0000 0.79690  0.89830  0.90410  Biso   1.000  H
  C109     1.0000 0.67860  0.94210  0.88980  Biso   1.000  C
  H68      1.0000 0.69290  0.97910  0.86990  Biso   1.000  H
  C110     1.0000 0.78400  0.72200  0.97450  Biso   1.000  C
  C111     1.0000 0.70900  0.67820  0.94990  Biso   1.000  C
  C112     1.0000 0.68020  0.62700  0.98030  Biso   1.000  C
  H69      1.0000 0.70670  0.62070  0.01660  Biso   1.000  H
  C113     1.0000 0.61220  0.58610  0.95600  Biso   1.000  C
  H70      1.0000 0.59290  0.55290  0.97720  Biso   1.000  H
  C114     1.0000 0.59750  0.64070  0.87480  Biso   1.000  C
  H71      1.0000 0.56890  0.64610  0.83880  Biso   1.000  H
  C115     1.0000 0.66560  0.68560  0.89560  Biso   1.000  C
  H72      1.0000 0.68170  0.71980  0.87390  Biso   1.000  H
  C116     1.0000 0.94130  0.75090  0.02350  Biso   1.000  C
  C117     1.0000 0.02630  0.74690  0.04570  Biso   1.000  C
  C118     1.0000 0.18450  0.70460  0.07590  Biso   1.000  C
  C119     1.0000 0.25710  0.65590  0.08670  Biso   1.000  C
  C120     1.0000 0.25310  0.59450  0.11370  Biso   1.000  C
  H73      1.0000 0.20360  0.58280  0.12570  Biso   1.000  H
  C121     1.0000 0.32260  0.55100  0.12250  Biso   1.000  C
  H74      1.0000 0.31840  0.51000  0.14100  Biso   1.000  H
  C122     1.0000 0.40030  0.62190  0.07930  Biso   1.000  C
  H75      1.0000 0.45060  0.63220  0.06760  Biso   1.000  H
  C123     1.0000 0.33210  0.66870  0.06750  Biso   1.000  C
  H76      1.0000 0.33630  0.70810  0.04700  Biso   1.000  H
  C124     1.0000 0.18930  0.77390  0.07200  Biso   1.000  C
  C125     1.0000 0.26960  0.81660  0.08300  Biso   1.000  C
  C126     1.0000 0.32490  0.81580  0.13430  Biso   1.000  C
  H77      1.0000 0.31380  0.78670  0.16120  Biso   1.000  H
  C127     1.0000 0.39600  0.85860  0.14440  Biso   1.000  C
  H78      1.0000 0.43220  0.85780  0.17880  Biso   1.000  H
  C128     1.0000 0.36450  0.89970  0.05690  Biso   1.000  C
  H79      1.0000 0.37930  0.92670  0.02990  Biso   1.000  H
  C129     1.0000 0.29060  0.85880  0.04380  Biso   1.000  C
  H80      1.0000 0.25570  0.86000  0.00910  Biso   1.000  H
  C130     1.0000 0.52730  0.96810  0.76010  Biso   1.000  C
  H81      1.0000 0.57000  0.94000  0.78040  Biso   1.000  H
  C131     1.0000 0.51550  0.96710  0.70510  Biso   1.000  C
  H82      1.0000 0.55120  0.94000  0.68890  Biso   1.000  H
  C132     1.0000 0.45070  0.00640  0.67312  Biso   1.000  C
  C133     1.0000 0.40040  0.04760  0.69997  Biso   1.000  C
  H83      1.0000 0.35650  0.07550  0.68050  Biso   1.000  H
  C134     1.0000 0.41740  0.04570  0.75562  Biso   1.000  C
  H84      1.0000 0.38290  0.07270  0.77290  Biso   1.000  H
  C135     1.0000 0.43770  0.00730  0.61370  Biso   1.000  C
  C136     1.0000 0.47890  0.00470  0.52006  Biso   1.000  C
  C137     1.0000 0.36240  0.00660  0.57682  Biso   1.000  C
  C138     1.0000 0.27490  0.00380  0.58825  Biso   1.000  C
  C139     1.0000 0.25160  0.95220  0.62060  Biso   1.000  C
  H85      1.0000 0.29100  0.91820  0.63560  Biso   1.000  H
  C140     1.0000 0.17000  0.95220  0.63020  Biso   1.000  C
  H86      1.0000 0.15570  0.91780  0.65250  Biso   1.000  H
  C141     1.0000 0.13180  0.04890  0.57773  Biso   1.000  C
  H87      1.0000 0.09110  0.08250  0.56350  Biso   1.000  H
  C142     1.0000 0.21170  0.05270  0.56557  Biso   1.000  C
  H88      1.0000 0.22390  0.08710  0.54270  Biso   1.000  H
  C143     1.0000 0.07430  0.04650  0.74470  Biso   1.000  C
  H89      1.0000 0.10370  0.07800  0.72760  Biso   1.000  H
  C144     1.0000 0.09240  0.04620  0.80040  Biso   1.000  C
  H90      1.0000 0.13310  0.07650  0.81990  Biso   1.000  H
  C145     1.0000 0.04890  0.99940  0.82720  Biso   1.000  C
  C146     1.0000 0.98920  0.95630  0.79540  Biso   1.000  C
  H91      1.0000 0.95800  0.92510  0.81160  Biso   1.000  H
  C147     1.0000 0.97540  0.95960  0.73960  Biso   1.000  C
  H92      1.0000 0.93560  0.92940  0.71910  Biso   1.000  H
  C148     1.0000 0.06400  0.99690  0.88670  Biso   1.000  C
  C149     1.0000 0.13910  0.99760  0.92340  Biso   1.000  C
  C150     1.0000 0.22760  0.99870  0.91290  Biso   1.000  C
  C151     1.0000 0.24990  0.95930  0.87270  Biso   1.000  C
  H93      1.0000 0.20930  0.93030  0.85140  Biso   1.000  H
  C152     1.0000 0.33330  0.96320  0.86410  Biso   1.000  C
  H94      1.0000 0.34730  0.93560  0.83720  Biso   1.000  H
  C153     1.0000 0.37250  0.04210  0.93109  Biso   1.000  C
  H95      1.0000 0.41400  0.07120  0.95130  Biso   1.000  H
  C154     1.0000 0.29180  0.04060  0.94310  Biso   1.000  C
  H96      1.0000 0.28040  0.06750  0.97110  Biso   1.000  H
  C155     1.0000 0.02160  0.99600  0.98010  Biso   1.000  C
  C156     1.0000 0.79080  0.79120  0.96890  Biso   1.000  C
  Cu5      1.0000 0.50778  0.01362  0.86989  Biso   1.000  Cu
  Cu6      1.0000 0.99615  0.00432  0.63122  Biso   1.000  Cu
  N17      1.0000 0.59710  0.93720  0.89715  Biso   1.000  N
  N18      1.0000 0.57110  0.59080  0.90322  Biso   1.000  N
  N19      1.0000 0.39750  0.56340  0.10630  Biso   1.000  N
  N20      1.0000 0.41550  0.90170  0.10687  Biso   1.000  N
  N21      1.0000 0.47990  0.00790  0.78684  Biso   1.000  N
  N22      1.0000 0.10880  0.99940  0.60913  Biso   1.000  N
  N23      1.0000 0.39430  0.00430  0.89237  Biso   1.000  N
  N24      1.0000 0.01710  0.00460  0.71344  Biso   1.000  N
  S17      1.0000 0.87295  0.67780  0.01454  Biso   1.000  S
  S18      1.0000 0.88822  0.82944  0.00341  Biso   1.000  S
  S19      1.0000 0.09225  0.82098  0.05622  Biso   1.000  S
  S20      1.0000 0.07915  0.66937  0.06770  Biso   1.000  S
  S21      1.0000 0.53238  0.01287  0.58830  Biso   1.000  S
  S22      1.0000 0.36571  0.01129  0.50796  Biso   1.000  S
  S23      1.0000 0.13494  0.99229  0.99240  Biso   1.000  S
  S24      1.0000 0.96927  0.98927  0.91170  Biso   1.000  S
  C157     1.0000 0.92200  0.38280  0.57453  Biso   1.000  C
  H97      1.0000 0.97870  0.37770  0.57090  Biso   1.000  H
  C158     1.0000 0.86140  0.33380  0.55040  Biso   1.000  C
  H98      1.0000 0.87680  0.29810  0.52980  Biso   1.000  H
  C159     1.0000 0.77700  0.33920  0.55781  Biso   1.000  C
  C160     1.0000 0.75820  0.39400  0.58910  Biso   1.000  C
  H99      1.0000 0.70310  0.39830  0.59590  Biso   1.000  H
  C161     1.0000 0.82140  0.44210  0.61020  Biso   1.000  C
  H100     1.0000 0.80710  0.47910  0.63010  Biso   1.000  H
  C162     1.0000 0.71600  0.22200  0.52550  Biso   1.000  C
  C163     1.0000 0.79100  0.17820  0.55010  Biso   1.000  C
  C164     1.0000 0.81980  0.12700  0.51970  Biso   1.000  C
  H101     1.0000 0.79330  0.12070  0.48340  Biso   1.000  H
  C165     1.0000 0.88780  0.08610  0.54400  Biso   1.000  C
  H102     1.0000 0.90710  0.05290  0.52280  Biso   1.000  H
  C166     1.0000 0.90250  0.14070  0.62520  Biso   1.000  C
  H103     1.0000 0.93110  0.14610  0.66120  Biso   1.000  H
  C167     1.0000 0.83440  0.18560  0.60440  Biso   1.000  C
  H104     1.0000 0.81830  0.21980  0.62610  Biso   1.000  H
  C168     1.0000 0.55870  0.25090  0.47650  Biso   1.000  C
  C169     1.0000 0.47370  0.24690  0.45430  Biso   1.000  C
  C170     1.0000 0.31550  0.20460  0.42410  Biso   1.000  C
  C171     1.0000 0.24290  0.15590  0.41330  Biso   1.000  C
  C172     1.0000 0.24690  0.09450  0.38630  Biso   1.000  C
  H105     1.0000 0.29640  0.08280  0.37430  Biso   1.000  H
  C173     1.0000 0.17740  0.05100  0.37750  Biso   1.000  C
  H106     1.0000 0.18160  0.01000  0.35900  Biso   1.000  H
  C174     1.0000 0.09970  0.12190  0.42070  Biso   1.000  C
  H107     1.0000 0.04940  0.13220  0.43240  Biso   1.000  H
  C175     1.0000 0.16790  0.16870  0.43250  Biso   1.000  C
  H108     1.0000 0.16370  0.20810  0.45300  Biso   1.000  H
  C176     1.0000 0.31070  0.27390  0.42800  Biso   1.000  C
  C177     1.0000 0.23040  0.31660  0.41700  Biso   1.000  C
  C178     1.0000 0.17510  0.31580  0.36570  Biso   1.000  C
  H109     1.0000 0.18620  0.28670  0.33880  Biso   1.000  H
  C179     1.0000 0.10400  0.35860  0.35560  Biso   1.000  C
  H110     1.0000 0.06780  0.35780  0.32120  Biso   1.000  H
  C180     1.0000 0.13550  0.39970  0.44310  Biso   1.000  C
  H111     1.0000 0.12070  0.42670  0.47010  Biso   1.000  H
  C181     1.0000 0.20940  0.35880  0.45620  Biso   1.000  C
  H112     1.0000 0.24430  0.36000  0.49090  Biso   1.000  H
  C182     1.0000 0.97270  0.46810  0.73990  Biso   1.000  C
  H113     1.0000 0.93000  0.44000  0.71960  Biso   1.000  H
  C183     1.0000 0.98450  0.46710  0.79490  Biso   1.000  C
  H114     1.0000 0.94880  0.44000  0.81110  Biso   1.000  H
  C184     1.0000 0.04930  0.50640  0.82688  Biso   1.000  C
  C185     1.0000 0.09960  0.54760  0.80003  Biso   1.000  C
  H115     1.0000 0.14350  0.57550  0.81950  Biso   1.000  H
  C186     1.0000 0.08260  0.54570  0.74438  Biso   1.000  C
  H116     1.0000 0.11710  0.57270  0.72710  Biso   1.000  H
  C187     1.0000 0.06230  0.50730  0.88630  Biso   1.000  C
  C188     1.0000 0.02110  0.50470  0.97994  Biso   1.000  C
  C189     1.0000 0.13760  0.50660  0.92318  Biso   1.000  C
  C190     1.0000 0.22510  0.50380  0.91175  Biso   1.000  C
  C191     1.0000 0.24840  0.45220  0.87940  Biso   1.000  C
  H117     1.0000 0.20900  0.41820  0.86440  Biso   1.000  H
  C192     1.0000 0.33000  0.45220  0.86980  Biso   1.000  C
  H118     1.0000 0.34430  0.41780  0.84750  Biso   1.000  H
  C193     1.0000 0.36820  0.54890  0.92227  Biso   1.000  C
  H119     1.0000 0.40890  0.58250  0.93650  Biso   1.000  H
  C194     1.0000 0.28830  0.55270  0.93443  Biso   1.000  C
  H120     1.0000 0.27610  0.58710  0.95730  Biso   1.000  H
  C195     1.0000 0.42570  0.54650  0.75530  Biso   1.000  C
  H121     1.0000 0.39630  0.57800  0.77240  Biso   1.000  H
  C196     1.0000 0.40760  0.54620  0.69960  Biso   1.000  C
  H122     1.0000 0.36690  0.57650  0.68010  Biso   1.000  H
  C197     1.0000 0.45110  0.49940  0.67280  Biso   1.000  C
  C198     1.0000 0.51080  0.45630  0.70460  Biso   1.000  C
  H123     1.0000 0.54200  0.42510  0.68840  Biso   1.000  H
  C199     1.0000 0.52460  0.45960  0.76040  Biso   1.000  C
  H124     1.0000 0.56440  0.42940  0.78090  Biso   1.000  H
  C200     1.0000 0.43600  0.49690  0.61330  Biso   1.000  C
  C201     1.0000 0.36090  0.49760  0.57660  Biso   1.000  C
  C202     1.0000 0.27240  0.49870  0.58710  Biso   1.000  C
  C203     1.0000 0.25010  0.45930  0.62730  Biso   1.000  C
  H125     1.0000 0.29070  0.43030  0.64860  Biso   1.000  H
  C204     1.0000 0.16670  0.46320  0.63590  Biso   1.000  C
  H126     1.0000 0.15270  0.43560  0.66280  Biso   1.000  H
  C205     1.0000 0.12750  0.54210  0.56891  Biso   1.000  C
  H127     1.0000 0.08600  0.57120  0.54870  Biso   1.000  H
  C206     1.0000 0.20820  0.54060  0.55690  Biso   1.000  C
  H128     1.0000 0.21960  0.56750  0.52890  Biso   1.000  H
  C207     1.0000 0.47840  0.49600  0.51990  Biso   1.000  C
  C208     1.0000 0.70920  0.29120  0.53110  Biso   1.000  C
  Cu7      1.0000 0.99222  0.51362  0.63011  Biso   1.000  Cu
  Cu8      1.0000 0.50385  0.50432  0.86878  Biso   1.000  Cu
  N25      1.0000 0.90290  0.43720  0.60285  Biso   1.000  N
  N26      1.0000 0.92890  0.09080  0.59678  Biso   1.000  N
  N27      1.0000 0.10250  0.06340  0.39370  Biso   1.000  N
  N28      1.0000 0.08450  0.40170  0.39313  Biso   1.000  N
  N29      1.0000 0.02010  0.50790  0.71316  Biso   1.000  N
  N30      1.0000 0.39120  0.49940  0.89087  Biso   1.000  N
  N31      1.0000 0.10570  0.50430  0.60763  Biso   1.000  N
  N32      1.0000 0.48290  0.50460  0.78656  Biso   1.000  N
  S25      1.0000 0.62705  0.17780  0.48546  Biso   1.000  S
  S26      1.0000 0.61178  0.32944  0.49659  Biso   1.000  S
  S27      1.0000 0.40775  0.32098  0.44378  Biso   1.000  S
  S28      1.0000 0.42085  0.16937  0.43230  Biso   1.000  S
  S29      1.0000 0.96762  0.51287  0.91170  Biso   1.000  S
  S30      1.0000 0.13429  0.51129  0.99204  Biso   1.000  S
  S31      1.0000 0.36506  0.49229  0.50760  Biso   1.000  S
  S32      1.0000 0.53073  0.48927  0.58830  Biso   1.000  S
