data_image0
_cell_length_a       7.087
_cell_length_b       17.669
_cell_length_c       17.793
_cell_angle_alpha    90
_cell_angle_beta     90
_cell_angle_gamma    90

_symmetry_space_group_name_H-M    "P 1"
_symmetry_int_tables_number       1

loop_
  _symmetry_equiv_pos_as_xyz
  'x, y, z'

loop_
  _atom_site_label
  _atom_site_occupancy
  _atom_site_fract_x
  _atom_site_fract_y
  _atom_site_fract_z
  _atom_site_thermal_displace_type
  _atom_site_B_iso_or_equiv
  _atom_site_type_symbol
  Cd1      1.0000 0.72246  0.98694  0.52677  Biso   1.000  Cd
  C1       1.0000 0.79300  0.81460  0.57851  Biso   1.000  C
  H1       1.0000 0.80810  0.83910  0.62440  Biso   1.000  H
  C2       1.0000 0.76160  0.74248  0.44375  Biso   1.000  C
  N1       1.0000 0.76260  0.85627  0.51800  Biso   1.000  N
  N2       1.0000 0.79420  0.71711  0.24264  Biso   1.000  N
  N3       1.0000 0.80010  0.75143  0.31465  Biso   1.000  N
  C3       1.0000 0.75310  0.70789  0.36825  Biso   1.000  C
  C4       1.0000 0.78720  0.70046  0.50906  Biso   1.000  C
  H2       1.0000 0.79310  0.64790  0.50670  Biso   1.000  H
  C5       1.0000 0.79430  0.76427  0.18847  Biso   1.000  C
  C6       1.0000 0.80370  0.73680  0.57713  Biso   1.000  C
  H3       1.0000 0.82170  0.70940  0.62120  Biso   1.000  H
  C7       1.0000 0.69060  0.62766  0.36155  Biso   1.000  C
  H4       1.0000 0.69220  0.61280  0.30960  Biso   1.000  H
  H5       1.0000 0.56490  0.62270  0.38100  Biso   1.000  H
  H6       1.0000 0.77450  0.59570  0.38970  Biso   1.000  H
  C8       1.0000 0.74870  0.82083  0.45235  Biso   1.000  C
  H7       1.0000 0.72930  0.85000  0.40950  Biso   1.000  H
  C9       1.0000 0.79100  0.65380  0.10251  Biso   1.000  C
  H8       1.0000 0.79260  0.62350  0.14520  Biso   1.000  H
  C10      1.0000 0.79240  0.73181  0.11148  Biso   1.000  C
  C11      1.0000 0.79470  0.84860  0.19682  Biso   1.000  C
  H9       1.0000 0.68280  0.86910  0.17430  Biso   1.000  H
  H10      1.0000 0.90390  0.86920  0.17230  Biso   1.000  H
  H11      1.0000 0.79780  0.86150  0.24920  Biso   1.000  H
  N4       1.0000 0.78730  0.62009  0.03480  Biso   1.000  N
  O1       1.0000 0.66180  0.97623  0.65546  Biso   1.000  O
  O2       1.0000 0.40680  0.96668  0.58708  Biso   1.000  O
  C12      1.0000 0.79150  0.77571  0.04731  Biso   1.000  C
  H12      1.0000 0.79410  0.82820  0.05090  Biso   1.000  H
  C13      1.0000 0.48520  0.96810  0.64919  Biso   1.000  C
  C14      1.0000 0.78430  0.66220  0.97380  Biso   1.000  C
  H13      1.0000 0.78060  0.63910  0.92690  Biso   1.000  H
  C15      1.0000 0.78670  0.74150  0.97880  Biso   1.000  C
  H14      1.0000 0.78490  0.77070  0.93520  Biso   1.000  H
  C16      1.0000 0.36400  0.96112  0.71944  Biso   1.000  C
  H15      1.0000 0.24600  0.98770  0.71130  Biso   1.000  H
  H16      1.0000 0.33470  0.90810  0.72780  Biso   1.000  H
  C17      1.0000 0.45630  0.99210  0.78771  Biso   1.000  C
  H17      1.0000 0.50000  0.04280  0.77620  Biso   1.000  H
  H18      1.0000 0.56700  0.96150  0.79820  Biso   1.000  H
  O3       1.0000 0.16690  0.99249  0.85780  Biso   1.000  O
  C18      1.0000 0.33840  0.99601  0.85926  Biso   1.000  C
  O4       1.0000 0.43440  0.00613  0.91874  Biso   1.000  O
  Cd2      1.0000 0.27754  0.01306  0.02677  Biso   1.000  Cd
  C19      1.0000 0.20700  0.18540  0.07851  Biso   1.000  C
  H19      1.0000 0.19190  0.16090  0.12440  Biso   1.000  H
  C20      1.0000 0.23840  0.25752  0.94375  Biso   1.000  C
  N5       1.0000 0.23740  0.14373  0.01800  Biso   1.000  N
  N6       1.0000 0.20580  0.28289  0.74264  Biso   1.000  N
  N7       1.0000 0.19990  0.24857  0.81465  Biso   1.000  N
  C21      1.0000 0.24690  0.29211  0.86825  Biso   1.000  C
  C22      1.0000 0.21280  0.29954  0.00906  Biso   1.000  C
  H20      1.0000 0.20690  0.35210  0.00670  Biso   1.000  H
  C23      1.0000 0.20570  0.23573  0.68847  Biso   1.000  C
  C24      1.0000 0.19630  0.26320  0.07713  Biso   1.000  C
  H21      1.0000 0.17830  0.29060  0.12120  Biso   1.000  H
  C25      1.0000 0.30940  0.37234  0.86155  Biso   1.000  C
  H22      1.0000 0.30780  0.38720  0.80960  Biso   1.000  H
  H23      1.0000 0.43510  0.37730  0.88100  Biso   1.000  H
  H24      1.0000 0.22550  0.40430  0.88970  Biso   1.000  H
  C26      1.0000 0.25130  0.17917  0.95235  Biso   1.000  C
  H25      1.0000 0.27070  0.15000  0.90950  Biso   1.000  H
  C27      1.0000 0.20900  0.34620  0.60251  Biso   1.000  C
  H26      1.0000 0.20740  0.37650  0.64520  Biso   1.000  H
  C28      1.0000 0.20760  0.26819  0.61148  Biso   1.000  C
  C29      1.0000 0.20530  0.15140  0.69682  Biso   1.000  C
  H27      1.0000 0.31720  0.13090  0.67430  Biso   1.000  H
  H28      1.0000 0.09610  0.13080  0.67230  Biso   1.000  H
  H29      1.0000 0.20220  0.13850  0.74920  Biso   1.000  H
  N8       1.0000 0.21270  0.37991  0.53480  Biso   1.000  N
  O5       1.0000 0.33820  0.02377  0.15546  Biso   1.000  O
  O6       1.0000 0.59320  0.03332  0.08708  Biso   1.000  O
  C30      1.0000 0.20850  0.22429  0.54731  Biso   1.000  C
  H30      1.0000 0.20590  0.17180  0.55090  Biso   1.000  H
  C31      1.0000 0.51480  0.03190  0.14919  Biso   1.000  C
  C32      1.0000 0.21570  0.33780  0.47380  Biso   1.000  C
  H31      1.0000 0.21940  0.36090  0.42690  Biso   1.000  H
  C33      1.0000 0.21330  0.25850  0.47880  Biso   1.000  C
  H32      1.0000 0.21510  0.22930  0.43520  Biso   1.000  H
  C34      1.0000 0.63600  0.03888  0.21944  Biso   1.000  C
  H33      1.0000 0.75400  0.01230  0.21130  Biso   1.000  H
  H34      1.0000 0.66530  0.09190  0.22780  Biso   1.000  H
  C35      1.0000 0.54370  0.00790  0.28771  Biso   1.000  C
  H35      1.0000 0.50000  0.95720  0.27620  Biso   1.000  H
  H36      1.0000 0.43300  0.03850  0.29820  Biso   1.000  H
  O7       1.0000 0.83310  0.00751  0.35780  Biso   1.000  O
  C36      1.0000 0.66160  0.00399  0.35926  Biso   1.000  C
  O8       1.0000 0.56560  0.99387  0.41874  Biso   1.000  O
  Cd3      1.0000 0.22246  0.51306  0.52677  Biso   1.000  Cd
  C37      1.0000 0.29300  0.68540  0.57851  Biso   1.000  C
  H37      1.0000 0.30810  0.66090  0.62440  Biso   1.000  H
  C38      1.0000 0.26160  0.75752  0.44375  Biso   1.000  C
  N9       1.0000 0.26260  0.64373  0.51800  Biso   1.000  N
  N10      1.0000 0.29420  0.78289  0.24264  Biso   1.000  N
  N11      1.0000 0.30010  0.74857  0.31465  Biso   1.000  N
  C39      1.0000 0.25310  0.79211  0.36825  Biso   1.000  C
  C40      1.0000 0.28720  0.79954  0.50906  Biso   1.000  C
  H38      1.0000 0.29310  0.85210  0.50670  Biso   1.000  H
  C41      1.0000 0.29430  0.73573  0.18847  Biso   1.000  C
  C42      1.0000 0.30370  0.76320  0.57713  Biso   1.000  C
  H39      1.0000 0.32170  0.79060  0.62120  Biso   1.000  H
  C43      1.0000 0.19060  0.87234  0.36155  Biso   1.000  C
  H40      1.0000 0.19220  0.88720  0.30960  Biso   1.000  H
  H41      1.0000 0.06490  0.87730  0.38100  Biso   1.000  H
  H42      1.0000 0.27450  0.90430  0.38970  Biso   1.000  H
  C44      1.0000 0.24870  0.67917  0.45235  Biso   1.000  C
  H43      1.0000 0.22930  0.65000  0.40950  Biso   1.000  H
  C45      1.0000 0.29100  0.84620  0.10251  Biso   1.000  C
  H44      1.0000 0.29260  0.87650  0.14520  Biso   1.000  H
  C46      1.0000 0.29240  0.76819  0.11148  Biso   1.000  C
  C47      1.0000 0.29470  0.65140  0.19682  Biso   1.000  C
  H45      1.0000 0.18280  0.63090  0.17430  Biso   1.000  H
  H46      1.0000 0.40390  0.63080  0.17230  Biso   1.000  H
  H47      1.0000 0.29780  0.63850  0.24920  Biso   1.000  H
  N12      1.0000 0.28730  0.87991  0.03480  Biso   1.000  N
  O9       1.0000 0.16180  0.52377  0.65546  Biso   1.000  O
  O10      1.0000 0.90680  0.53332  0.58708  Biso   1.000  O
  C48      1.0000 0.29150  0.72429  0.04731  Biso   1.000  C
  H48      1.0000 0.29410  0.67180  0.05090  Biso   1.000  H
  C49      1.0000 0.98520  0.53190  0.64919  Biso   1.000  C
  C50      1.0000 0.28430  0.83780  0.97380  Biso   1.000  C
  H49      1.0000 0.28060  0.86090  0.92690  Biso   1.000  H
  C51      1.0000 0.28670  0.75850  0.97880  Biso   1.000  C
  H50      1.0000 0.28490  0.72930  0.93520  Biso   1.000  H
  C52      1.0000 0.86400  0.53888  0.71944  Biso   1.000  C
  H51      1.0000 0.74600  0.51230  0.71130  Biso   1.000  H
  H52      1.0000 0.83470  0.59190  0.72780  Biso   1.000  H
  C53      1.0000 0.95630  0.50790  0.78771  Biso   1.000  C
  H53      1.0000 0.00000  0.45720  0.77620  Biso   1.000  H
  H54      1.0000 0.06700  0.53850  0.79820  Biso   1.000  H
  O11      1.0000 0.66690  0.50751  0.85780  Biso   1.000  O
  C54      1.0000 0.83840  0.50399  0.85926  Biso   1.000  C
  O12      1.0000 0.93440  0.49387  0.91874  Biso   1.000  O
  Cd4      1.0000 0.77754  0.48694  0.02677  Biso   1.000  Cd
  C55      1.0000 0.70700  0.31460  0.07851  Biso   1.000  C
  H55      1.0000 0.69190  0.33910  0.12440  Biso   1.000  H
  C56      1.0000 0.73840  0.24248  0.94375  Biso   1.000  C
  N13      1.0000 0.73740  0.35627  0.01800  Biso   1.000  N
  N14      1.0000 0.70580  0.21711  0.74264  Biso   1.000  N
  N15      1.0000 0.69990  0.25143  0.81465  Biso   1.000  N
  C57      1.0000 0.74690  0.20789  0.86825  Biso   1.000  C
  C58      1.0000 0.71280  0.20046  0.00906  Biso   1.000  C
  H56      1.0000 0.70690  0.14790  0.00670  Biso   1.000  H
  C59      1.0000 0.70570  0.26427  0.68847  Biso   1.000  C
  C60      1.0000 0.69630  0.23680  0.07713  Biso   1.000  C
  H57      1.0000 0.67830  0.20940  0.12120  Biso   1.000  H
  C61      1.0000 0.80940  0.12766  0.86155  Biso   1.000  C
  H58      1.0000 0.80780  0.11280  0.80960  Biso   1.000  H
  H59      1.0000 0.93510  0.12270  0.88100  Biso   1.000  H
  H60      1.0000 0.72550  0.09570  0.88970  Biso   1.000  H
  C62      1.0000 0.75130  0.32083  0.95235  Biso   1.000  C
  H61      1.0000 0.77070  0.35000  0.90950  Biso   1.000  H
  C63      1.0000 0.70900  0.15380  0.60251  Biso   1.000  C
  H62      1.0000 0.70740  0.12350  0.64520  Biso   1.000  H
  C64      1.0000 0.70760  0.23181  0.61148  Biso   1.000  C
  C65      1.0000 0.70530  0.34860  0.69682  Biso   1.000  C
  H63      1.0000 0.81720  0.36910  0.67430  Biso   1.000  H
  H64      1.0000 0.59610  0.36920  0.67230  Biso   1.000  H
  H65      1.0000 0.70220  0.36150  0.74920  Biso   1.000  H
  N16      1.0000 0.71270  0.12009  0.53480  Biso   1.000  N
  O13      1.0000 0.83820  0.47623  0.15546  Biso   1.000  O
  O14      1.0000 0.09320  0.46668  0.08708  Biso   1.000  O
  C66      1.0000 0.70850  0.27571  0.54731  Biso   1.000  C
  H66      1.0000 0.70590  0.32820  0.55090  Biso   1.000  H
  C67      1.0000 0.01480  0.46810  0.14919  Biso   1.000  C
  C68      1.0000 0.71570  0.16220  0.47380  Biso   1.000  C
  H67      1.0000 0.71940  0.13910  0.42690  Biso   1.000  H
  C69      1.0000 0.71330  0.24150  0.47880  Biso   1.000  C
  H68      1.0000 0.71510  0.27070  0.43520  Biso   1.000  H
  C70      1.0000 0.13600  0.46112  0.21944  Biso   1.000  C
  H69      1.0000 0.25400  0.48770  0.21130  Biso   1.000  H
  H70      1.0000 0.16530  0.40810  0.22780  Biso   1.000  H
  C71      1.0000 0.04370  0.49210  0.28771  Biso   1.000  C
  H71      1.0000 0.00000  0.54280  0.27620  Biso   1.000  H
  H72      1.0000 0.93300  0.46150  0.29820  Biso   1.000  H
  O15      1.0000 0.33310  0.49249  0.35780  Biso   1.000  O
  C72      1.0000 0.16160  0.49601  0.35926  Biso   1.000  C
  O16      1.0000 0.06560  0.50613  0.41874  Biso   1.000  O
