data_EBATUY_clean
_audit_creation_date              2014-07-02
_audit_creation_method            'Materials Studio'
_symmetry_space_group_name_H-M    'P1'
_symmetry_Int_Tables_number       1
_symmetry_cell_setting            triclinic
loop_
_symmetry_equiv_pos_as_xyz
  x,y,z
_cell_length_a                    11.3410
_cell_length_b                    12.2300
_cell_length_c                    15.2510
_cell_angle_alpha                 93.3400
_cell_angle_beta                  107.3710
_cell_angle_gamma                 117.0310
loop_
_atom_site_label
_atom_site_type_symbol
_atom_site_fract_x
_atom_site_fract_y
_atom_site_fract_z
_atom_site_U_iso_or_equiv
_atom_site_adp_type
_atom_site_occupancy
Cd1    Cd    0.23232   0.29727   0.37193   0.01267  Uiso   1.00
Cd2    Cd    0.76768   0.70273   0.62807   0.01267  Uiso   1.00
Cd3    Cd    0.00000   0.00000   0.00000   0.01267  Uiso   1.00
H1     H     0.67110   0.61140   0.12400   0.01267  Uiso   1.00
H2     H     0.52240   0.29810   0.37980   0.01267  Uiso   1.00
H3     H     0.74310   0.35140   0.45210   0.01267  Uiso   1.00
H4     H     0.32350   0.43910   0.21340   0.01267  Uiso   1.00
H5     H     0.17390   0.24230   0.56520   0.01267  Uiso   1.00
H6     H     0.96930   0.33040   0.35180   0.01267  Uiso   1.00
H7     H     0.81540   0.76690   0.07130   0.01267  Uiso   1.00
H8     H     0.69870   0.50450   0.21390   0.01267  Uiso   1.00
H9     H     0.03800   0.25070   0.64630   0.01267  Uiso   1.00
H10    H     0.40490   0.66880   0.98650   0.01267  Uiso   1.00
H11    H     0.86640   0.30640   0.58110   0.01267  Uiso   1.00
H12    H     0.66910   0.92850   0.89240   0.01267  Uiso   1.00
H13    H     0.44790   0.81470   0.89600   0.01267  Uiso   1.00
H14    H     0.32890   0.38860   0.87600   0.01267  Uiso   1.00
H15    H     0.47760   0.70190   0.62020   0.01267  Uiso   1.00
H16    H     0.25690   0.64860   0.54790   0.01267  Uiso   1.00
H17    H     0.67650   0.56090   0.78660   0.01267  Uiso   1.00
H18    H     0.82610   0.75770   0.43480   0.01267  Uiso   1.00
H19    H     0.03070   0.66960   0.64820   0.01267  Uiso   1.00
H20    H     0.18460   0.23310   0.92870   0.01267  Uiso   1.00
H21    H     0.30130   0.49550   0.78610   0.01267  Uiso   1.00
H22    H     0.96200   0.74930   0.35370   0.01267  Uiso   1.00
H23    H     0.59510   0.33120   0.01350   0.01267  Uiso   1.00
H24    H     0.13360   0.69360   0.41890   0.01267  Uiso   1.00
H25    H     0.33090   0.07150   0.10760   0.01267  Uiso   1.00
H26    H     0.55210   0.18530   0.10400   0.01267  Uiso   1.00
C1     C     0.51870   0.34550   0.33450   0.01267  Uiso   1.00
C2     C     0.46980   0.61470   0.44790   0.01267  Uiso   1.00
C3     C     0.63070   0.39800   0.30240   0.01267  Uiso   1.00
C4     C     0.02010   0.23330   0.14820   0.01267  Uiso   1.00
C5     C     0.75660   0.37840   0.33310   0.01267  Uiso   1.00
C6     C     0.60630   0.70210   0.03980   0.01267  Uiso   1.00
C7     C     0.12200   0.02540   0.23610   0.01267  Uiso   1.00
C8     C     0.40260   0.42880   0.23650   0.01267  Uiso   1.00
C9     C     0.10310   0.26190   0.53760   0.01267  Uiso   1.00
C10    C     0.48740   0.55550   0.12810   0.01267  Uiso   1.00
C11    C     0.89780   0.32270   0.45760   0.01267  Uiso   1.00
C12    C     0.98250   0.31420   0.41180   0.01267  Uiso   1.00
C13    C     0.50860   0.48410   0.20130   0.01267  Uiso   1.00
C14    C     0.73990   0.77660   0.03570   0.01267  Uiso   1.00
C15    C     0.62430   0.46800   0.23570   0.01267  Uiso   1.00
C16    C     0.02330   0.26810   0.58670   0.01267  Uiso   1.00
C17    C     0.49580   0.71710   0.98590   0.01267  Uiso   1.00
C18    C     0.92020   0.30010   0.54760   0.01267  Uiso   1.00
C19    C     0.65420   0.87150   0.93120   0.01267  Uiso   1.00
C20    C     0.52120   0.80280   0.93220   0.01267  Uiso   1.00
C21    C     0.48130   0.65450   0.66550   0.01267  Uiso   1.00
C22    C     0.53020   0.38530   0.55210   0.01267  Uiso   1.00
C23    C     0.36930   0.60200   0.69760   0.01267  Uiso   1.00
C24    C     0.97990   0.76670   0.85180   0.01267  Uiso   1.00
C25    C     0.24340   0.62160   0.66690   0.01267  Uiso   1.00
C26    C     0.39370   0.29790   0.96020   0.01267  Uiso   1.00
C27    C     0.87800   0.97460   0.76390   0.01267  Uiso   1.00
C28    C     0.59740   0.57120   0.76350   0.01267  Uiso   1.00
C29    C     0.89690   0.73810   0.46240   0.01267  Uiso   1.00
C30    C     0.51260   0.44450   0.87190   0.01267  Uiso   1.00
C31    C     0.10220   0.67730   0.54240   0.01267  Uiso   1.00
C32    C     0.01750   0.68580   0.58820   0.01267  Uiso   1.00
C33    C     0.49140   0.51590   0.79870   0.01267  Uiso   1.00
C34    C     0.26010   0.22340   0.96430   0.01267  Uiso   1.00
C35    C     0.37570   0.53200   0.76430   0.01267  Uiso   1.00
C36    C     0.97670   0.73190   0.41330   0.01267  Uiso   1.00
C37    C     0.50420   0.28290   0.01410   0.01267  Uiso   1.00
C38    C     0.07980   0.69990   0.45240   0.01267  Uiso   1.00
C39    C     0.34580   0.12850   0.06880   0.01267  Uiso   1.00
C40    C     0.47880   0.19720   0.06780   0.01267  Uiso   1.00
S1     S     0.29801   0.55365   0.39490   0.01267  Uiso   1.00
S2     S     0.18210   0.06060   0.35197   0.01267  Uiso   1.00
S3     S     0.95400   0.19690   0.03253   0.01267  Uiso   1.00
S4     S     0.70199   0.44635   0.60510   0.01267  Uiso   1.00
S5     S     0.81790   0.93940   0.64803   0.01267  Uiso   1.00
S6     S     0.04600   0.80310   0.96747   0.01267  Uiso   1.00
N1     N     0.08260   0.28360   0.45010   0.01267  Uiso   1.00
N2     N     0.40580   0.36160   0.30170   0.01267  Uiso   1.00
N3     N     0.58960   0.65640   0.48420   0.01267  Uiso   1.00
N4     N     0.59810   0.62080   0.10110   0.01267  Uiso   1.00
N5     N     0.79200   0.35100   0.41860   0.01267  Uiso   1.00
N6     N     0.76330   0.86100   0.98290   0.01267  Uiso   1.00
N7     N     0.06700   0.26200   0.22920   0.01267  Uiso   1.00
N8     N     0.07680   0.99590   0.15460   0.01267  Uiso   1.00
N9     N     0.91740   0.71640   0.54990   0.01267  Uiso   1.00
N10    N     0.59420   0.63840   0.69830   0.01267  Uiso   1.00
N11    N     0.41040   0.34360   0.51580   0.01267  Uiso   1.00
N12    N     0.40190   0.37920   0.89890   0.01267  Uiso   1.00
N13    N     0.20800   0.64900   0.58140   0.01267  Uiso   1.00
N14    N     0.23670   0.13900   0.01710   0.01267  Uiso   1.00
N15    N     0.93300   0.73800   0.77080   0.01267  Uiso   1.00
N16    N     0.92320   0.00410   0.84540   0.01267  Uiso   1.00
O1     O     0.37280   0.55060   0.09300   0.01267  Uiso   1.00
O2     O     0.82060   0.38720   0.28240   0.01267  Uiso   1.00
O3     O     0.62720   0.44940   0.90700   0.01267  Uiso   1.00
O4     O     0.17940   0.61280   0.71760   0.01267  Uiso   1.00
