data_image0
_cell_length_a       18.7967
_cell_length_b       18.7967
_cell_length_c       49.394
_cell_angle_alpha    90
_cell_angle_beta     90
_cell_angle_gamma    120

_symmetry_space_group_name_H-M    "P 1"
_symmetry_int_tables_number       1

loop_
  _symmetry_equiv_pos_as_xyz
  'x, y, z'

loop_
  _atom_site_label
  _atom_site_occupancy
  _atom_site_fract_x
  _atom_site_fract_y
  _atom_site_fract_z
  _atom_site_thermal_displace_type
  _atom_site_B_iso_or_equiv
  _atom_site_type_symbol
  O1       1.0000 0.29860  0.22200  0.20051  Biso   1.000  O
  O2       1.0000 0.22350  0.18450  0.16273  Biso   1.000  O
  C1       1.0000 0.23980  0.21330  0.18658  Biso   1.000  C
  C2       1.0000 0.18040  0.23140  0.19993  Biso   1.000  C
  C3       1.0000 0.19250  0.25550  0.22694  Biso   1.000  C
  H1       1.0000 0.23870  0.26260  0.23620  Biso   1.000  H
  C4       1.0000 0.09640  0.29980  0.28332  Biso   1.000  C
  H2       1.0000 0.04590  0.29030  0.27680  Biso   1.000  H
  C5       1.0000 0.12500  0.32190  0.30987  Biso   1.000  C
  O3       1.0000 0.96527  0.55533  0.53384  Biso   1.000  O
  O4       1.0000 0.89017  0.51783  0.49606  Biso   1.000  O
  C6       1.0000 0.90647  0.54663  0.51991  Biso   1.000  C
  C7       1.0000 0.84707  0.56473  0.53326  Biso   1.000  C
  C8       1.0000 0.85917  0.58883  0.56027  Biso   1.000  C
  H3       1.0000 0.90537  0.59593  0.56953  Biso   1.000  H
  C9       1.0000 0.76307  0.63313  0.61665  Biso   1.000  C
  H4       1.0000 0.71257  0.62363  0.61013  Biso   1.000  H
  C10      1.0000 0.79167  0.65523  0.64320  Biso   1.000  C
  O5       1.0000 0.63193  0.88867  0.86718  Biso   1.000  O
  O6       1.0000 0.55683  0.85117  0.82940  Biso   1.000  O
  C11      1.0000 0.57313  0.87997  0.85325  Biso   1.000  C
  C12      1.0000 0.51373  0.89807  0.86660  Biso   1.000  C
  C13      1.0000 0.52583  0.92217  0.89361  Biso   1.000  C
  H5       1.0000 0.57203  0.92927  0.90287  Biso   1.000  H
  C14      1.0000 0.42973  0.96647  0.94999  Biso   1.000  C
  H6       1.0000 0.37923  0.95697  0.94347  Biso   1.000  H
  C15      1.0000 0.45833  0.98857  0.97654  Biso   1.000  C
  O7       1.0000 0.77800  0.07660  0.20051  Biso   1.000  O
  O8       1.0000 0.81550  0.03900  0.16273  Biso   1.000  O
  C16      1.0000 0.78670  0.02650  0.18658  Biso   1.000  C
  C17      1.0000 0.76860  0.94900  0.19993  Biso   1.000  C
  C18      1.0000 0.74450  0.93700  0.22694  Biso   1.000  C
  H7       1.0000 0.73740  0.97610  0.23620  Biso   1.000  H
  C19      1.0000 0.70020  0.79660  0.28332  Biso   1.000  C
  H8       1.0000 0.70970  0.75560  0.27680  Biso   1.000  H
  C20      1.0000 0.67810  0.80310  0.30987  Biso   1.000  C
  O9       1.0000 0.44467  0.40993  0.53384  Biso   1.000  O
  O10      1.0000 0.48217  0.37233  0.49606  Biso   1.000  O
  C21      1.0000 0.45337  0.35983  0.51991  Biso   1.000  C
  C22      1.0000 0.43527  0.28233  0.53326  Biso   1.000  C
  C23      1.0000 0.41117  0.27033  0.56027  Biso   1.000  C
  H9       1.0000 0.40407  0.30943  0.56953  Biso   1.000  H
  C24      1.0000 0.36687  0.12993  0.61665  Biso   1.000  C
  H10      1.0000 0.37637  0.08893  0.61013  Biso   1.000  H
  C25      1.0000 0.34477  0.13643  0.64320  Biso   1.000  C
  O11      1.0000 0.11133  0.74327  0.86718  Biso   1.000  O
  O12      1.0000 0.14883  0.70567  0.82940  Biso   1.000  O
  C26      1.0000 0.12003  0.69317  0.85325  Biso   1.000  C
  C27      1.0000 0.10193  0.61567  0.86660  Biso   1.000  C
  C28      1.0000 0.07783  0.60367  0.89361  Biso   1.000  C
  H11      1.0000 0.07073  0.64277  0.90287  Biso   1.000  H
  C29      1.0000 0.03353  0.46327  0.94999  Biso   1.000  C
  H12      1.0000 0.04303  0.42227  0.94347  Biso   1.000  H
  C30      1.0000 0.01143  0.46977  0.97654  Biso   1.000  C
  O13      1.0000 0.92340  0.70140  0.20051  Biso   1.000  O
  O14      1.0000 0.96100  0.77650  0.16273  Biso   1.000  O
  C31      1.0000 0.97350  0.76020  0.18658  Biso   1.000  C
  C32      1.0000 0.05100  0.81960  0.19993  Biso   1.000  C
  C33      1.0000 0.06300  0.80750  0.22694  Biso   1.000  C
  H13      1.0000 0.02390  0.76130  0.23620  Biso   1.000  H
  C34      1.0000 0.20340  0.90360  0.28332  Biso   1.000  C
  H14      1.0000 0.24440  0.95410  0.27680  Biso   1.000  H
  C35      1.0000 0.19690  0.87500  0.30987  Biso   1.000  C
  O15      1.0000 0.59007  0.03473  0.53384  Biso   1.000  O
  O16      1.0000 0.62767  0.10983  0.49606  Biso   1.000  O
  C36      1.0000 0.64017  0.09353  0.51991  Biso   1.000  C
  C37      1.0000 0.71767  0.15293  0.53326  Biso   1.000  C
  C38      1.0000 0.72967  0.14083  0.56027  Biso   1.000  C
  H15      1.0000 0.69057  0.09463  0.56953  Biso   1.000  H
  C39      1.0000 0.87007  0.23693  0.61665  Biso   1.000  C
  H16      1.0000 0.91107  0.28743  0.61013  Biso   1.000  H
  C40      1.0000 0.86357  0.20833  0.64320  Biso   1.000  C
  O17      1.0000 0.25673  0.36807  0.86718  Biso   1.000  O
  O18      1.0000 0.29433  0.44317  0.82940  Biso   1.000  O
  C41      1.0000 0.30683  0.42687  0.85325  Biso   1.000  C
  C42      1.0000 0.38433  0.48627  0.86660  Biso   1.000  C
  C43      1.0000 0.39633  0.47417  0.89361  Biso   1.000  C
  H17      1.0000 0.35723  0.42797  0.90287  Biso   1.000  H
  C44      1.0000 0.53673  0.57027  0.94999  Biso   1.000  C
  H18      1.0000 0.57773  0.62077  0.94347  Biso   1.000  H
  C45      1.0000 0.53023  0.54167  0.97654  Biso   1.000  C
  O19      1.0000 0.22200  0.29860  0.79949  Biso   1.000  O
  O20      1.0000 0.18450  0.22350  0.83727  Biso   1.000  O
  C46      1.0000 0.21330  0.23980  0.81342  Biso   1.000  C
  C47      1.0000 0.23140  0.18040  0.80007  Biso   1.000  C
  C48      1.0000 0.25550  0.19250  0.77306  Biso   1.000  C
  H19      1.0000 0.26260  0.23870  0.76380  Biso   1.000  H
  C49      1.0000 0.29980  0.09640  0.71668  Biso   1.000  C
  H20      1.0000 0.29030  0.04590  0.72320  Biso   1.000  H
  C50      1.0000 0.32190  0.12500  0.69013  Biso   1.000  C
  O21      1.0000 0.88867  0.63193  0.13282  Biso   1.000  O
  O22      1.0000 0.85117  0.55683  0.17060  Biso   1.000  O
  C51      1.0000 0.87997  0.57313  0.14675  Biso   1.000  C
  C52      1.0000 0.89807  0.51373  0.13340  Biso   1.000  C
  C53      1.0000 0.92217  0.52583  0.10639  Biso   1.000  C
  H21      1.0000 0.92927  0.57203  0.09713  Biso   1.000  H
  C54      1.0000 0.96647  0.42973  0.05001  Biso   1.000  C
  H22      1.0000 0.95697  0.37923  0.05653  Biso   1.000  H
  C55      1.0000 0.98857  0.45833  0.02346  Biso   1.000  C
  O23      1.0000 0.55533  0.96527  0.46616  Biso   1.000  O
  O24      1.0000 0.51783  0.89017  0.50394  Biso   1.000  O
  C56      1.0000 0.54663  0.90647  0.48009  Biso   1.000  C
  C57      1.0000 0.56473  0.84707  0.46674  Biso   1.000  C
  C58      1.0000 0.58883  0.85917  0.43973  Biso   1.000  C
  H23      1.0000 0.59593  0.90537  0.43047  Biso   1.000  H
  C59      1.0000 0.63313  0.76307  0.38335  Biso   1.000  C
  H24      1.0000 0.62363  0.71257  0.38987  Biso   1.000  H
  C60      1.0000 0.65523  0.79167  0.35680  Biso   1.000  C
  O25      1.0000 0.07660  0.77800  0.79949  Biso   1.000  O
  O26      1.0000 0.03900  0.81550  0.83727  Biso   1.000  O
  C61      1.0000 0.02650  0.78670  0.81342  Biso   1.000  C
  C62      1.0000 0.94900  0.76860  0.80007  Biso   1.000  C
  C63      1.0000 0.93700  0.74450  0.77306  Biso   1.000  C
  H25      1.0000 0.97610  0.73740  0.76380  Biso   1.000  H
  C64      1.0000 0.79660  0.70020  0.71668  Biso   1.000  C
  H26      1.0000 0.75560  0.70970  0.72320  Biso   1.000  H
  C65      1.0000 0.80310  0.67810  0.69013  Biso   1.000  C
  O27      1.0000 0.74327  0.11133  0.13282  Biso   1.000  O
  O28      1.0000 0.70567  0.14883  0.17060  Biso   1.000  O
  C66      1.0000 0.69317  0.12003  0.14675  Biso   1.000  C
  C67      1.0000 0.61567  0.10193  0.13340  Biso   1.000  C
  C68      1.0000 0.60367  0.07783  0.10639  Biso   1.000  C
  H27      1.0000 0.64277  0.07073  0.09713  Biso   1.000  H
  C69      1.0000 0.46327  0.03353  0.05001  Biso   1.000  C
  H28      1.0000 0.42227  0.04303  0.05653  Biso   1.000  H
  C70      1.0000 0.46977  0.01143  0.02346  Biso   1.000  C
  O29      1.0000 0.40993  0.44467  0.46616  Biso   1.000  O
  O30      1.0000 0.37233  0.48217  0.50394  Biso   1.000  O
  C71      1.0000 0.35983  0.45337  0.48009  Biso   1.000  C
  C72      1.0000 0.28233  0.43527  0.46674  Biso   1.000  C
  C73      1.0000 0.27033  0.41117  0.43973  Biso   1.000  C
  H29      1.0000 0.30943  0.40407  0.43047  Biso   1.000  H
  C74      1.0000 0.12993  0.36687  0.38335  Biso   1.000  C
  H30      1.0000 0.08893  0.37637  0.38987  Biso   1.000  H
  C75      1.0000 0.13643  0.34477  0.35680  Biso   1.000  C
  O31      1.0000 0.70140  0.92340  0.79949  Biso   1.000  O
  O32      1.0000 0.77650  0.96100  0.83727  Biso   1.000  O
  C76      1.0000 0.76020  0.97350  0.81342  Biso   1.000  C
  C77      1.0000 0.81960  0.05100  0.80007  Biso   1.000  C
  C78      1.0000 0.80750  0.06300  0.77306  Biso   1.000  C
  H31      1.0000 0.76130  0.02390  0.76380  Biso   1.000  H
  C79      1.0000 0.90360  0.20340  0.71668  Biso   1.000  C
  H32      1.0000 0.95410  0.24440  0.72320  Biso   1.000  H
  C80      1.0000 0.87500  0.19690  0.69013  Biso   1.000  C
  O33      1.0000 0.36807  0.25673  0.13282  Biso   1.000  O
  O34      1.0000 0.44317  0.29433  0.17060  Biso   1.000  O
  C81      1.0000 0.42687  0.30683  0.14675  Biso   1.000  C
  C82      1.0000 0.48627  0.38433  0.13340  Biso   1.000  C
  C83      1.0000 0.47417  0.39633  0.10639  Biso   1.000  C
  H33      1.0000 0.42797  0.35723  0.09713  Biso   1.000  H
  C84      1.0000 0.57027  0.53673  0.05001  Biso   1.000  C
  H34      1.0000 0.62077  0.57773  0.05653  Biso   1.000  H
  C85      1.0000 0.54167  0.53023  0.02346  Biso   1.000  C
  O35      1.0000 0.03473  0.59007  0.46616  Biso   1.000  O
  O36      1.0000 0.10983  0.62767  0.50394  Biso   1.000  O
  C86      1.0000 0.09353  0.64017  0.48009  Biso   1.000  C
  C87      1.0000 0.15293  0.71767  0.46674  Biso   1.000  C
  C88      1.0000 0.14083  0.72967  0.43973  Biso   1.000  C
  H35      1.0000 0.09463  0.69057  0.43047  Biso   1.000  H
  C89      1.0000 0.23693  0.87007  0.38335  Biso   1.000  C
  H36      1.0000 0.28743  0.91107  0.38987  Biso   1.000  H
  C90      1.0000 0.20833  0.86357  0.35680  Biso   1.000  C
  O37      1.0000 0.70140  0.77800  0.79949  Biso   1.000  O
  O38      1.0000 0.77650  0.81550  0.83727  Biso   1.000  O
  C91      1.0000 0.76020  0.78670  0.81342  Biso   1.000  C
  C92      1.0000 0.81960  0.76860  0.80007  Biso   1.000  C
  C93      1.0000 0.80750  0.74450  0.77306  Biso   1.000  C
  H37      1.0000 0.76130  0.73740  0.76380  Biso   1.000  H
  C94      1.0000 0.90360  0.70020  0.71668  Biso   1.000  C
  H38      1.0000 0.95410  0.70970  0.72320  Biso   1.000  H
  C95      1.0000 0.87500  0.67810  0.69013  Biso   1.000  C
  O39      1.0000 0.36807  0.11133  0.13282  Biso   1.000  O
  O40      1.0000 0.44317  0.14883  0.17060  Biso   1.000  O
  C96      1.0000 0.42687  0.12003  0.14675  Biso   1.000  C
  C97      1.0000 0.48627  0.10193  0.13340  Biso   1.000  C
  C98      1.0000 0.47417  0.07783  0.10639  Biso   1.000  C
  H39      1.0000 0.42797  0.07073  0.09713  Biso   1.000  H
  C99      1.0000 0.57027  0.03353  0.05001  Biso   1.000  C
  H40      1.0000 0.62077  0.04303  0.05653  Biso   1.000  H
  C100     1.0000 0.54167  0.01143  0.02346  Biso   1.000  C
  O41      1.0000 0.03473  0.44467  0.46616  Biso   1.000  O
  O42      1.0000 0.10983  0.48217  0.50394  Biso   1.000  O
  C101     1.0000 0.09353  0.45337  0.48009  Biso   1.000  C
  C102     1.0000 0.15293  0.43527  0.46674  Biso   1.000  C
  C103     1.0000 0.14083  0.41117  0.43973  Biso   1.000  C
  H41      1.0000 0.09463  0.40407  0.43047  Biso   1.000  H
  C104     1.0000 0.23693  0.36687  0.38335  Biso   1.000  C
  H42      1.0000 0.28743  0.37637  0.38987  Biso   1.000  H
  C105     1.0000 0.20833  0.34477  0.35680  Biso   1.000  C
  O43      1.0000 0.22200  0.92340  0.79949  Biso   1.000  O
  O44      1.0000 0.18450  0.96100  0.83727  Biso   1.000  O
  C106     1.0000 0.21330  0.97350  0.81342  Biso   1.000  C
  C107     1.0000 0.23140  0.05100  0.80007  Biso   1.000  C
  C108     1.0000 0.25550  0.06300  0.77306  Biso   1.000  C
  H43      1.0000 0.26260  0.02390  0.76380  Biso   1.000  H
  C109     1.0000 0.29980  0.20340  0.71668  Biso   1.000  C
  H44      1.0000 0.29030  0.24440  0.72320  Biso   1.000  H
  C110     1.0000 0.32190  0.19690  0.69013  Biso   1.000  C
  O45      1.0000 0.88867  0.25673  0.13282  Biso   1.000  O
  O46      1.0000 0.85117  0.29433  0.17060  Biso   1.000  O
  C111     1.0000 0.87997  0.30683  0.14675  Biso   1.000  C
  C112     1.0000 0.89807  0.38433  0.13340  Biso   1.000  C
  C113     1.0000 0.92217  0.39633  0.10639  Biso   1.000  C
  H45      1.0000 0.92927  0.35723  0.09713  Biso   1.000  H
  C114     1.0000 0.96647  0.53673  0.05001  Biso   1.000  C
  H46      1.0000 0.95697  0.57773  0.05653  Biso   1.000  H
  C115     1.0000 0.98857  0.53023  0.02346  Biso   1.000  C
  O47      1.0000 0.55533  0.59007  0.46616  Biso   1.000  O
  O48      1.0000 0.51783  0.62767  0.50394  Biso   1.000  O
  C116     1.0000 0.54663  0.64017  0.48009  Biso   1.000  C
  C117     1.0000 0.56473  0.71767  0.46674  Biso   1.000  C
  C118     1.0000 0.58883  0.72967  0.43973  Biso   1.000  C
  H47      1.0000 0.59593  0.69057  0.43047  Biso   1.000  H
  C119     1.0000 0.63313  0.87007  0.38335  Biso   1.000  C
  H48      1.0000 0.62363  0.91107  0.38987  Biso   1.000  H
  C120     1.0000 0.65523  0.86357  0.35680  Biso   1.000  C
  O49      1.0000 0.07660  0.29860  0.79949  Biso   1.000  O
  O50      1.0000 0.03900  0.22350  0.83727  Biso   1.000  O
  C121     1.0000 0.02650  0.23980  0.81342  Biso   1.000  C
  C122     1.0000 0.94900  0.18040  0.80007  Biso   1.000  C
  C123     1.0000 0.93700  0.19250  0.77306  Biso   1.000  C
  H49      1.0000 0.97610  0.23870  0.76380  Biso   1.000  H
  C124     1.0000 0.79660  0.09640  0.71668  Biso   1.000  C
  H50      1.0000 0.75560  0.04590  0.72320  Biso   1.000  H
  C125     1.0000 0.80310  0.12500  0.69013  Biso   1.000  C
  O51      1.0000 0.74327  0.63193  0.13282  Biso   1.000  O
  O52      1.0000 0.70567  0.55683  0.17060  Biso   1.000  O
  C126     1.0000 0.69317  0.57313  0.14675  Biso   1.000  C
  C127     1.0000 0.61567  0.51373  0.13340  Biso   1.000  C
  C128     1.0000 0.60367  0.52583  0.10639  Biso   1.000  C
  H51      1.0000 0.64277  0.57203  0.09713  Biso   1.000  H
  C129     1.0000 0.46327  0.42973  0.05001  Biso   1.000  C
  H52      1.0000 0.42227  0.37923  0.05653  Biso   1.000  H
  C130     1.0000 0.46977  0.45833  0.02346  Biso   1.000  C
  O53      1.0000 0.40993  0.96527  0.46616  Biso   1.000  O
  O54      1.0000 0.37233  0.89017  0.50394  Biso   1.000  O
  C131     1.0000 0.35983  0.90647  0.48009  Biso   1.000  C
  C132     1.0000 0.28233  0.84707  0.46674  Biso   1.000  C
  C133     1.0000 0.27033  0.85917  0.43973  Biso   1.000  C
  H53      1.0000 0.30943  0.90537  0.43047  Biso   1.000  H
  C134     1.0000 0.12993  0.76307  0.38335  Biso   1.000  C
  H54      1.0000 0.08893  0.71257  0.38987  Biso   1.000  H
  C135     1.0000 0.13643  0.79167  0.35680  Biso   1.000  C
  O55      1.0000 0.77800  0.70140  0.20051  Biso   1.000  O
  O56      1.0000 0.81550  0.77650  0.16273  Biso   1.000  O
  C136     1.0000 0.78670  0.76020  0.18658  Biso   1.000  C
  C137     1.0000 0.76860  0.81960  0.19993  Biso   1.000  C
  C138     1.0000 0.74450  0.80750  0.22694  Biso   1.000  C
  H55      1.0000 0.73740  0.76130  0.23620  Biso   1.000  H
  C139     1.0000 0.70020  0.90360  0.28332  Biso   1.000  C
  H56      1.0000 0.70970  0.95410  0.27680  Biso   1.000  H
  C140     1.0000 0.67810  0.87500  0.30987  Biso   1.000  C
  O57      1.0000 0.44467  0.03473  0.53384  Biso   1.000  O
  O58      1.0000 0.48217  0.10983  0.49606  Biso   1.000  O
  C141     1.0000 0.45337  0.09353  0.51991  Biso   1.000  C
  C142     1.0000 0.43527  0.15293  0.53326  Biso   1.000  C
  C143     1.0000 0.41117  0.14083  0.56027  Biso   1.000  C
  H57      1.0000 0.40407  0.09463  0.56953  Biso   1.000  H
  C144     1.0000 0.36687  0.23693  0.61665  Biso   1.000  C
  H58      1.0000 0.37637  0.28743  0.61013  Biso   1.000  H
  C145     1.0000 0.34477  0.20833  0.64320  Biso   1.000  C
  O59      1.0000 0.11133  0.36807  0.86718  Biso   1.000  O
  O60      1.0000 0.14883  0.44317  0.82940  Biso   1.000  O
  C146     1.0000 0.12003  0.42687  0.85325  Biso   1.000  C
  C147     1.0000 0.10193  0.48627  0.86660  Biso   1.000  C
  C148     1.0000 0.07783  0.47417  0.89361  Biso   1.000  C
  H59      1.0000 0.07073  0.42797  0.90287  Biso   1.000  H
  C149     1.0000 0.03353  0.57027  0.94999  Biso   1.000  C
  H60      1.0000 0.04303  0.62077  0.94347  Biso   1.000  H
  C150     1.0000 0.01143  0.54167  0.97654  Biso   1.000  C
  O61      1.0000 0.92340  0.22200  0.20051  Biso   1.000  O
  O62      1.0000 0.96100  0.18450  0.16273  Biso   1.000  O
  C151     1.0000 0.97350  0.21330  0.18658  Biso   1.000  C
  C152     1.0000 0.05100  0.23140  0.19993  Biso   1.000  C
  C153     1.0000 0.06300  0.25550  0.22694  Biso   1.000  C
  H61      1.0000 0.02390  0.26260  0.23620  Biso   1.000  H
  C154     1.0000 0.20340  0.29980  0.28332  Biso   1.000  C
  H62      1.0000 0.24440  0.29030  0.27680  Biso   1.000  H
  C155     1.0000 0.19690  0.32190  0.30987  Biso   1.000  C
  O63      1.0000 0.59007  0.55533  0.53384  Biso   1.000  O
  O64      1.0000 0.62767  0.51783  0.49606  Biso   1.000  O
  C156     1.0000 0.64017  0.54663  0.51991  Biso   1.000  C
  C157     1.0000 0.71767  0.56473  0.53326  Biso   1.000  C
  C158     1.0000 0.72967  0.58883  0.56027  Biso   1.000  C
  H63      1.0000 0.69057  0.59593  0.56953  Biso   1.000  H
  C159     1.0000 0.87007  0.63313  0.61665  Biso   1.000  C
  H64      1.0000 0.91107  0.62363  0.61013  Biso   1.000  H
  C160     1.0000 0.86357  0.65523  0.64320  Biso   1.000  C
  O65      1.0000 0.25673  0.88867  0.86718  Biso   1.000  O
  O66      1.0000 0.29433  0.85117  0.82940  Biso   1.000  O
  C161     1.0000 0.30683  0.87997  0.85325  Biso   1.000  C
  C162     1.0000 0.38433  0.89807  0.86660  Biso   1.000  C
  C163     1.0000 0.39633  0.92217  0.89361  Biso   1.000  C
  H65      1.0000 0.35723  0.92927  0.90287  Biso   1.000  H
  C164     1.0000 0.53673  0.96647  0.94999  Biso   1.000  C
  H66      1.0000 0.57773  0.95697  0.94347  Biso   1.000  H
  C165     1.0000 0.53023  0.98857  0.97654  Biso   1.000  C
  O67      1.0000 0.29860  0.07660  0.20051  Biso   1.000  O
  O68      1.0000 0.22350  0.03900  0.16273  Biso   1.000  O
  C166     1.0000 0.23980  0.02650  0.18658  Biso   1.000  C
  C167     1.0000 0.18040  0.94900  0.19993  Biso   1.000  C
  C168     1.0000 0.19250  0.93700  0.22694  Biso   1.000  C
  H67      1.0000 0.23870  0.97610  0.23620  Biso   1.000  H
  C169     1.0000 0.09640  0.79660  0.28332  Biso   1.000  C
  H68      1.0000 0.04590  0.75560  0.27680  Biso   1.000  H
  C170     1.0000 0.12500  0.80310  0.30987  Biso   1.000  C
  O69      1.0000 0.96527  0.40993  0.53384  Biso   1.000  O
  O70      1.0000 0.89017  0.37233  0.49606  Biso   1.000  O
  C171     1.0000 0.90647  0.35983  0.51991  Biso   1.000  C
  C172     1.0000 0.84707  0.28233  0.53326  Biso   1.000  C
  C173     1.0000 0.85917  0.27033  0.56027  Biso   1.000  C
  H69      1.0000 0.90537  0.30943  0.56953  Biso   1.000  H
  C174     1.0000 0.76307  0.12993  0.61665  Biso   1.000  C
  H70      1.0000 0.71257  0.08893  0.61013  Biso   1.000  H
  C175     1.0000 0.79167  0.13643  0.64320  Biso   1.000  C
  O71      1.0000 0.63193  0.74327  0.86718  Biso   1.000  O
  O72      1.0000 0.55683  0.70567  0.82940  Biso   1.000  O
  C176     1.0000 0.57313  0.69317  0.85325  Biso   1.000  C
  C177     1.0000 0.51373  0.61567  0.86660  Biso   1.000  C
  C178     1.0000 0.52583  0.60367  0.89361  Biso   1.000  C
  H71      1.0000 0.57203  0.64277  0.90287  Biso   1.000  H
  C179     1.0000 0.42973  0.46327  0.94999  Biso   1.000  C
  H72      1.0000 0.37923  0.42227  0.94347  Biso   1.000  H
  C180     1.0000 0.45833  0.46977  0.97654  Biso   1.000  C
  Cu1      1.0000 0.28737  0.14368  0.14433  Biso   1.000  Cu
  Cu2      1.0000 0.95404  0.47702  0.47766  Biso   1.000  Cu
  Cu3      1.0000 0.62070  0.81035  0.81099  Biso   1.000  Cu
  Cu4      1.0000 0.85632  0.14368  0.14433  Biso   1.000  Cu
  Cu5      1.0000 0.52298  0.47702  0.47766  Biso   1.000  Cu
  Cu6      1.0000 0.18965  0.81035  0.81099  Biso   1.000  Cu
  Cu7      1.0000 0.85631  0.71263  0.14433  Biso   1.000  Cu
  Cu8      1.0000 0.52298  0.04596  0.47766  Biso   1.000  Cu
  Cu9      1.0000 0.18965  0.37930  0.81099  Biso   1.000  Cu
  Cu10     1.0000 0.14368  0.28737  0.85567  Biso   1.000  Cu
  Cu11     1.0000 0.81035  0.62070  0.18901  Biso   1.000  Cu
  Cu12     1.0000 0.47702  0.95404  0.52234  Biso   1.000  Cu
  Cu13     1.0000 0.14368  0.85632  0.85567  Biso   1.000  Cu
  Cu14     1.0000 0.81035  0.18965  0.18901  Biso   1.000  Cu
  Cu15     1.0000 0.47702  0.52298  0.52234  Biso   1.000  Cu
  Cu16     1.0000 0.71263  0.85631  0.85567  Biso   1.000  Cu
  Cu17     1.0000 0.37930  0.18965  0.18901  Biso   1.000  Cu
  Cu18     1.0000 0.04596  0.52298  0.52234  Biso   1.000  Cu
  C181     1.0000 0.11095  0.22190  0.18730  Biso   1.000  C
  H73      1.0000 0.10405  0.20810  0.16900  Biso   1.000  H
  C182     1.0000 0.13435  0.26870  0.23980  Biso   1.000  C
  C183     1.0000 0.14770  0.29540  0.27050  Biso   1.000  C
  C184     1.0000 0.77762  0.55523  0.52063  Biso   1.000  C
  H74      1.0000 0.77072  0.54143  0.50233  Biso   1.000  H
  C185     1.0000 0.80102  0.60203  0.57313  Biso   1.000  C
  C186     1.0000 0.81437  0.62873  0.60383  Biso   1.000  C
  C187     1.0000 0.44428  0.88857  0.85397  Biso   1.000  C
  H75      1.0000 0.43738  0.87477  0.83567  Biso   1.000  H
  C188     1.0000 0.46768  0.93537  0.90647  Biso   1.000  C
  C189     1.0000 0.48103  0.96207  0.93717  Biso   1.000  C
  C190     1.0000 0.77810  0.88905  0.18730  Biso   1.000  C
  H76      1.0000 0.79190  0.89595  0.16900  Biso   1.000  H
  C191     1.0000 0.73130  0.86565  0.23980  Biso   1.000  C
  C192     1.0000 0.70460  0.85230  0.27050  Biso   1.000  C
  C193     1.0000 0.44477  0.22238  0.52063  Biso   1.000  C
  H77      1.0000 0.45857  0.22928  0.50233  Biso   1.000  H
  C194     1.0000 0.39797  0.19898  0.57313  Biso   1.000  C
  C195     1.0000 0.37127  0.18563  0.60383  Biso   1.000  C
  C196     1.0000 0.11143  0.55572  0.85397  Biso   1.000  C
  H78      1.0000 0.12523  0.56262  0.83567  Biso   1.000  H
  C197     1.0000 0.06463  0.53232  0.90647  Biso   1.000  C
  C198     1.0000 0.03793  0.51897  0.93717  Biso   1.000  C
  C199     1.0000 0.11095  0.88905  0.18730  Biso   1.000  C
  H79      1.0000 0.10405  0.89595  0.16900  Biso   1.000  H
  C200     1.0000 0.13435  0.86565  0.23980  Biso   1.000  C
  C201     1.0000 0.14770  0.85230  0.27050  Biso   1.000  C
  C202     1.0000 0.77762  0.22238  0.52063  Biso   1.000  C
  H80      1.0000 0.77072  0.22928  0.50233  Biso   1.000  H
  C203     1.0000 0.80102  0.19898  0.57313  Biso   1.000  C
  C204     1.0000 0.81437  0.18563  0.60383  Biso   1.000  C
  C205     1.0000 0.44428  0.55572  0.85397  Biso   1.000  C
  H81      1.0000 0.43738  0.56262  0.83567  Biso   1.000  H
  C206     1.0000 0.46768  0.53232  0.90647  Biso   1.000  C
  C207     1.0000 0.48103  0.51897  0.93717  Biso   1.000  C
  C208     1.0000 0.22190  0.11095  0.81270  Biso   1.000  C
  H82      1.0000 0.20810  0.10405  0.83100  Biso   1.000  H
  C209     1.0000 0.26870  0.13435  0.76020  Biso   1.000  C
  C210     1.0000 0.29540  0.14770  0.72950  Biso   1.000  C
  C211     1.0000 0.88857  0.44428  0.14603  Biso   1.000  C
  H83      1.0000 0.87477  0.43738  0.16433  Biso   1.000  H
  C212     1.0000 0.93537  0.46768  0.09353  Biso   1.000  C
  C213     1.0000 0.96207  0.48103  0.06283  Biso   1.000  C
  C214     1.0000 0.55523  0.77762  0.47937  Biso   1.000  C
  H84      1.0000 0.54143  0.77072  0.49767  Biso   1.000  H
  C215     1.0000 0.60203  0.80102  0.42687  Biso   1.000  C
  C216     1.0000 0.62873  0.81437  0.39617  Biso   1.000  C
  C217     1.0000 0.88905  0.77810  0.81270  Biso   1.000  C
  H85      1.0000 0.89595  0.79190  0.83100  Biso   1.000  H
  C218     1.0000 0.86565  0.73130  0.76020  Biso   1.000  C
  C219     1.0000 0.85230  0.70460  0.72950  Biso   1.000  C
  C220     1.0000 0.55572  0.11143  0.14603  Biso   1.000  C
  H86      1.0000 0.56262  0.12523  0.16433  Biso   1.000  H
  C221     1.0000 0.53232  0.06463  0.09353  Biso   1.000  C
  C222     1.0000 0.51897  0.03793  0.06283  Biso   1.000  C
  C223     1.0000 0.22238  0.44477  0.47937  Biso   1.000  C
  H87      1.0000 0.22928  0.45857  0.49767  Biso   1.000  H
  C224     1.0000 0.19898  0.39797  0.42687  Biso   1.000  C
  C225     1.0000 0.18563  0.37127  0.39617  Biso   1.000  C
  C226     1.0000 0.88905  0.11095  0.81270  Biso   1.000  C
  H88      1.0000 0.89595  0.10405  0.83100  Biso   1.000  H
  C227     1.0000 0.86565  0.13435  0.76020  Biso   1.000  C
  C228     1.0000 0.85230  0.14770  0.72950  Biso   1.000  C
  C229     1.0000 0.55572  0.44428  0.14603  Biso   1.000  C
  H89      1.0000 0.56262  0.43738  0.16433  Biso   1.000  H
  C230     1.0000 0.53232  0.46768  0.09353  Biso   1.000  C
  C231     1.0000 0.51897  0.48103  0.06283  Biso   1.000  C
  C232     1.0000 0.22238  0.77762  0.47937  Biso   1.000  C
  H90      1.0000 0.22928  0.77072  0.49767  Biso   1.000  H
  C233     1.0000 0.19898  0.80102  0.42687  Biso   1.000  C
  C234     1.0000 0.18563  0.81437  0.39617  Biso   1.000  C
  C235     1.0000 0.09322  0.33333  0.33333  Biso   1.000  C
  H91      1.0000 0.04382  0.33333  0.33333  Biso   1.000  H
  C236     1.0000 0.66667  0.75988  0.33333  Biso   1.000  C
  H92      1.0000 0.66667  0.71048  0.33333  Biso   1.000  H
  C237     1.0000 0.24012  0.90678  0.33333  Biso   1.000  C
  H93      1.0000 0.28952  0.95618  0.33333  Biso   1.000  H
  C238     1.0000 0.33333  0.09322  0.66667  Biso   1.000  C
  H94      1.0000 0.33333  0.04382  0.66667  Biso   1.000  H
  C239     1.0000 0.00000  0.42655  0.00000  Biso   1.000  C
  H95      1.0000 0.00000  0.37715  0.00000  Biso   1.000  H
  C240     1.0000 0.75988  0.66667  0.66667  Biso   1.000  C
  H96      1.0000 0.71048  0.66667  0.66667  Biso   1.000  H
  C241     1.0000 0.42655  0.00000  0.00000  Biso   1.000  C
  H97      1.0000 0.37715  0.00000  0.00000  Biso   1.000  H
  C242     1.0000 0.90678  0.24012  0.66667  Biso   1.000  C
  H98      1.0000 0.95618  0.28952  0.66667  Biso   1.000  H
  C243     1.0000 0.57345  0.57345  0.00000  Biso   1.000  C
  H99      1.0000 0.62285  0.62285  0.00000  Biso   1.000  H
  C244     1.0000 0.90678  0.66667  0.66667  Biso   1.000  C
  H100     1.0000 0.95618  0.66667  0.66667  Biso   1.000  H
  C245     1.0000 0.57345  0.00000  0.00000  Biso   1.000  C
  H101     1.0000 0.62285  0.00000  0.00000  Biso   1.000  H
  C246     1.0000 0.24012  0.33333  0.33333  Biso   1.000  C
  H102     1.0000 0.28952  0.33333  0.33333  Biso   1.000  H
  C247     1.0000 0.33333  0.24012  0.66667  Biso   1.000  C
  H103     1.0000 0.33333  0.28952  0.66667  Biso   1.000  H
  C248     1.0000 0.00000  0.57345  0.00000  Biso   1.000  C
  H104     1.0000 0.00000  0.62285  0.00000  Biso   1.000  H
  C249     1.0000 0.75988  0.09322  0.66667  Biso   1.000  C
  H105     1.0000 0.71048  0.04382  0.66667  Biso   1.000  H
  C250     1.0000 0.42655  0.42655  0.00000  Biso   1.000  C
  H106     1.0000 0.37715  0.37715  0.00000  Biso   1.000  H
  C251     1.0000 0.66667  0.90678  0.33333  Biso   1.000  C
  H107     1.0000 0.66667  0.95618  0.33333  Biso   1.000  H
  C252     1.0000 0.09322  0.75988  0.33333  Biso   1.000  C
  H108     1.0000 0.04382  0.71048  0.33333  Biso   1.000  H
