data_image0
_cell_length_a       24.028
_cell_length_b       13.413
_cell_length_c       24.048
_cell_angle_alpha    90
_cell_angle_beta     113.111
_cell_angle_gamma    90

_symmetry_space_group_name_H-M    "P 1"
_symmetry_int_tables_number       1

loop_
  _symmetry_equiv_pos_as_xyz
  'x, y, z'

loop_
  _atom_site_label
  _atom_site_occupancy
  _atom_site_fract_x
  _atom_site_fract_y
  _atom_site_fract_z
  _atom_site_thermal_displace_type
  _atom_site_B_iso_or_equiv
  _atom_site_type_symbol
  Co1      1.0000 0.38391  0.85265  0.95030  Biso   1.000  Co
  O1       1.0000 0.44353  0.20500  0.19124  Biso   1.000  O
  O2       1.0000 0.37535  0.32442  0.17041  Biso   1.000  O
  O3       1.0000 0.39594  0.92404  0.03524  Biso   1.000  O
  O4       1.0000 0.30841  0.93933  0.95791  Biso   1.000  O
  O5       1.0000 0.95958  0.14468  0.00788  Biso   1.000  O
  O6       1.0000 0.96503  0.28822  0.96407  Biso   1.000  O
  N1       1.0000 0.52707  0.39589  0.20130  Biso   1.000  N
  N2       1.0000 0.56548  0.53101  0.17910  Biso   1.000  N
  N3       1.0000 0.83595  0.68540  0.35934  Biso   1.000  N
  N4       1.0000 0.75982  0.69961  0.27169  Biso   1.000  N
  N5       1.0000 0.58659  0.01505  0.07944  Biso   1.000  N
  N6       1.0000 0.59042  0.87134  0.12436  Biso   1.000  N
  C1       1.0000 0.57798  0.70079  0.15180  Biso   1.000  C
  H1       1.0000 0.53730  0.70240  0.12610  Biso   1.000  H
  C2       1.0000 0.60320  0.61658  0.18600  Biso   1.000  C
  C3       1.0000 0.66348  0.61320  0.22470  Biso   1.000  C
  H2       1.0000 0.68000  0.55610  0.24700  Biso   1.000  H
  C4       1.0000 0.69865  0.69680  0.22936  Biso   1.000  C
  C5       1.0000 0.67514  0.78127  0.19526  Biso   1.000  C
  H3       1.0000 0.69960  0.83640  0.19820  Biso   1.000  H
  C6       1.0000 0.61530  0.78259  0.15711  Biso   1.000  C
  C7       1.0000 0.57002  0.46321  0.22209  Biso   1.000  C
  H4       1.0000 0.59960  0.46400  0.26120  Biso   1.000  H
  C8       1.0000 0.49362  0.42200  0.14260  Biso   1.000  C
  H5       1.0000 0.46020  0.38710  0.11640  Biso   1.000  H
  C9       1.0000 0.51593  0.50500  0.12828  Biso   1.000  C
  H6       1.0000 0.50100  0.53830  0.09140  Biso   1.000  H
  C10      1.0000 0.77949  0.66260  0.32863  Biso   1.000  C
  H7       1.0000 0.75570  0.62580  0.34380  Biso   1.000  H
  C11      1.0000 0.85430  0.73960  0.32141  Biso   1.000  C
  H8       1.0000 0.89290  0.76550  0.33120  Biso   1.000  H
  C12      1.0000 0.80746  0.74940  0.26744  Biso   1.000  C
  H9       1.0000 0.80760  0.78350  0.23380  Biso   1.000  H
  C13      1.0000 0.62185  0.94180  0.10839  Biso   1.000  C
  H10      1.0000 0.66310  0.93840  0.11690  Biso   1.000  H
  C14      1.0000 0.53003  0.99140  0.07617  Biso   1.000  C
  H11      1.0000 0.49560  0.03040  0.05770  Biso   1.000  H
  C15      1.0000 0.53152  0.90380  0.10365  Biso   1.000  C
  H12      1.0000 0.49910  0.87140  0.10780  Biso   1.000  H
  C16      1.0000 0.39090  0.23980  0.16204  Biso   1.000  C
  C17      1.0000 0.34638  0.17235  0.11614  Biso   1.000  C
  C18      1.0000 0.36552  0.09227  0.09145  Biso   1.000  C
  H13      1.0000 0.40650  0.07680  0.10540  Biso   1.000  H
  C19      1.0000 0.32359  0.03532  0.04592  Biso   1.000  C
  C20      1.0000 0.34360  0.96049  0.01162  Biso   1.000  C
  C21      1.0000 0.26202  0.05455  0.02813  Biso   1.000  C
  H14      1.0000 0.23400  0.01490  0.99860  Biso   1.000  H
  C22      1.0000 0.24164  0.13180  0.05372  Biso   1.000  C
  C23      1.0000 0.28506  0.19240  0.09632  Biso   1.000  C
  H15      1.0000 0.27240  0.24750  0.11170  Biso   1.000  H
  C24      1.0000 0.17648  0.15082  0.03610  Biso   1.000  C
  C25      1.0000 0.15272  0.24669  0.02211  Biso   1.000  C
  H16      1.0000 0.17850  0.29970  0.02430  Biso   1.000  H
  C26      1.0000 0.09190  0.26446  0.00506  Biso   1.000  C
  H17      1.0000 0.07700  0.32870  0.99450  Biso   1.000  H
  C27      1.0000 0.05229  0.18733  0.00334  Biso   1.000  C
  C28      1.0000 0.98743  0.20734  0.99042  Biso   1.000  C
  C29      1.0000 0.07608  0.09123  0.01746  Biso   1.000  C
  H18      1.0000 0.05060  0.03860  0.01670  Biso   1.000  H
  C30      1.0000 0.13672  0.07303  0.03253  Biso   1.000  C
  H19      1.0000 0.15130  0.00810  0.04040  Biso   1.000  H
  Co2      1.0000 0.88391  0.35265  0.95030  Biso   1.000  Co
  O7       1.0000 0.94353  0.70500  0.19124  Biso   1.000  O
  O8       1.0000 0.87535  0.82442  0.17041  Biso   1.000  O
  O9       1.0000 0.89594  0.42404  0.03524  Biso   1.000  O
  O10      1.0000 0.80841  0.43933  0.95791  Biso   1.000  O
  O11      1.0000 0.45958  0.64468  0.00788  Biso   1.000  O
  O12      1.0000 0.46503  0.78822  0.96407  Biso   1.000  O
  N7       1.0000 0.02707  0.89589  0.20130  Biso   1.000  N
  N8       1.0000 0.06548  0.03101  0.17910  Biso   1.000  N
  N9       1.0000 0.33595  0.18540  0.35934  Biso   1.000  N
  N10      1.0000 0.25982  0.19961  0.27169  Biso   1.000  N
  N11      1.0000 0.08659  0.51505  0.07944  Biso   1.000  N
  N12      1.0000 0.09042  0.37134  0.12436  Biso   1.000  N
  C31      1.0000 0.07798  0.20079  0.15180  Biso   1.000  C
  H20      1.0000 0.03730  0.20240  0.12610  Biso   1.000  H
  C32      1.0000 0.10320  0.11658  0.18600  Biso   1.000  C
  C33      1.0000 0.16348  0.11320  0.22470  Biso   1.000  C
  H21      1.0000 0.18000  0.05610  0.24700  Biso   1.000  H
  C34      1.0000 0.19865  0.19680  0.22936  Biso   1.000  C
  C35      1.0000 0.17514  0.28127  0.19526  Biso   1.000  C
  H22      1.0000 0.19960  0.33640  0.19820  Biso   1.000  H
  C36      1.0000 0.11530  0.28259  0.15711  Biso   1.000  C
  C37      1.0000 0.07002  0.96321  0.22209  Biso   1.000  C
  H23      1.0000 0.09960  0.96400  0.26120  Biso   1.000  H
  C38      1.0000 0.99362  0.92200  0.14260  Biso   1.000  C
  H24      1.0000 0.96020  0.88710  0.11640  Biso   1.000  H
  C39      1.0000 0.01593  0.00500  0.12828  Biso   1.000  C
  H25      1.0000 0.00100  0.03830  0.09140  Biso   1.000  H
  C40      1.0000 0.27949  0.16260  0.32863  Biso   1.000  C
  H26      1.0000 0.25570  0.12580  0.34380  Biso   1.000  H
  C41      1.0000 0.35430  0.23960  0.32141  Biso   1.000  C
  H27      1.0000 0.39290  0.26550  0.33120  Biso   1.000  H
  C42      1.0000 0.30746  0.24940  0.26744  Biso   1.000  C
  H28      1.0000 0.30760  0.28350  0.23380  Biso   1.000  H
  C43      1.0000 0.12185  0.44180  0.10839  Biso   1.000  C
  H29      1.0000 0.16310  0.43840  0.11690  Biso   1.000  H
  C44      1.0000 0.03003  0.49140  0.07617  Biso   1.000  C
  H30      1.0000 0.99560  0.53040  0.05770  Biso   1.000  H
  C45      1.0000 0.03152  0.40380  0.10365  Biso   1.000  C
  H31      1.0000 0.99910  0.37140  0.10780  Biso   1.000  H
  C46      1.0000 0.89090  0.73980  0.16204  Biso   1.000  C
  C47      1.0000 0.84638  0.67235  0.11614  Biso   1.000  C
  C48      1.0000 0.86552  0.59227  0.09145  Biso   1.000  C
  H32      1.0000 0.90650  0.57680  0.10540  Biso   1.000  H
  C49      1.0000 0.82359  0.53532  0.04592  Biso   1.000  C
  C50      1.0000 0.84360  0.46049  0.01162  Biso   1.000  C
  C51      1.0000 0.76202  0.55455  0.02813  Biso   1.000  C
  H33      1.0000 0.73400  0.51490  0.99860  Biso   1.000  H
  C52      1.0000 0.74164  0.63180  0.05372  Biso   1.000  C
  C53      1.0000 0.78506  0.69240  0.09632  Biso   1.000  C
  H34      1.0000 0.77240  0.74750  0.11170  Biso   1.000  H
  C54      1.0000 0.67648  0.65082  0.03610  Biso   1.000  C
  C55      1.0000 0.65272  0.74669  0.02211  Biso   1.000  C
  H35      1.0000 0.67850  0.79970  0.02430  Biso   1.000  H
  C56      1.0000 0.59190  0.76446  0.00506  Biso   1.000  C
  H36      1.0000 0.57700  0.82870  0.99450  Biso   1.000  H
  C57      1.0000 0.55229  0.68733  0.00334  Biso   1.000  C
  C58      1.0000 0.48743  0.70734  0.99042  Biso   1.000  C
  C59      1.0000 0.57608  0.59123  0.01746  Biso   1.000  C
  H37      1.0000 0.55060  0.53860  0.01670  Biso   1.000  H
  C60      1.0000 0.63672  0.57303  0.03253  Biso   1.000  C
  H38      1.0000 0.65130  0.50810  0.04040  Biso   1.000  H
  Co3      1.0000 0.61609  0.85265  0.54970  Biso   1.000  Co
  O13      1.0000 0.55647  0.20500  0.30876  Biso   1.000  O
  O14      1.0000 0.62465  0.32442  0.32959  Biso   1.000  O
  O15      1.0000 0.60406  0.92404  0.46476  Biso   1.000  O
  O16      1.0000 0.69159  0.93933  0.54209  Biso   1.000  O
  O17      1.0000 0.04042  0.14468  0.49212  Biso   1.000  O
  O18      1.0000 0.03497  0.28822  0.53593  Biso   1.000  O
  N13      1.0000 0.47293  0.39589  0.29870  Biso   1.000  N
  N14      1.0000 0.43452  0.53101  0.32090  Biso   1.000  N
  N15      1.0000 0.16405  0.68540  0.14066  Biso   1.000  N
  N16      1.0000 0.24018  0.69961  0.22831  Biso   1.000  N
  N17      1.0000 0.41341  0.01505  0.42056  Biso   1.000  N
  N18      1.0000 0.40958  0.87134  0.37564  Biso   1.000  N
  C61      1.0000 0.42202  0.70079  0.34820  Biso   1.000  C
  H39      1.0000 0.46270  0.70240  0.37390  Biso   1.000  H
  C62      1.0000 0.39680  0.61658  0.31400  Biso   1.000  C
  C63      1.0000 0.33652  0.61320  0.27530  Biso   1.000  C
  H40      1.0000 0.32000  0.55610  0.25300  Biso   1.000  H
  C64      1.0000 0.30135  0.69680  0.27064  Biso   1.000  C
  C65      1.0000 0.32486  0.78127  0.30474  Biso   1.000  C
  H41      1.0000 0.30040  0.83640  0.30180  Biso   1.000  H
  C66      1.0000 0.38470  0.78259  0.34289  Biso   1.000  C
  C67      1.0000 0.42998  0.46321  0.27791  Biso   1.000  C
  H42      1.0000 0.40040  0.46400  0.23880  Biso   1.000  H
  C68      1.0000 0.50638  0.42200  0.35740  Biso   1.000  C
  H43      1.0000 0.53980  0.38710  0.38360  Biso   1.000  H
  C69      1.0000 0.48407  0.50500  0.37172  Biso   1.000  C
  H44      1.0000 0.49900  0.53830  0.40860  Biso   1.000  H
  C70      1.0000 0.22051  0.66260  0.17137  Biso   1.000  C
  H45      1.0000 0.24430  0.62580  0.15620  Biso   1.000  H
  C71      1.0000 0.14570  0.73960  0.17859  Biso   1.000  C
  H46      1.0000 0.10710  0.76550  0.16880  Biso   1.000  H
  C72      1.0000 0.19254  0.74940  0.23256  Biso   1.000  C
  H47      1.0000 0.19240  0.78350  0.26620  Biso   1.000  H
  C73      1.0000 0.37815  0.94180  0.39161  Biso   1.000  C
  H48      1.0000 0.33690  0.93840  0.38310  Biso   1.000  H
  C74      1.0000 0.46997  0.99140  0.42383  Biso   1.000  C
  H49      1.0000 0.50440  0.03040  0.44230  Biso   1.000  H
  C75      1.0000 0.46848  0.90380  0.39635  Biso   1.000  C
  H50      1.0000 0.50090  0.87140  0.39220  Biso   1.000  H
  C76      1.0000 0.60910  0.23980  0.33796  Biso   1.000  C
  C77      1.0000 0.65362  0.17235  0.38386  Biso   1.000  C
  C78      1.0000 0.63448  0.09227  0.40855  Biso   1.000  C
  H51      1.0000 0.59350  0.07680  0.39460  Biso   1.000  H
  C79      1.0000 0.67641  0.03532  0.45408  Biso   1.000  C
  C80      1.0000 0.65640  0.96049  0.48838  Biso   1.000  C
  C81      1.0000 0.73798  0.05455  0.47187  Biso   1.000  C
  H52      1.0000 0.76600  0.01490  0.50140  Biso   1.000  H
  C82      1.0000 0.75836  0.13180  0.44628  Biso   1.000  C
  C83      1.0000 0.71494  0.19240  0.40368  Biso   1.000  C
  H53      1.0000 0.72760  0.24750  0.38830  Biso   1.000  H
  C84      1.0000 0.82352  0.15082  0.46390  Biso   1.000  C
  C85      1.0000 0.84728  0.24669  0.47789  Biso   1.000  C
  H54      1.0000 0.82150  0.29970  0.47570  Biso   1.000  H
  C86      1.0000 0.90810  0.26446  0.49494  Biso   1.000  C
  H55      1.0000 0.92300  0.32870  0.50550  Biso   1.000  H
  C87      1.0000 0.94771  0.18733  0.49666  Biso   1.000  C
  C88      1.0000 0.01257  0.20734  0.50958  Biso   1.000  C
  C89      1.0000 0.92392  0.09123  0.48254  Biso   1.000  C
  H56      1.0000 0.94940  0.03860  0.48330  Biso   1.000  H
  C90      1.0000 0.86328  0.07303  0.46747  Biso   1.000  C
  H57      1.0000 0.84870  0.00810  0.45960  Biso   1.000  H
  Co4      1.0000 0.11609  0.35265  0.54970  Biso   1.000  Co
  O19      1.0000 0.05647  0.70500  0.30876  Biso   1.000  O
  O20      1.0000 0.12465  0.82442  0.32959  Biso   1.000  O
  O21      1.0000 0.10406  0.42404  0.46476  Biso   1.000  O
  O22      1.0000 0.19159  0.43933  0.54209  Biso   1.000  O
  O23      1.0000 0.54042  0.64468  0.49212  Biso   1.000  O
  O24      1.0000 0.53497  0.78822  0.53593  Biso   1.000  O
  N19      1.0000 0.97293  0.89589  0.29870  Biso   1.000  N
  N20      1.0000 0.93452  0.03101  0.32090  Biso   1.000  N
  N21      1.0000 0.66405  0.18540  0.14066  Biso   1.000  N
  N22      1.0000 0.74018  0.19961  0.22831  Biso   1.000  N
  N23      1.0000 0.91341  0.51505  0.42056  Biso   1.000  N
  N24      1.0000 0.90958  0.37134  0.37564  Biso   1.000  N
  C91      1.0000 0.92202  0.20079  0.34820  Biso   1.000  C
  H58      1.0000 0.96270  0.20240  0.37390  Biso   1.000  H
  C92      1.0000 0.89680  0.11658  0.31400  Biso   1.000  C
  C93      1.0000 0.83652  0.11320  0.27530  Biso   1.000  C
  H59      1.0000 0.82000  0.05610  0.25300  Biso   1.000  H
  C94      1.0000 0.80135  0.19680  0.27064  Biso   1.000  C
  C95      1.0000 0.82486  0.28127  0.30474  Biso   1.000  C
  H60      1.0000 0.80040  0.33640  0.30180  Biso   1.000  H
  C96      1.0000 0.88470  0.28259  0.34289  Biso   1.000  C
  C97      1.0000 0.92998  0.96321  0.27791  Biso   1.000  C
  H61      1.0000 0.90040  0.96400  0.23880  Biso   1.000  H
  C98      1.0000 0.00638  0.92200  0.35740  Biso   1.000  C
  H62      1.0000 0.03980  0.88710  0.38360  Biso   1.000  H
  C99      1.0000 0.98407  0.00500  0.37172  Biso   1.000  C
  H63      1.0000 0.99900  0.03830  0.40860  Biso   1.000  H
  C100     1.0000 0.72051  0.16260  0.17137  Biso   1.000  C
  H64      1.0000 0.74430  0.12580  0.15620  Biso   1.000  H
  C101     1.0000 0.64570  0.23960  0.17859  Biso   1.000  C
  H65      1.0000 0.60710  0.26550  0.16880  Biso   1.000  H
  C102     1.0000 0.69254  0.24940  0.23256  Biso   1.000  C
  H66      1.0000 0.69240  0.28350  0.26620  Biso   1.000  H
  C103     1.0000 0.87815  0.44180  0.39161  Biso   1.000  C
  H67      1.0000 0.83690  0.43840  0.38310  Biso   1.000  H
  C104     1.0000 0.96997  0.49140  0.42383  Biso   1.000  C
  H68      1.0000 0.00440  0.53040  0.44230  Biso   1.000  H
  C105     1.0000 0.96848  0.40380  0.39635  Biso   1.000  C
  H69      1.0000 0.00090  0.37140  0.39220  Biso   1.000  H
  C106     1.0000 0.10910  0.73980  0.33796  Biso   1.000  C
  C107     1.0000 0.15362  0.67235  0.38386  Biso   1.000  C
  C108     1.0000 0.13448  0.59227  0.40855  Biso   1.000  C
  H70      1.0000 0.09350  0.57680  0.39460  Biso   1.000  H
  C109     1.0000 0.17641  0.53532  0.45408  Biso   1.000  C
  C110     1.0000 0.15640  0.46049  0.48838  Biso   1.000  C
  C111     1.0000 0.23798  0.55455  0.47187  Biso   1.000  C
  H71      1.0000 0.26600  0.51490  0.50140  Biso   1.000  H
  C112     1.0000 0.25836  0.63180  0.44628  Biso   1.000  C
  C113     1.0000 0.21494  0.69240  0.40368  Biso   1.000  C
  H72      1.0000 0.22760  0.74750  0.38830  Biso   1.000  H
  C114     1.0000 0.32352  0.65082  0.46390  Biso   1.000  C
  C115     1.0000 0.34728  0.74669  0.47789  Biso   1.000  C
  H73      1.0000 0.32150  0.79970  0.47570  Biso   1.000  H
  C116     1.0000 0.40810  0.76446  0.49494  Biso   1.000  C
  H74      1.0000 0.42300  0.82870  0.50550  Biso   1.000  H
  C117     1.0000 0.44771  0.68733  0.49666  Biso   1.000  C
  C118     1.0000 0.51257  0.70734  0.50958  Biso   1.000  C
  C119     1.0000 0.42392  0.59123  0.48254  Biso   1.000  C
  H75      1.0000 0.44940  0.53860  0.48330  Biso   1.000  H
  C120     1.0000 0.36328  0.57303  0.46747  Biso   1.000  C
  H76      1.0000 0.34870  0.50810  0.45960  Biso   1.000  H
  Co5      1.0000 0.61609  0.14735  0.04970  Biso   1.000  Co
  O25      1.0000 0.55647  0.79500  0.80876  Biso   1.000  O
  O26      1.0000 0.62465  0.67558  0.82959  Biso   1.000  O
  O27      1.0000 0.60406  0.07596  0.96476  Biso   1.000  O
  O28      1.0000 0.69159  0.06067  0.04209  Biso   1.000  O
  O29      1.0000 0.04042  0.85532  0.99212  Biso   1.000  O
  O30      1.0000 0.03497  0.71178  0.03593  Biso   1.000  O
  N25      1.0000 0.47293  0.60411  0.79870  Biso   1.000  N
  N26      1.0000 0.43452  0.46899  0.82090  Biso   1.000  N
  N27      1.0000 0.16405  0.31460  0.64066  Biso   1.000  N
  N28      1.0000 0.24018  0.30039  0.72831  Biso   1.000  N
  N29      1.0000 0.41341  0.98495  0.92056  Biso   1.000  N
  N30      1.0000 0.40958  0.12866  0.87564  Biso   1.000  N
  C121     1.0000 0.42202  0.29921  0.84820  Biso   1.000  C
  H77      1.0000 0.46270  0.29760  0.87390  Biso   1.000  H
  C122     1.0000 0.39680  0.38342  0.81400  Biso   1.000  C
  C123     1.0000 0.33652  0.38680  0.77530  Biso   1.000  C
  H78      1.0000 0.32000  0.44390  0.75300  Biso   1.000  H
  C124     1.0000 0.30135  0.30320  0.77064  Biso   1.000  C
  C125     1.0000 0.32486  0.21873  0.80474  Biso   1.000  C
  H79      1.0000 0.30040  0.16360  0.80180  Biso   1.000  H
  C126     1.0000 0.38470  0.21741  0.84289  Biso   1.000  C
  C127     1.0000 0.42998  0.53679  0.77791  Biso   1.000  C
  H80      1.0000 0.40040  0.53600  0.73880  Biso   1.000  H
  C128     1.0000 0.50638  0.57800  0.85740  Biso   1.000  C
  H81      1.0000 0.53980  0.61290  0.88360  Biso   1.000  H
  C129     1.0000 0.48407  0.49500  0.87172  Biso   1.000  C
  H82      1.0000 0.49900  0.46170  0.90860  Biso   1.000  H
  C130     1.0000 0.22051  0.33740  0.67137  Biso   1.000  C
  H83      1.0000 0.24430  0.37420  0.65620  Biso   1.000  H
  C131     1.0000 0.14570  0.26040  0.67859  Biso   1.000  C
  H84      1.0000 0.10710  0.23450  0.66880  Biso   1.000  H
  C132     1.0000 0.19254  0.25060  0.73256  Biso   1.000  C
  H85      1.0000 0.19240  0.21650  0.76620  Biso   1.000  H
  C133     1.0000 0.37815  0.05820  0.89161  Biso   1.000  C
  H86      1.0000 0.33690  0.06160  0.88310  Biso   1.000  H
  C134     1.0000 0.46997  0.00860  0.92383  Biso   1.000  C
  H87      1.0000 0.50440  0.96960  0.94230  Biso   1.000  H
  C135     1.0000 0.46848  0.09620  0.89635  Biso   1.000  C
  H88      1.0000 0.50090  0.12860  0.89220  Biso   1.000  H
  C136     1.0000 0.60910  0.76020  0.83796  Biso   1.000  C
  C137     1.0000 0.65362  0.82765  0.88386  Biso   1.000  C
  C138     1.0000 0.63448  0.90773  0.90855  Biso   1.000  C
  H89      1.0000 0.59350  0.92320  0.89460  Biso   1.000  H
  C139     1.0000 0.67641  0.96468  0.95408  Biso   1.000  C
  C140     1.0000 0.65640  0.03951  0.98838  Biso   1.000  C
  C141     1.0000 0.73798  0.94545  0.97187  Biso   1.000  C
  H90      1.0000 0.76600  0.98510  0.00140  Biso   1.000  H
  C142     1.0000 0.75836  0.86820  0.94628  Biso   1.000  C
  C143     1.0000 0.71494  0.80760  0.90368  Biso   1.000  C
  H91      1.0000 0.72760  0.75250  0.88830  Biso   1.000  H
  C144     1.0000 0.82352  0.84918  0.96390  Biso   1.000  C
  C145     1.0000 0.84728  0.75331  0.97789  Biso   1.000  C
  H92      1.0000 0.82150  0.70030  0.97570  Biso   1.000  H
  C146     1.0000 0.90810  0.73554  0.99494  Biso   1.000  C
  H93      1.0000 0.92300  0.67130  0.00550  Biso   1.000  H
  C147     1.0000 0.94771  0.81267  0.99666  Biso   1.000  C
  C148     1.0000 0.01257  0.79266  0.00958  Biso   1.000  C
  C149     1.0000 0.92392  0.90877  0.98254  Biso   1.000  C
  H94      1.0000 0.94940  0.96140  0.98330  Biso   1.000  H
  C150     1.0000 0.86328  0.92697  0.96747  Biso   1.000  C
  H95      1.0000 0.84870  0.99190  0.95960  Biso   1.000  H
  Co6      1.0000 0.11609  0.64735  0.04970  Biso   1.000  Co
  O31      1.0000 0.05647  0.29500  0.80876  Biso   1.000  O
  O32      1.0000 0.12465  0.17558  0.82959  Biso   1.000  O
  O33      1.0000 0.10406  0.57596  0.96476  Biso   1.000  O
  O34      1.0000 0.19159  0.56067  0.04209  Biso   1.000  O
  O35      1.0000 0.54042  0.35532  0.99212  Biso   1.000  O
  O36      1.0000 0.53497  0.21178  0.03593  Biso   1.000  O
  N31      1.0000 0.97293  0.10411  0.79870  Biso   1.000  N
  N32      1.0000 0.93452  0.96899  0.82090  Biso   1.000  N
  N33      1.0000 0.66405  0.81460  0.64066  Biso   1.000  N
  N34      1.0000 0.74018  0.80039  0.72831  Biso   1.000  N
  N35      1.0000 0.91341  0.48495  0.92056  Biso   1.000  N
  N36      1.0000 0.90958  0.62866  0.87564  Biso   1.000  N
  C151     1.0000 0.92202  0.79921  0.84820  Biso   1.000  C
  H96      1.0000 0.96270  0.79760  0.87390  Biso   1.000  H
  C152     1.0000 0.89680  0.88342  0.81400  Biso   1.000  C
  C153     1.0000 0.83652  0.88680  0.77530  Biso   1.000  C
  H97      1.0000 0.82000  0.94390  0.75300  Biso   1.000  H
  C154     1.0000 0.80135  0.80320  0.77064  Biso   1.000  C
  C155     1.0000 0.82486  0.71873  0.80474  Biso   1.000  C
  H98      1.0000 0.80040  0.66360  0.80180  Biso   1.000  H
  C156     1.0000 0.88470  0.71741  0.84289  Biso   1.000  C
  C157     1.0000 0.92998  0.03679  0.77791  Biso   1.000  C
  H99      1.0000 0.90040  0.03600  0.73880  Biso   1.000  H
  C158     1.0000 0.00638  0.07800  0.85740  Biso   1.000  C
  H100     1.0000 0.03980  0.11290  0.88360  Biso   1.000  H
  C159     1.0000 0.98407  0.99500  0.87172  Biso   1.000  C
  H101     1.0000 0.99900  0.96170  0.90860  Biso   1.000  H
  C160     1.0000 0.72051  0.83740  0.67137  Biso   1.000  C
  H102     1.0000 0.74430  0.87420  0.65620  Biso   1.000  H
  C161     1.0000 0.64570  0.76040  0.67859  Biso   1.000  C
  H103     1.0000 0.60710  0.73450  0.66880  Biso   1.000  H
  C162     1.0000 0.69254  0.75060  0.73256  Biso   1.000  C
  H104     1.0000 0.69240  0.71650  0.76620  Biso   1.000  H
  C163     1.0000 0.87815  0.55820  0.89161  Biso   1.000  C
  H105     1.0000 0.83690  0.56160  0.88310  Biso   1.000  H
  C164     1.0000 0.96997  0.50860  0.92383  Biso   1.000  C
  H106     1.0000 0.00440  0.46960  0.94230  Biso   1.000  H
  C165     1.0000 0.96848  0.59620  0.89635  Biso   1.000  C
  H107     1.0000 0.00090  0.62860  0.89220  Biso   1.000  H
  C166     1.0000 0.10910  0.26020  0.83796  Biso   1.000  C
  C167     1.0000 0.15362  0.32765  0.88386  Biso   1.000  C
  C168     1.0000 0.13448  0.40773  0.90855  Biso   1.000  C
  H108     1.0000 0.09350  0.42320  0.89460  Biso   1.000  H
  C169     1.0000 0.17641  0.46468  0.95408  Biso   1.000  C
  C170     1.0000 0.15640  0.53951  0.98838  Biso   1.000  C
  C171     1.0000 0.23798  0.44545  0.97187  Biso   1.000  C
  H109     1.0000 0.26600  0.48510  0.00140  Biso   1.000  H
  C172     1.0000 0.25836  0.36820  0.94628  Biso   1.000  C
  C173     1.0000 0.21494  0.30760  0.90368  Biso   1.000  C
  H110     1.0000 0.22760  0.25250  0.88830  Biso   1.000  H
  C174     1.0000 0.32352  0.34918  0.96390  Biso   1.000  C
  C175     1.0000 0.34728  0.25331  0.97789  Biso   1.000  C
  H111     1.0000 0.32150  0.20030  0.97570  Biso   1.000  H
  C176     1.0000 0.40810  0.23554  0.99494  Biso   1.000  C
  H112     1.0000 0.42300  0.17130  0.00550  Biso   1.000  H
  C177     1.0000 0.44771  0.31267  0.99666  Biso   1.000  C
  C178     1.0000 0.51257  0.29266  0.00958  Biso   1.000  C
  C179     1.0000 0.42392  0.40877  0.98254  Biso   1.000  C
  H113     1.0000 0.44940  0.46140  0.98330  Biso   1.000  H
  C180     1.0000 0.36328  0.42697  0.96747  Biso   1.000  C
  H114     1.0000 0.34870  0.49190  0.95960  Biso   1.000  H
  Co7      1.0000 0.38391  0.14735  0.45030  Biso   1.000  Co
  O37      1.0000 0.44353  0.79500  0.69124  Biso   1.000  O
  O38      1.0000 0.37535  0.67558  0.67041  Biso   1.000  O
  O39      1.0000 0.39594  0.07596  0.53524  Biso   1.000  O
  O40      1.0000 0.30841  0.06067  0.45791  Biso   1.000  O
  O41      1.0000 0.95958  0.85532  0.50788  Biso   1.000  O
  O42      1.0000 0.96503  0.71178  0.46407  Biso   1.000  O
  N37      1.0000 0.52707  0.60411  0.70130  Biso   1.000  N
  N38      1.0000 0.56548  0.46899  0.67910  Biso   1.000  N
  N39      1.0000 0.83595  0.31460  0.85934  Biso   1.000  N
  N40      1.0000 0.75982  0.30039  0.77169  Biso   1.000  N
  N41      1.0000 0.58659  0.98495  0.57944  Biso   1.000  N
  N42      1.0000 0.59042  0.12866  0.62436  Biso   1.000  N
  C181     1.0000 0.57798  0.29921  0.65180  Biso   1.000  C
  H115     1.0000 0.53730  0.29760  0.62610  Biso   1.000  H
  C182     1.0000 0.60320  0.38342  0.68600  Biso   1.000  C
  C183     1.0000 0.66348  0.38680  0.72470  Biso   1.000  C
  H116     1.0000 0.68000  0.44390  0.74700  Biso   1.000  H
  C184     1.0000 0.69865  0.30320  0.72936  Biso   1.000  C
  C185     1.0000 0.67514  0.21873  0.69526  Biso   1.000  C
  H117     1.0000 0.69960  0.16360  0.69820  Biso   1.000  H
  C186     1.0000 0.61530  0.21741  0.65711  Biso   1.000  C
  C187     1.0000 0.57002  0.53679  0.72209  Biso   1.000  C
  H118     1.0000 0.59960  0.53600  0.76120  Biso   1.000  H
  C188     1.0000 0.49362  0.57800  0.64260  Biso   1.000  C
  H119     1.0000 0.46020  0.61290  0.61640  Biso   1.000  H
  C189     1.0000 0.51593  0.49500  0.62828  Biso   1.000  C
  H120     1.0000 0.50100  0.46170  0.59140  Biso   1.000  H
  C190     1.0000 0.77949  0.33740  0.82863  Biso   1.000  C
  H121     1.0000 0.75570  0.37420  0.84380  Biso   1.000  H
  C191     1.0000 0.85430  0.26040  0.82141  Biso   1.000  C
  H122     1.0000 0.89290  0.23450  0.83120  Biso   1.000  H
  C192     1.0000 0.80746  0.25060  0.76744  Biso   1.000  C
  H123     1.0000 0.80760  0.21650  0.73380  Biso   1.000  H
  C193     1.0000 0.62185  0.05820  0.60839  Biso   1.000  C
  H124     1.0000 0.66310  0.06160  0.61690  Biso   1.000  H
  C194     1.0000 0.53003  0.00860  0.57617  Biso   1.000  C
  H125     1.0000 0.49560  0.96960  0.55770  Biso   1.000  H
  C195     1.0000 0.53152  0.09620  0.60365  Biso   1.000  C
  H126     1.0000 0.49910  0.12860  0.60780  Biso   1.000  H
  C196     1.0000 0.39090  0.76020  0.66204  Biso   1.000  C
  C197     1.0000 0.34638  0.82765  0.61614  Biso   1.000  C
  C198     1.0000 0.36552  0.90773  0.59145  Biso   1.000  C
  H127     1.0000 0.40650  0.92320  0.60540  Biso   1.000  H
  C199     1.0000 0.32359  0.96468  0.54592  Biso   1.000  C
  C200     1.0000 0.34360  0.03951  0.51162  Biso   1.000  C
  C201     1.0000 0.26202  0.94545  0.52813  Biso   1.000  C
  H128     1.0000 0.23400  0.98510  0.49860  Biso   1.000  H
  C202     1.0000 0.24164  0.86820  0.55372  Biso   1.000  C
  C203     1.0000 0.28506  0.80760  0.59632  Biso   1.000  C
  H129     1.0000 0.27240  0.75250  0.61170  Biso   1.000  H
  C204     1.0000 0.17648  0.84918  0.53610  Biso   1.000  C
  C205     1.0000 0.15272  0.75331  0.52211  Biso   1.000  C
  H130     1.0000 0.17850  0.70030  0.52430  Biso   1.000  H
  C206     1.0000 0.09190  0.73554  0.50506  Biso   1.000  C
  H131     1.0000 0.07700  0.67130  0.49450  Biso   1.000  H
  C207     1.0000 0.05229  0.81267  0.50334  Biso   1.000  C
  C208     1.0000 0.98743  0.79266  0.49042  Biso   1.000  C
  C209     1.0000 0.07608  0.90877  0.51746  Biso   1.000  C
  H132     1.0000 0.05060  0.96140  0.51670  Biso   1.000  H
  C210     1.0000 0.13672  0.92697  0.53253  Biso   1.000  C
  H133     1.0000 0.15130  0.99190  0.54040  Biso   1.000  H
  Co8      1.0000 0.88391  0.64735  0.45030  Biso   1.000  Co
  O43      1.0000 0.94353  0.29500  0.69124  Biso   1.000  O
  O44      1.0000 0.87535  0.17558  0.67041  Biso   1.000  O
  O45      1.0000 0.89594  0.57596  0.53524  Biso   1.000  O
  O46      1.0000 0.80841  0.56067  0.45791  Biso   1.000  O
  O47      1.0000 0.45958  0.35532  0.50788  Biso   1.000  O
  O48      1.0000 0.46503  0.21178  0.46407  Biso   1.000  O
  N43      1.0000 0.02707  0.10411  0.70130  Biso   1.000  N
  N44      1.0000 0.06548  0.96899  0.67910  Biso   1.000  N
  N45      1.0000 0.33595  0.81460  0.85934  Biso   1.000  N
  N46      1.0000 0.25982  0.80039  0.77169  Biso   1.000  N
  N47      1.0000 0.08659  0.48495  0.57944  Biso   1.000  N
  N48      1.0000 0.09042  0.62866  0.62436  Biso   1.000  N
  C211     1.0000 0.07798  0.79921  0.65180  Biso   1.000  C
  H134     1.0000 0.03730  0.79760  0.62610  Biso   1.000  H
  C212     1.0000 0.10320  0.88342  0.68600  Biso   1.000  C
  C213     1.0000 0.16348  0.88680  0.72470  Biso   1.000  C
  H135     1.0000 0.18000  0.94390  0.74700  Biso   1.000  H
  C214     1.0000 0.19865  0.80320  0.72936  Biso   1.000  C
  C215     1.0000 0.17514  0.71873  0.69526  Biso   1.000  C
  H136     1.0000 0.19960  0.66360  0.69820  Biso   1.000  H
  C216     1.0000 0.11530  0.71741  0.65711  Biso   1.000  C
  C217     1.0000 0.07002  0.03679  0.72209  Biso   1.000  C
  H137     1.0000 0.09960  0.03600  0.76120  Biso   1.000  H
  C218     1.0000 0.99362  0.07800  0.64260  Biso   1.000  C
  H138     1.0000 0.96020  0.11290  0.61640  Biso   1.000  H
  C219     1.0000 0.01593  0.99500  0.62828  Biso   1.000  C
  H139     1.0000 0.00100  0.96170  0.59140  Biso   1.000  H
  C220     1.0000 0.27949  0.83740  0.82863  Biso   1.000  C
  H140     1.0000 0.25570  0.87420  0.84380  Biso   1.000  H
  C221     1.0000 0.35430  0.76040  0.82141  Biso   1.000  C
  H141     1.0000 0.39290  0.73450  0.83120  Biso   1.000  H
  C222     1.0000 0.30746  0.75060  0.76744  Biso   1.000  C
  H142     1.0000 0.30760  0.71650  0.73380  Biso   1.000  H
  C223     1.0000 0.12185  0.55820  0.60839  Biso   1.000  C
  H143     1.0000 0.16310  0.56160  0.61690  Biso   1.000  H
  C224     1.0000 0.03003  0.50860  0.57617  Biso   1.000  C
  H144     1.0000 0.99560  0.46960  0.55770  Biso   1.000  H
  C225     1.0000 0.03152  0.59620  0.60365  Biso   1.000  C
  H145     1.0000 0.99910  0.62860  0.60780  Biso   1.000  H
  C226     1.0000 0.89090  0.26020  0.66204  Biso   1.000  C
  C227     1.0000 0.84638  0.32765  0.61614  Biso   1.000  C
  C228     1.0000 0.86552  0.40773  0.59145  Biso   1.000  C
  H146     1.0000 0.90650  0.42320  0.60540  Biso   1.000  H
  C229     1.0000 0.82359  0.46468  0.54592  Biso   1.000  C
  C230     1.0000 0.84360  0.53951  0.51162  Biso   1.000  C
  C231     1.0000 0.76202  0.44545  0.52813  Biso   1.000  C
  H147     1.0000 0.73400  0.48510  0.49860  Biso   1.000  H
  C232     1.0000 0.74164  0.36820  0.55372  Biso   1.000  C
  C233     1.0000 0.78506  0.30760  0.59632  Biso   1.000  C
  H148     1.0000 0.77240  0.25250  0.61170  Biso   1.000  H
  C234     1.0000 0.67648  0.34918  0.53610  Biso   1.000  C
  C235     1.0000 0.65272  0.25331  0.52211  Biso   1.000  C
  H149     1.0000 0.67850  0.20030  0.52430  Biso   1.000  H
  C236     1.0000 0.59190  0.23554  0.50506  Biso   1.000  C
  H150     1.0000 0.57700  0.17130  0.49450  Biso   1.000  H
  C237     1.0000 0.55229  0.31267  0.50334  Biso   1.000  C
  C238     1.0000 0.48743  0.29266  0.49042  Biso   1.000  C
  C239     1.0000 0.57608  0.40877  0.51746  Biso   1.000  C
  H151     1.0000 0.55060  0.46140  0.51670  Biso   1.000  H
  C240     1.0000 0.63672  0.42697  0.53253  Biso   1.000  C
  H152     1.0000 0.65130  0.49190  0.54040  Biso   1.000  H
  Co9      1.0000 0.50000  0.29648  0.25000  Biso   1.000  Co
  Co10     1.0000 0.00000  0.79648  0.25000  Biso   1.000  Co
  Co11     1.0000 0.50000  0.70352  0.75000  Biso   1.000  Co
  Co12     1.0000 0.00000  0.20352  0.75000  Biso   1.000  Co
