data_image0
_cell_length_a       23.9792
_cell_length_b       13.3721
_cell_length_c       24.2227
_cell_angle_alpha    90
_cell_angle_beta     112.706
_cell_angle_gamma    90

_symmetry_space_group_name_H-M    "P 1"
_symmetry_int_tables_number       1

loop_
  _symmetry_equiv_pos_as_xyz
  'x, y, z'

loop_
  _atom_site_label
  _atom_site_occupancy
  _atom_site_fract_x
  _atom_site_fract_y
  _atom_site_fract_z
  _atom_site_thermal_displace_type
  _atom_site_B_iso_or_equiv
  _atom_site_type_symbol
  Co1      1.0000 0.38388  0.64867  0.45159  Biso   1.000  Co
  N1       1.0000 0.47050  0.89662  0.29765  Biso   1.000  N
  N2       1.0000 0.43073  0.03028  0.32051  Biso   1.000  N
  N3       1.0000 0.41212  0.51671  0.42087  Biso   1.000  N
  N4       1.0000 0.40792  0.37280  0.37504  Biso   1.000  N
  N5       1.0000 0.16367  0.19137  0.13697  Biso   1.000  N
  N6       1.0000 0.23904  0.20641  0.22457  Biso   1.000  N
  O1       1.0000 0.44414  0.70887  0.19066  Biso   1.000  O
  O2       1.0000 0.37583  0.82878  0.16850  Biso   1.000  O
  O3       1.0000 0.39666  0.42418  0.03586  Biso   1.000  O
  O4       1.0000 0.30849  0.43519  0.96120  Biso   1.000  O
  O5       1.0000 0.96518  0.78801  0.96439  Biso   1.000  O
  O6       1.0000 0.96022  0.64231  0.00699  Biso   1.000  O
  C1       1.0000 0.33422  0.11590  0.27375  Biso   1.000  C
  H1       1.0000 0.31770  0.05910  0.25120  Biso   1.000  H
  C2       1.0000 0.39372  0.11755  0.31365  Biso   1.000  C
  C3       1.0000 0.41920  0.20081  0.34805  Biso   1.000  C
  H2       1.0000 0.45950  0.20060  0.37450  Biso   1.000  H
  C4       1.0000 0.38330  0.28437  0.34217  Biso   1.000  C
  C5       1.0000 0.32345  0.28562  0.30232  Biso   1.000  C
  H3       1.0000 0.29970  0.34220  0.29870  Biso   1.000  H
  C6       1.0000 0.29968  0.20209  0.26823  Biso   1.000  C
  C7       1.0000 0.42866  0.96595  0.27700  Biso   1.000  C
  H4       1.0000 0.40120  0.97000  0.23750  Biso   1.000  H
  C8       1.0000 0.50085  0.91780  0.35732  Biso   1.000  C
  H5       1.0000 0.53310  0.88100  0.38360  Biso   1.000  H
  C9       1.0000 0.47693  0.99970  0.37197  Biso   1.000  C
  H6       1.0000 0.48920  0.02950  0.40950  Biso   1.000  H
  C10      1.0000 0.37708  0.44363  0.39144  Biso   1.000  C
  H7       1.0000 0.33580  0.44070  0.38280  Biso   1.000  H
  C11      1.0000 0.46883  0.49191  0.42383  Biso   1.000  C
  H8       1.0000 0.50330  0.53060  0.44220  Biso   1.000  H
  C12      1.0000 0.46742  0.40390  0.39652  Biso   1.000  C
  H9       1.0000 0.49990  0.37080  0.39280  Biso   1.000  H
  C13      1.0000 0.22033  0.16775  0.16938  Biso   1.000  C
  H10      1.0000 0.24440  0.12890  0.15560  Biso   1.000  H
  C14      1.0000 0.14554  0.24870  0.17434  Biso   1.000  C
  H11      1.0000 0.10730  0.27650  0.16390  Biso   1.000  H
  C15      1.0000 0.19116  0.25880  0.22820  Biso   1.000  C
  H12      1.0000 0.19040  0.29400  0.26110  Biso   1.000  H
  C16      1.0000 0.39153  0.74319  0.16138  Biso   1.000  C
  C17      1.0000 0.34723  0.67476  0.11603  Biso   1.000  C
  C18      1.0000 0.36636  0.59334  0.09194  Biso   1.000  C
  H13      1.0000 0.40720  0.57720  0.10590  Biso   1.000  H
  C19      1.0000 0.32454  0.53617  0.04707  Biso   1.000  C
  C20      1.0000 0.26290  0.55638  0.02923  Biso   1.000  C
  H14      1.0000 0.23490  0.51700  0.99990  Biso   1.000  H
  C21      1.0000 0.24269  0.63437  0.05466  Biso   1.000  C
  C22      1.0000 0.28549  0.69508  0.09675  Biso   1.000  C
  H15      1.0000 0.27270  0.75010  0.11230  Biso   1.000  H
  C23      1.0000 0.34461  0.45956  0.01356  Biso   1.000  C
  C24      1.0000 0.17700  0.65291  0.03624  Biso   1.000  C
  C25      1.0000 0.15367  0.74961  0.02439  Biso   1.000  C
  H16      1.0000 0.17960  0.80340  0.02850  Biso   1.000  H
  C26      1.0000 0.09241  0.76618  0.00654  Biso   1.000  C
  H17      1.0000 0.07720  0.83060  0.99660  Biso   1.000  H
  C27      1.0000 0.05325  0.68785  0.00331  Biso   1.000  C
  C28      1.0000 0.07662  0.59157  0.01530  Biso   1.000  C
  H18      1.0000 0.05100  0.53820  0.01300  Biso   1.000  H
  C29      1.0000 0.13748  0.57426  0.03058  Biso   1.000  C
  H19      1.0000 0.15220  0.50910  0.03720  Biso   1.000  H
  C30      1.0000 0.98760  0.70702  0.99016  Biso   1.000  C
  Co2      1.0000 0.88388  0.14867  0.45159  Biso   1.000  Co
  N7       1.0000 0.97050  0.39662  0.29765  Biso   1.000  N
  N8       1.0000 0.93073  0.53028  0.32051  Biso   1.000  N
  N9       1.0000 0.91212  0.01671  0.42087  Biso   1.000  N
  N10      1.0000 0.90792  0.87280  0.37504  Biso   1.000  N
  N11      1.0000 0.66367  0.69137  0.13697  Biso   1.000  N
  N12      1.0000 0.73904  0.70641  0.22457  Biso   1.000  N
  O7       1.0000 0.94414  0.20887  0.19066  Biso   1.000  O
  O8       1.0000 0.87583  0.32878  0.16850  Biso   1.000  O
  O9       1.0000 0.89666  0.92418  0.03586  Biso   1.000  O
  O10      1.0000 0.80849  0.93519  0.96120  Biso   1.000  O
  O11      1.0000 0.46518  0.28801  0.96439  Biso   1.000  O
  O12      1.0000 0.46022  0.14231  0.00699  Biso   1.000  O
  C31      1.0000 0.83422  0.61590  0.27375  Biso   1.000  C
  H20      1.0000 0.81770  0.55910  0.25120  Biso   1.000  H
  C32      1.0000 0.89372  0.61755  0.31365  Biso   1.000  C
  C33      1.0000 0.91920  0.70081  0.34805  Biso   1.000  C
  H21      1.0000 0.95950  0.70060  0.37450  Biso   1.000  H
  C34      1.0000 0.88330  0.78437  0.34217  Biso   1.000  C
  C35      1.0000 0.82345  0.78562  0.30232  Biso   1.000  C
  H22      1.0000 0.79970  0.84220  0.29870  Biso   1.000  H
  C36      1.0000 0.79968  0.70209  0.26823  Biso   1.000  C
  C37      1.0000 0.92866  0.46595  0.27700  Biso   1.000  C
  H23      1.0000 0.90120  0.47000  0.23750  Biso   1.000  H
  C38      1.0000 0.00085  0.41780  0.35732  Biso   1.000  C
  H24      1.0000 0.03310  0.38100  0.38360  Biso   1.000  H
  C39      1.0000 0.97693  0.49970  0.37197  Biso   1.000  C
  H25      1.0000 0.98920  0.52950  0.40950  Biso   1.000  H
  C40      1.0000 0.87708  0.94363  0.39144  Biso   1.000  C
  H26      1.0000 0.83580  0.94070  0.38280  Biso   1.000  H
  C41      1.0000 0.96883  0.99191  0.42383  Biso   1.000  C
  H27      1.0000 0.00330  0.03060  0.44220  Biso   1.000  H
  C42      1.0000 0.96742  0.90390  0.39652  Biso   1.000  C
  H28      1.0000 0.99990  0.87080  0.39280  Biso   1.000  H
  C43      1.0000 0.72033  0.66775  0.16938  Biso   1.000  C
  H29      1.0000 0.74440  0.62890  0.15560  Biso   1.000  H
  C44      1.0000 0.64554  0.74870  0.17434  Biso   1.000  C
  H30      1.0000 0.60730  0.77650  0.16390  Biso   1.000  H
  C45      1.0000 0.69116  0.75880  0.22820  Biso   1.000  C
  H31      1.0000 0.69040  0.79400  0.26110  Biso   1.000  H
  C46      1.0000 0.89153  0.24319  0.16138  Biso   1.000  C
  C47      1.0000 0.84723  0.17476  0.11603  Biso   1.000  C
  C48      1.0000 0.86636  0.09334  0.09194  Biso   1.000  C
  H32      1.0000 0.90720  0.07720  0.10590  Biso   1.000  H
  C49      1.0000 0.82454  0.03617  0.04707  Biso   1.000  C
  C50      1.0000 0.76290  0.05638  0.02923  Biso   1.000  C
  H33      1.0000 0.73490  0.01700  0.99990  Biso   1.000  H
  C51      1.0000 0.74269  0.13437  0.05466  Biso   1.000  C
  C52      1.0000 0.78549  0.19508  0.09675  Biso   1.000  C
  H34      1.0000 0.77270  0.25010  0.11230  Biso   1.000  H
  C53      1.0000 0.84461  0.95956  0.01356  Biso   1.000  C
  C54      1.0000 0.67700  0.15291  0.03624  Biso   1.000  C
  C55      1.0000 0.65367  0.24961  0.02439  Biso   1.000  C
  H35      1.0000 0.67960  0.30340  0.02850  Biso   1.000  H
  C56      1.0000 0.59241  0.26618  0.00654  Biso   1.000  C
  H36      1.0000 0.57720  0.33060  0.99660  Biso   1.000  H
  C57      1.0000 0.55325  0.18785  0.00331  Biso   1.000  C
  C58      1.0000 0.57662  0.09157  0.01530  Biso   1.000  C
  H37      1.0000 0.55100  0.03820  0.01300  Biso   1.000  H
  C59      1.0000 0.63748  0.07426  0.03058  Biso   1.000  C
  H38      1.0000 0.65220  0.00910  0.03720  Biso   1.000  H
  C60      1.0000 0.48760  0.20702  0.99016  Biso   1.000  C
  Co3      1.0000 0.61612  0.64867  0.04841  Biso   1.000  Co
  N13      1.0000 0.52950  0.89662  0.20235  Biso   1.000  N
  N14      1.0000 0.56927  0.03028  0.17949  Biso   1.000  N
  N15      1.0000 0.58788  0.51671  0.07913  Biso   1.000  N
  N16      1.0000 0.59208  0.37280  0.12496  Biso   1.000  N
  N17      1.0000 0.83633  0.19137  0.36303  Biso   1.000  N
  N18      1.0000 0.76096  0.20641  0.27543  Biso   1.000  N
  O13      1.0000 0.55586  0.70887  0.30934  Biso   1.000  O
  O14      1.0000 0.62417  0.82878  0.33150  Biso   1.000  O
  O15      1.0000 0.60334  0.42418  0.46414  Biso   1.000  O
  O16      1.0000 0.69151  0.43519  0.53880  Biso   1.000  O
  O17      1.0000 0.03482  0.78801  0.53561  Biso   1.000  O
  O18      1.0000 0.03978  0.64231  0.49301  Biso   1.000  O
  C61      1.0000 0.66578  0.11590  0.22625  Biso   1.000  C
  H39      1.0000 0.68230  0.05910  0.24880  Biso   1.000  H
  C62      1.0000 0.60628  0.11755  0.18635  Biso   1.000  C
  C63      1.0000 0.58080  0.20081  0.15195  Biso   1.000  C
  H40      1.0000 0.54050  0.20060  0.12550  Biso   1.000  H
  C64      1.0000 0.61670  0.28437  0.15783  Biso   1.000  C
  C65      1.0000 0.67655  0.28562  0.19768  Biso   1.000  C
  H41      1.0000 0.70030  0.34220  0.20130  Biso   1.000  H
  C66      1.0000 0.70032  0.20209  0.23177  Biso   1.000  C
  C67      1.0000 0.57134  0.96595  0.22300  Biso   1.000  C
  H42      1.0000 0.59880  0.97000  0.26250  Biso   1.000  H
  C68      1.0000 0.49915  0.91780  0.14268  Biso   1.000  C
  H43      1.0000 0.46690  0.88100  0.11640  Biso   1.000  H
  C69      1.0000 0.52307  0.99970  0.12803  Biso   1.000  C
  H44      1.0000 0.51080  0.02950  0.09050  Biso   1.000  H
  C70      1.0000 0.62292  0.44363  0.10856  Biso   1.000  C
  H45      1.0000 0.66420  0.44070  0.11720  Biso   1.000  H
  C71      1.0000 0.53117  0.49191  0.07617  Biso   1.000  C
  H46      1.0000 0.49670  0.53060  0.05780  Biso   1.000  H
  C72      1.0000 0.53258  0.40390  0.10348  Biso   1.000  C
  H47      1.0000 0.50010  0.37080  0.10720  Biso   1.000  H
  C73      1.0000 0.77967  0.16775  0.33062  Biso   1.000  C
  H48      1.0000 0.75560  0.12890  0.34440  Biso   1.000  H
  C74      1.0000 0.85446  0.24870  0.32566  Biso   1.000  C
  H49      1.0000 0.89270  0.27650  0.33610  Biso   1.000  H
  C75      1.0000 0.80884  0.25880  0.27180  Biso   1.000  C
  H50      1.0000 0.80960  0.29400  0.23890  Biso   1.000  H
  C76      1.0000 0.60847  0.74319  0.33862  Biso   1.000  C
  C77      1.0000 0.65277  0.67476  0.38397  Biso   1.000  C
  C78      1.0000 0.63364  0.59334  0.40806  Biso   1.000  C
  H51      1.0000 0.59280  0.57720  0.39410  Biso   1.000  H
  C79      1.0000 0.67546  0.53617  0.45293  Biso   1.000  C
  C80      1.0000 0.73710  0.55638  0.47077  Biso   1.000  C
  H52      1.0000 0.76510  0.51700  0.50010  Biso   1.000  H
  C81      1.0000 0.75731  0.63437  0.44534  Biso   1.000  C
  C82      1.0000 0.71451  0.69508  0.40325  Biso   1.000  C
  H53      1.0000 0.72730  0.75010  0.38770  Biso   1.000  H
  C83      1.0000 0.65539  0.45956  0.48644  Biso   1.000  C
  C84      1.0000 0.82300  0.65291  0.46376  Biso   1.000  C
  C85      1.0000 0.84633  0.74961  0.47561  Biso   1.000  C
  H54      1.0000 0.82040  0.80340  0.47150  Biso   1.000  H
  C86      1.0000 0.90759  0.76618  0.49346  Biso   1.000  C
  H55      1.0000 0.92280  0.83060  0.50340  Biso   1.000  H
  C87      1.0000 0.94675  0.68785  0.49669  Biso   1.000  C
  C88      1.0000 0.92338  0.59157  0.48470  Biso   1.000  C
  H56      1.0000 0.94900  0.53820  0.48700  Biso   1.000  H
  C89      1.0000 0.86252  0.57426  0.46942  Biso   1.000  C
  H57      1.0000 0.84780  0.50910  0.46280  Biso   1.000  H
  C90      1.0000 0.01240  0.70702  0.50984  Biso   1.000  C
  Co4      1.0000 0.11612  0.14867  0.04841  Biso   1.000  Co
  N19      1.0000 0.02950  0.39662  0.20235  Biso   1.000  N
  N20      1.0000 0.06927  0.53028  0.17949  Biso   1.000  N
  N21      1.0000 0.08788  0.01671  0.07913  Biso   1.000  N
  N22      1.0000 0.09208  0.87280  0.12496  Biso   1.000  N
  N23      1.0000 0.33633  0.69137  0.36303  Biso   1.000  N
  N24      1.0000 0.26096  0.70641  0.27543  Biso   1.000  N
  O19      1.0000 0.05586  0.20887  0.30934  Biso   1.000  O
  O20      1.0000 0.12417  0.32878  0.33150  Biso   1.000  O
  O21      1.0000 0.10334  0.92418  0.46414  Biso   1.000  O
  O22      1.0000 0.19151  0.93519  0.53880  Biso   1.000  O
  O23      1.0000 0.53482  0.28801  0.53561  Biso   1.000  O
  O24      1.0000 0.53978  0.14231  0.49301  Biso   1.000  O
  C91      1.0000 0.16578  0.61590  0.22625  Biso   1.000  C
  H58      1.0000 0.18230  0.55910  0.24880  Biso   1.000  H
  C92      1.0000 0.10628  0.61755  0.18635  Biso   1.000  C
  C93      1.0000 0.08080  0.70081  0.15195  Biso   1.000  C
  H59      1.0000 0.04050  0.70060  0.12550  Biso   1.000  H
  C94      1.0000 0.11670  0.78437  0.15783  Biso   1.000  C
  C95      1.0000 0.17655  0.78562  0.19768  Biso   1.000  C
  H60      1.0000 0.20030  0.84220  0.20130  Biso   1.000  H
  C96      1.0000 0.20032  0.70209  0.23177  Biso   1.000  C
  C97      1.0000 0.07134  0.46595  0.22300  Biso   1.000  C
  H61      1.0000 0.09880  0.47000  0.26250  Biso   1.000  H
  C98      1.0000 0.99915  0.41780  0.14268  Biso   1.000  C
  H62      1.0000 0.96690  0.38100  0.11640  Biso   1.000  H
  C99      1.0000 0.02307  0.49970  0.12803  Biso   1.000  C
  H63      1.0000 0.01080  0.52950  0.09050  Biso   1.000  H
  C100     1.0000 0.12292  0.94363  0.10856  Biso   1.000  C
  H64      1.0000 0.16420  0.94070  0.11720  Biso   1.000  H
  C101     1.0000 0.03117  0.99191  0.07617  Biso   1.000  C
  H65      1.0000 0.99670  0.03060  0.05780  Biso   1.000  H
  C102     1.0000 0.03258  0.90390  0.10348  Biso   1.000  C
  H66      1.0000 0.00010  0.87080  0.10720  Biso   1.000  H
  C103     1.0000 0.27967  0.66775  0.33062  Biso   1.000  C
  H67      1.0000 0.25560  0.62890  0.34440  Biso   1.000  H
  C104     1.0000 0.35446  0.74870  0.32566  Biso   1.000  C
  H68      1.0000 0.39270  0.77650  0.33610  Biso   1.000  H
  C105     1.0000 0.30884  0.75880  0.27180  Biso   1.000  C
  H69      1.0000 0.30960  0.79400  0.23890  Biso   1.000  H
  C106     1.0000 0.10847  0.24319  0.33862  Biso   1.000  C
  C107     1.0000 0.15277  0.17476  0.38397  Biso   1.000  C
  C108     1.0000 0.13364  0.09334  0.40806  Biso   1.000  C
  H70      1.0000 0.09280  0.07720  0.39410  Biso   1.000  H
  C109     1.0000 0.17546  0.03617  0.45293  Biso   1.000  C
  C110     1.0000 0.23710  0.05638  0.47077  Biso   1.000  C
  H71      1.0000 0.26510  0.01700  0.50010  Biso   1.000  H
  C111     1.0000 0.25731  0.13437  0.44534  Biso   1.000  C
  C112     1.0000 0.21451  0.19508  0.40325  Biso   1.000  C
  H72      1.0000 0.22730  0.25010  0.38770  Biso   1.000  H
  C113     1.0000 0.15539  0.95956  0.48644  Biso   1.000  C
  C114     1.0000 0.32300  0.15291  0.46376  Biso   1.000  C
  C115     1.0000 0.34633  0.24961  0.47561  Biso   1.000  C
  H73      1.0000 0.32040  0.30340  0.47150  Biso   1.000  H
  C116     1.0000 0.40759  0.26618  0.49346  Biso   1.000  C
  H74      1.0000 0.42280  0.33060  0.50340  Biso   1.000  H
  C117     1.0000 0.44675  0.18785  0.49669  Biso   1.000  C
  C118     1.0000 0.42338  0.09157  0.48470  Biso   1.000  C
  H75      1.0000 0.44900  0.03820  0.48700  Biso   1.000  H
  C119     1.0000 0.36252  0.07426  0.46942  Biso   1.000  C
  H76      1.0000 0.34780  0.00910  0.46280  Biso   1.000  H
  C120     1.0000 0.51240  0.20702  0.50984  Biso   1.000  C
  Co5      1.0000 0.61612  0.35133  0.54841  Biso   1.000  Co
  N25      1.0000 0.52950  0.10338  0.70235  Biso   1.000  N
  N26      1.0000 0.56927  0.96972  0.67949  Biso   1.000  N
  N27      1.0000 0.58788  0.48329  0.57913  Biso   1.000  N
  N28      1.0000 0.59208  0.62720  0.62496  Biso   1.000  N
  N29      1.0000 0.83633  0.80863  0.86303  Biso   1.000  N
  N30      1.0000 0.76096  0.79359  0.77543  Biso   1.000  N
  O25      1.0000 0.55586  0.29113  0.80934  Biso   1.000  O
  O26      1.0000 0.62417  0.17122  0.83150  Biso   1.000  O
  O27      1.0000 0.60334  0.57582  0.96414  Biso   1.000  O
  O28      1.0000 0.69151  0.56481  0.03880  Biso   1.000  O
  O29      1.0000 0.03482  0.21199  0.03561  Biso   1.000  O
  O30      1.0000 0.03978  0.35769  0.99301  Biso   1.000  O
  C121     1.0000 0.66578  0.88410  0.72625  Biso   1.000  C
  H77      1.0000 0.68230  0.94090  0.74880  Biso   1.000  H
  C122     1.0000 0.60628  0.88245  0.68635  Biso   1.000  C
  C123     1.0000 0.58080  0.79919  0.65195  Biso   1.000  C
  H78      1.0000 0.54050  0.79940  0.62550  Biso   1.000  H
  C124     1.0000 0.61670  0.71563  0.65783  Biso   1.000  C
  C125     1.0000 0.67655  0.71438  0.69768  Biso   1.000  C
  H79      1.0000 0.70030  0.65780  0.70130  Biso   1.000  H
  C126     1.0000 0.70032  0.79791  0.73177  Biso   1.000  C
  C127     1.0000 0.57134  0.03405  0.72300  Biso   1.000  C
  H80      1.0000 0.59880  0.03000  0.76250  Biso   1.000  H
  C128     1.0000 0.49915  0.08220  0.64268  Biso   1.000  C
  H81      1.0000 0.46690  0.11900  0.61640  Biso   1.000  H
  C129     1.0000 0.52307  0.00030  0.62803  Biso   1.000  C
  H82      1.0000 0.51080  0.97050  0.59050  Biso   1.000  H
  C130     1.0000 0.62292  0.55637  0.60856  Biso   1.000  C
  H83      1.0000 0.66420  0.55930  0.61720  Biso   1.000  H
  C131     1.0000 0.53117  0.50809  0.57617  Biso   1.000  C
  H84      1.0000 0.49670  0.46940  0.55780  Biso   1.000  H
  C132     1.0000 0.53258  0.59610  0.60348  Biso   1.000  C
  H85      1.0000 0.50010  0.62920  0.60720  Biso   1.000  H
  C133     1.0000 0.77967  0.83225  0.83062  Biso   1.000  C
  H86      1.0000 0.75560  0.87110  0.84440  Biso   1.000  H
  C134     1.0000 0.85446  0.75130  0.82566  Biso   1.000  C
  H87      1.0000 0.89270  0.72350  0.83610  Biso   1.000  H
  C135     1.0000 0.80884  0.74120  0.77180  Biso   1.000  C
  H88      1.0000 0.80960  0.70600  0.73890  Biso   1.000  H
  C136     1.0000 0.60847  0.25681  0.83862  Biso   1.000  C
  C137     1.0000 0.65277  0.32524  0.88397  Biso   1.000  C
  C138     1.0000 0.63364  0.40666  0.90806  Biso   1.000  C
  H89      1.0000 0.59280  0.42280  0.89410  Biso   1.000  H
  C139     1.0000 0.67546  0.46383  0.95293  Biso   1.000  C
  C140     1.0000 0.73710  0.44362  0.97077  Biso   1.000  C
  H90      1.0000 0.76510  0.48300  0.00010  Biso   1.000  H
  C141     1.0000 0.75731  0.36563  0.94534  Biso   1.000  C
  C142     1.0000 0.71451  0.30492  0.90325  Biso   1.000  C
  H91      1.0000 0.72730  0.24990  0.88770  Biso   1.000  H
  C143     1.0000 0.65539  0.54044  0.98644  Biso   1.000  C
  C144     1.0000 0.82300  0.34709  0.96376  Biso   1.000  C
  C145     1.0000 0.84633  0.25039  0.97561  Biso   1.000  C
  H92      1.0000 0.82040  0.19660  0.97150  Biso   1.000  H
  C146     1.0000 0.90759  0.23382  0.99346  Biso   1.000  C
  H93      1.0000 0.92280  0.16940  0.00340  Biso   1.000  H
  C147     1.0000 0.94675  0.31215  0.99669  Biso   1.000  C
  C148     1.0000 0.92338  0.40843  0.98470  Biso   1.000  C
  H94      1.0000 0.94900  0.46180  0.98700  Biso   1.000  H
  C149     1.0000 0.86252  0.42574  0.96942  Biso   1.000  C
  H95      1.0000 0.84780  0.49090  0.96280  Biso   1.000  H
  C150     1.0000 0.01240  0.29298  0.00984  Biso   1.000  C
  Co6      1.0000 0.11612  0.85133  0.54841  Biso   1.000  Co
  N31      1.0000 0.02950  0.60338  0.70235  Biso   1.000  N
  N32      1.0000 0.06927  0.46972  0.67949  Biso   1.000  N
  N33      1.0000 0.08788  0.98329  0.57913  Biso   1.000  N
  N34      1.0000 0.09208  0.12720  0.62496  Biso   1.000  N
  N35      1.0000 0.33633  0.30863  0.86303  Biso   1.000  N
  N36      1.0000 0.26096  0.29359  0.77543  Biso   1.000  N
  O31      1.0000 0.05586  0.79113  0.80934  Biso   1.000  O
  O32      1.0000 0.12417  0.67122  0.83150  Biso   1.000  O
  O33      1.0000 0.10334  0.07582  0.96414  Biso   1.000  O
  O34      1.0000 0.19151  0.06481  0.03880  Biso   1.000  O
  O35      1.0000 0.53482  0.71199  0.03561  Biso   1.000  O
  O36      1.0000 0.53978  0.85769  0.99301  Biso   1.000  O
  C151     1.0000 0.16578  0.38410  0.72625  Biso   1.000  C
  H96      1.0000 0.18230  0.44090  0.74880  Biso   1.000  H
  C152     1.0000 0.10628  0.38245  0.68635  Biso   1.000  C
  C153     1.0000 0.08080  0.29919  0.65195  Biso   1.000  C
  H97      1.0000 0.04050  0.29940  0.62550  Biso   1.000  H
  C154     1.0000 0.11670  0.21563  0.65783  Biso   1.000  C
  C155     1.0000 0.17655  0.21438  0.69768  Biso   1.000  C
  H98      1.0000 0.20030  0.15780  0.70130  Biso   1.000  H
  C156     1.0000 0.20032  0.29791  0.73177  Biso   1.000  C
  C157     1.0000 0.07134  0.53405  0.72300  Biso   1.000  C
  H99      1.0000 0.09880  0.53000  0.76250  Biso   1.000  H
  C158     1.0000 0.99915  0.58220  0.64268  Biso   1.000  C
  H100     1.0000 0.96690  0.61900  0.61640  Biso   1.000  H
  C159     1.0000 0.02307  0.50030  0.62803  Biso   1.000  C
  H101     1.0000 0.01080  0.47050  0.59050  Biso   1.000  H
  C160     1.0000 0.12292  0.05637  0.60856  Biso   1.000  C
  H102     1.0000 0.16420  0.05930  0.61720  Biso   1.000  H
  C161     1.0000 0.03117  0.00809  0.57617  Biso   1.000  C
  H103     1.0000 0.99670  0.96940  0.55780  Biso   1.000  H
  C162     1.0000 0.03258  0.09610  0.60348  Biso   1.000  C
  H104     1.0000 0.00010  0.12920  0.60720  Biso   1.000  H
  C163     1.0000 0.27967  0.33225  0.83062  Biso   1.000  C
  H105     1.0000 0.25560  0.37110  0.84440  Biso   1.000  H
  C164     1.0000 0.35446  0.25130  0.82566  Biso   1.000  C
  H106     1.0000 0.39270  0.22350  0.83610  Biso   1.000  H
  C165     1.0000 0.30884  0.24120  0.77180  Biso   1.000  C
  H107     1.0000 0.30960  0.20600  0.73890  Biso   1.000  H
  C166     1.0000 0.10847  0.75681  0.83862  Biso   1.000  C
  C167     1.0000 0.15277  0.82524  0.88397  Biso   1.000  C
  C168     1.0000 0.13364  0.90666  0.90806  Biso   1.000  C
  H108     1.0000 0.09280  0.92280  0.89410  Biso   1.000  H
  C169     1.0000 0.17546  0.96383  0.95293  Biso   1.000  C
  C170     1.0000 0.23710  0.94362  0.97077  Biso   1.000  C
  H109     1.0000 0.26510  0.98300  0.00010  Biso   1.000  H
  C171     1.0000 0.25731  0.86563  0.94534  Biso   1.000  C
  C172     1.0000 0.21451  0.80492  0.90325  Biso   1.000  C
  H110     1.0000 0.22730  0.74990  0.88770  Biso   1.000  H
  C173     1.0000 0.15539  0.04044  0.98644  Biso   1.000  C
  C174     1.0000 0.32300  0.84709  0.96376  Biso   1.000  C
  C175     1.0000 0.34633  0.75039  0.97561  Biso   1.000  C
  H111     1.0000 0.32040  0.69660  0.97150  Biso   1.000  H
  C176     1.0000 0.40759  0.73382  0.99346  Biso   1.000  C
  H112     1.0000 0.42280  0.66940  0.00340  Biso   1.000  H
  C177     1.0000 0.44675  0.81215  0.99669  Biso   1.000  C
  C178     1.0000 0.42338  0.90843  0.98470  Biso   1.000  C
  H113     1.0000 0.44900  0.96180  0.98700  Biso   1.000  H
  C179     1.0000 0.36252  0.92574  0.96942  Biso   1.000  C
  H114     1.0000 0.34780  0.99090  0.96280  Biso   1.000  H
  C180     1.0000 0.51240  0.79298  0.00984  Biso   1.000  C
  Co7      1.0000 0.38388  0.35133  0.95159  Biso   1.000  Co
  N37      1.0000 0.47050  0.10338  0.79765  Biso   1.000  N
  N38      1.0000 0.43073  0.96972  0.82051  Biso   1.000  N
  N39      1.0000 0.41212  0.48329  0.92087  Biso   1.000  N
  N40      1.0000 0.40792  0.62720  0.87504  Biso   1.000  N
  N41      1.0000 0.16367  0.80863  0.63697  Biso   1.000  N
  N42      1.0000 0.23904  0.79359  0.72457  Biso   1.000  N
  O37      1.0000 0.44414  0.29113  0.69066  Biso   1.000  O
  O38      1.0000 0.37583  0.17122  0.66850  Biso   1.000  O
  O39      1.0000 0.39666  0.57582  0.53586  Biso   1.000  O
  O40      1.0000 0.30849  0.56481  0.46120  Biso   1.000  O
  O41      1.0000 0.96518  0.21199  0.46439  Biso   1.000  O
  O42      1.0000 0.96022  0.35769  0.50699  Biso   1.000  O
  C181     1.0000 0.33422  0.88410  0.77375  Biso   1.000  C
  H115     1.0000 0.31770  0.94090  0.75120  Biso   1.000  H
  C182     1.0000 0.39372  0.88245  0.81365  Biso   1.000  C
  C183     1.0000 0.41920  0.79919  0.84805  Biso   1.000  C
  H116     1.0000 0.45950  0.79940  0.87450  Biso   1.000  H
  C184     1.0000 0.38330  0.71563  0.84217  Biso   1.000  C
  C185     1.0000 0.32345  0.71438  0.80232  Biso   1.000  C
  H117     1.0000 0.29970  0.65780  0.79870  Biso   1.000  H
  C186     1.0000 0.29968  0.79791  0.76823  Biso   1.000  C
  C187     1.0000 0.42866  0.03405  0.77700  Biso   1.000  C
  H118     1.0000 0.40120  0.03000  0.73750  Biso   1.000  H
  C188     1.0000 0.50085  0.08220  0.85732  Biso   1.000  C
  H119     1.0000 0.53310  0.11900  0.88360  Biso   1.000  H
  C189     1.0000 0.47693  0.00030  0.87197  Biso   1.000  C
  H120     1.0000 0.48920  0.97050  0.90950  Biso   1.000  H
  C190     1.0000 0.37708  0.55637  0.89144  Biso   1.000  C
  H121     1.0000 0.33580  0.55930  0.88280  Biso   1.000  H
  C191     1.0000 0.46883  0.50809  0.92383  Biso   1.000  C
  H122     1.0000 0.50330  0.46940  0.94220  Biso   1.000  H
  C192     1.0000 0.46742  0.59610  0.89652  Biso   1.000  C
  H123     1.0000 0.49990  0.62920  0.89280  Biso   1.000  H
  C193     1.0000 0.22033  0.83225  0.66938  Biso   1.000  C
  H124     1.0000 0.24440  0.87110  0.65560  Biso   1.000  H
  C194     1.0000 0.14554  0.75130  0.67434  Biso   1.000  C
  H125     1.0000 0.10730  0.72350  0.66390  Biso   1.000  H
  C195     1.0000 0.19116  0.74120  0.72820  Biso   1.000  C
  H126     1.0000 0.19040  0.70600  0.76110  Biso   1.000  H
  C196     1.0000 0.39153  0.25681  0.66138  Biso   1.000  C
  C197     1.0000 0.34723  0.32524  0.61603  Biso   1.000  C
  C198     1.0000 0.36636  0.40666  0.59194  Biso   1.000  C
  H127     1.0000 0.40720  0.42280  0.60590  Biso   1.000  H
  C199     1.0000 0.32454  0.46383  0.54707  Biso   1.000  C
  C200     1.0000 0.26290  0.44362  0.52923  Biso   1.000  C
  H128     1.0000 0.23490  0.48300  0.49990  Biso   1.000  H
  C201     1.0000 0.24269  0.36563  0.55466  Biso   1.000  C
  C202     1.0000 0.28549  0.30492  0.59675  Biso   1.000  C
  H129     1.0000 0.27270  0.24990  0.61230  Biso   1.000  H
  C203     1.0000 0.34461  0.54044  0.51356  Biso   1.000  C
  C204     1.0000 0.17700  0.34709  0.53624  Biso   1.000  C
  C205     1.0000 0.15367  0.25039  0.52439  Biso   1.000  C
  H130     1.0000 0.17960  0.19660  0.52850  Biso   1.000  H
  C206     1.0000 0.09241  0.23382  0.50654  Biso   1.000  C
  H131     1.0000 0.07720  0.16940  0.49660  Biso   1.000  H
  C207     1.0000 0.05325  0.31215  0.50331  Biso   1.000  C
  C208     1.0000 0.07662  0.40843  0.51530  Biso   1.000  C
  H132     1.0000 0.05100  0.46180  0.51300  Biso   1.000  H
  C209     1.0000 0.13748  0.42574  0.53058  Biso   1.000  C
  H133     1.0000 0.15220  0.49090  0.53720  Biso   1.000  H
  C210     1.0000 0.98760  0.29298  0.49016  Biso   1.000  C
  Co8      1.0000 0.88388  0.85133  0.95159  Biso   1.000  Co
  N43      1.0000 0.97050  0.60338  0.79765  Biso   1.000  N
  N44      1.0000 0.93073  0.46972  0.82051  Biso   1.000  N
  N45      1.0000 0.91212  0.98329  0.92087  Biso   1.000  N
  N46      1.0000 0.90792  0.12720  0.87504  Biso   1.000  N
  N47      1.0000 0.66367  0.30863  0.63697  Biso   1.000  N
  N48      1.0000 0.73904  0.29359  0.72457  Biso   1.000  N
  O43      1.0000 0.94414  0.79113  0.69066  Biso   1.000  O
  O44      1.0000 0.87583  0.67122  0.66850  Biso   1.000  O
  O45      1.0000 0.89666  0.07582  0.53586  Biso   1.000  O
  O46      1.0000 0.80849  0.06481  0.46120  Biso   1.000  O
  O47      1.0000 0.46518  0.71199  0.46439  Biso   1.000  O
  O48      1.0000 0.46022  0.85769  0.50699  Biso   1.000  O
  C211     1.0000 0.83422  0.38410  0.77375  Biso   1.000  C
  H134     1.0000 0.81770  0.44090  0.75120  Biso   1.000  H
  C212     1.0000 0.89372  0.38245  0.81365  Biso   1.000  C
  C213     1.0000 0.91920  0.29919  0.84805  Biso   1.000  C
  H135     1.0000 0.95950  0.29940  0.87450  Biso   1.000  H
  C214     1.0000 0.88330  0.21563  0.84217  Biso   1.000  C
  C215     1.0000 0.82345  0.21438  0.80232  Biso   1.000  C
  H136     1.0000 0.79970  0.15780  0.79870  Biso   1.000  H
  C216     1.0000 0.79968  0.29791  0.76823  Biso   1.000  C
  C217     1.0000 0.92866  0.53405  0.77700  Biso   1.000  C
  H137     1.0000 0.90120  0.53000  0.73750  Biso   1.000  H
  C218     1.0000 0.00085  0.58220  0.85732  Biso   1.000  C
  H138     1.0000 0.03310  0.61900  0.88360  Biso   1.000  H
  C219     1.0000 0.97693  0.50030  0.87197  Biso   1.000  C
  H139     1.0000 0.98920  0.47050  0.90950  Biso   1.000  H
  C220     1.0000 0.87708  0.05637  0.89144  Biso   1.000  C
  H140     1.0000 0.83580  0.05930  0.88280  Biso   1.000  H
  C221     1.0000 0.96883  0.00809  0.92383  Biso   1.000  C
  H141     1.0000 0.00330  0.96940  0.94220  Biso   1.000  H
  C222     1.0000 0.96742  0.09610  0.89652  Biso   1.000  C
  H142     1.0000 0.99990  0.12920  0.89280  Biso   1.000  H
  C223     1.0000 0.72033  0.33225  0.66938  Biso   1.000  C
  H143     1.0000 0.74440  0.37110  0.65560  Biso   1.000  H
  C224     1.0000 0.64554  0.25130  0.67434  Biso   1.000  C
  H144     1.0000 0.60730  0.22350  0.66390  Biso   1.000  H
  C225     1.0000 0.69116  0.24120  0.72820  Biso   1.000  C
  H145     1.0000 0.69040  0.20600  0.76110  Biso   1.000  H
  C226     1.0000 0.89153  0.75681  0.66138  Biso   1.000  C
  C227     1.0000 0.84723  0.82524  0.61603  Biso   1.000  C
  C228     1.0000 0.86636  0.90666  0.59194  Biso   1.000  C
  H146     1.0000 0.90720  0.92280  0.60590  Biso   1.000  H
  C229     1.0000 0.82454  0.96383  0.54707  Biso   1.000  C
  C230     1.0000 0.76290  0.94362  0.52923  Biso   1.000  C
  H147     1.0000 0.73490  0.98300  0.49990  Biso   1.000  H
  C231     1.0000 0.74269  0.86563  0.55466  Biso   1.000  C
  C232     1.0000 0.78549  0.80492  0.59675  Biso   1.000  C
  H148     1.0000 0.77270  0.74990  0.61230  Biso   1.000  H
  C233     1.0000 0.84461  0.04044  0.51356  Biso   1.000  C
  C234     1.0000 0.67700  0.84709  0.53624  Biso   1.000  C
  C235     1.0000 0.65367  0.75039  0.52439  Biso   1.000  C
  H149     1.0000 0.67960  0.69660  0.52850  Biso   1.000  H
  C236     1.0000 0.59241  0.73382  0.50654  Biso   1.000  C
  H150     1.0000 0.57720  0.66940  0.49660  Biso   1.000  H
  C237     1.0000 0.55325  0.81215  0.50331  Biso   1.000  C
  C238     1.0000 0.57662  0.90843  0.51530  Biso   1.000  C
  H151     1.0000 0.55100  0.96180  0.51300  Biso   1.000  H
  C239     1.0000 0.63748  0.92574  0.53058  Biso   1.000  C
  H152     1.0000 0.65220  0.99090  0.53720  Biso   1.000  H
  C240     1.0000 0.48760  0.79298  0.49016  Biso   1.000  C
  Co9      1.0000 0.50000  0.80023  0.25000  Biso   1.000  Co
  Co10     1.0000 0.00000  0.30023  0.25000  Biso   1.000  Co
  Co11     1.0000 0.50000  0.19977  0.75000  Biso   1.000  Co
  Co12     1.0000 0.00000  0.69977  0.75000  Biso   1.000  Co
