data_image0
_cell_length_a       23.4092
_cell_length_b       13.3865
_cell_length_c       25.2954
_cell_angle_alpha    90
_cell_angle_beta     114.823
_cell_angle_gamma    90

_symmetry_space_group_name_H-M    "P 1"
_symmetry_int_tables_number       1

loop_
  _symmetry_equiv_pos_as_xyz
  'x, y, z'

loop_
  _atom_site_label
  _atom_site_occupancy
  _atom_site_fract_x
  _atom_site_fract_y
  _atom_site_fract_z
  _atom_site_thermal_displace_type
  _atom_site_B_iso_or_equiv
  _atom_site_type_symbol
  Ni1      1.0000 0.87948  0.35182  0.45001  Biso   1.000  Ni
  N1       1.0000 0.98518  0.91100  0.80193  Biso   1.000  N
  N2       1.0000 0.94208  0.04160  0.82405  Biso   1.000  N
  N3       1.0000 0.66513  0.19551  0.63608  Biso   1.000  N
  N4       1.0000 0.73734  0.20140  0.72337  Biso   1.000  N
  N5       1.0000 0.90927  0.51507  0.92363  Biso   1.000  N
  N6       1.0000 0.90580  0.37700  0.87763  Biso   1.000  N
  O1       1.0000 0.90215  0.78762  0.69544  Biso   1.000  O
  O2       1.0000 0.97176  0.69353  0.68322  Biso   1.000  O
  O3       1.0000 0.46366  0.78968  0.46587  Biso   1.000  O
  O4       1.0000 0.45564  0.64261  0.50309  Biso   1.000  O
  O5       1.0000 0.80590  0.43873  0.45960  Biso   1.000  O
  O6       1.0000 0.89846  0.41631  0.53182  Biso   1.000  O
  C1       1.0000 0.92319  0.20820  0.85180  Biso   1.000  C
  H1       1.0000 0.96470  0.21080  0.87940  Biso   1.000  H
  C2       1.0000 0.90083  0.12420  0.81716  Biso   1.000  C
  C3       1.0000 0.83882  0.11880  0.77543  Biso   1.000  C
  H2       1.0000 0.82380  0.06210  0.75240  Biso   1.000  H
  C4       1.0000 0.80010  0.20100  0.76930  Biso   1.000  C
  C5       1.0000 0.82099  0.28450  0.80338  Biso   1.000  C
  H3       1.0000 0.79410  0.33810  0.79890  Biso   1.000  H
  C6       1.0000 0.88333  0.28790  0.84497  Biso   1.000  C
  C7       1.0000 0.94102  0.97900  0.78207  Biso   1.000  C
  H4       1.0000 0.91220  0.98350  0.74330  Biso   1.000  H
  C8       1.0000 0.01669  0.93070  0.86076  Biso   1.000  C
  H5       1.0000 0.05040  0.89380  0.88680  Biso   1.000  H
  C9       1.0000 0.99166  0.01050  0.87485  Biso   1.000  C
  H6       1.0000 0.00490  0.03940  0.91150  Biso   1.000  H
  C10      1.0000 0.72230  0.17180  0.66857  Biso   1.000  C
  H7       1.0000 0.74930  0.13900  0.65590  Biso   1.000  H
  C11      1.0000 0.63854  0.23250  0.67000  Biso   1.000  C
  H8       1.0000 0.59630  0.24880  0.65790  Biso   1.000  H
  C12      1.0000 0.68424  0.24150  0.72455  Biso   1.000  C
  H9       1.0000 0.68030  0.26940  0.75650  Biso   1.000  H
  C13      1.0000 0.87213  0.44440  0.89227  Biso   1.000  C
  H10      1.0000 0.82900  0.44110  0.88160  Biso   1.000  H
  C14      1.0000 0.96762  0.49730  0.92735  Biso   1.000  C
  H11      1.0000 0.00250  0.53830  0.94570  Biso   1.000  H
  C15      1.0000 0.96709  0.41170  0.90049  Biso   1.000  C
  H12      1.0000 0.00130  0.38110  0.89760  Biso   1.000  H
  C16      1.0000 0.91566  0.71660  0.66916  Biso   1.000  C
  C17      1.0000 0.86339  0.66110  0.62091  Biso   1.000  C
  C18      1.0000 0.79990  0.68530  0.60543  Biso   1.000  C
  H13      1.0000 0.78990  0.73700  0.62460  Biso   1.000  H
  C19      1.0000 0.87775  0.58400  0.59220  Biso   1.000  C
  H14      1.0000 0.91950  0.56570  0.60340  Biso   1.000  H
  C20      1.0000 0.75163  0.63220  0.56144  Biso   1.000  C
  C21      1.0000 0.83045  0.53340  0.54680  Biso   1.000  C
  C22      1.0000 0.76764  0.55760  0.53206  Biso   1.000  C
  H15      1.0000 0.73600  0.52320  0.50200  Biso   1.000  H
  C23      1.0000 0.68379  0.65380  0.54444  Biso   1.000  C
  C24      1.0000 0.65938  0.74990  0.52953  Biso   1.000  C
  H16      1.0000 0.68620  0.80320  0.53300  Biso   1.000  H
  C25      1.0000 0.64252  0.57660  0.53973  Biso   1.000  C
  H17      1.0000 0.65810  0.51190  0.54870  Biso   1.000  H
  C26      1.0000 0.57938  0.59280  0.52222  Biso   1.000  C
  H18      1.0000 0.55300  0.53980  0.52050  Biso   1.000  H
  C27      1.0000 0.59536  0.76610  0.50957  Biso   1.000  C
  H19      1.0000 0.57940  0.82990  0.49770  Biso   1.000  H
  C28      1.0000 0.55451  0.68950  0.50679  Biso   1.000  C
  C29      1.0000 0.48581  0.70770  0.49007  Biso   1.000  C
  C30      1.0000 0.84567  0.45820  0.51139  Biso   1.000  C
  Ni2      1.0000 0.37948  0.85182  0.45001  Biso   1.000  Ni
  N7       1.0000 0.48518  0.41100  0.80193  Biso   1.000  N
  N8       1.0000 0.44208  0.54160  0.82405  Biso   1.000  N
  N9       1.0000 0.16513  0.69551  0.63608  Biso   1.000  N
  N10      1.0000 0.23734  0.70140  0.72337  Biso   1.000  N
  N11      1.0000 0.40927  0.01507  0.92363  Biso   1.000  N
  N12      1.0000 0.40580  0.87700  0.87763  Biso   1.000  N
  O7       1.0000 0.40215  0.28762  0.69544  Biso   1.000  O
  O8       1.0000 0.47176  0.19353  0.68322  Biso   1.000  O
  O9       1.0000 0.96366  0.28968  0.46587  Biso   1.000  O
  O10      1.0000 0.95564  0.14261  0.50309  Biso   1.000  O
  O11      1.0000 0.30590  0.93873  0.45960  Biso   1.000  O
  O12      1.0000 0.39846  0.91631  0.53182  Biso   1.000  O
  C31      1.0000 0.42319  0.70820  0.85180  Biso   1.000  C
  H20      1.0000 0.46470  0.71080  0.87940  Biso   1.000  H
  C32      1.0000 0.40083  0.62420  0.81716  Biso   1.000  C
  C33      1.0000 0.33882  0.61880  0.77543  Biso   1.000  C
  H21      1.0000 0.32380  0.56210  0.75240  Biso   1.000  H
  C34      1.0000 0.30010  0.70100  0.76930  Biso   1.000  C
  C35      1.0000 0.32099  0.78450  0.80338  Biso   1.000  C
  H22      1.0000 0.29410  0.83810  0.79890  Biso   1.000  H
  C36      1.0000 0.38333  0.78790  0.84497  Biso   1.000  C
  C37      1.0000 0.44102  0.47900  0.78207  Biso   1.000  C
  H23      1.0000 0.41220  0.48350  0.74330  Biso   1.000  H
  C38      1.0000 0.51669  0.43070  0.86076  Biso   1.000  C
  H24      1.0000 0.55040  0.39380  0.88680  Biso   1.000  H
  C39      1.0000 0.49166  0.51050  0.87485  Biso   1.000  C
  H25      1.0000 0.50490  0.53940  0.91150  Biso   1.000  H
  C40      1.0000 0.22230  0.67180  0.66857  Biso   1.000  C
  H26      1.0000 0.24930  0.63900  0.65590  Biso   1.000  H
  C41      1.0000 0.13854  0.73250  0.67000  Biso   1.000  C
  H27      1.0000 0.09630  0.74880  0.65790  Biso   1.000  H
  C42      1.0000 0.18424  0.74150  0.72455  Biso   1.000  C
  H28      1.0000 0.18030  0.76940  0.75650  Biso   1.000  H
  C43      1.0000 0.37213  0.94440  0.89227  Biso   1.000  C
  H29      1.0000 0.32900  0.94110  0.88160  Biso   1.000  H
  C44      1.0000 0.46762  0.99730  0.92735  Biso   1.000  C
  H30      1.0000 0.50250  0.03830  0.94570  Biso   1.000  H
  C45      1.0000 0.46709  0.91170  0.90049  Biso   1.000  C
  H31      1.0000 0.50130  0.88110  0.89760  Biso   1.000  H
  C46      1.0000 0.41566  0.21660  0.66916  Biso   1.000  C
  C47      1.0000 0.36339  0.16110  0.62091  Biso   1.000  C
  C48      1.0000 0.29990  0.18530  0.60543  Biso   1.000  C
  H32      1.0000 0.28990  0.23700  0.62460  Biso   1.000  H
  C49      1.0000 0.37775  0.08400  0.59220  Biso   1.000  C
  H33      1.0000 0.41950  0.06570  0.60340  Biso   1.000  H
  C50      1.0000 0.25163  0.13220  0.56144  Biso   1.000  C
  C51      1.0000 0.33045  0.03340  0.54680  Biso   1.000  C
  C52      1.0000 0.26764  0.05760  0.53206  Biso   1.000  C
  H34      1.0000 0.23600  0.02320  0.50200  Biso   1.000  H
  C53      1.0000 0.18379  0.15380  0.54444  Biso   1.000  C
  C54      1.0000 0.15938  0.24990  0.52953  Biso   1.000  C
  H35      1.0000 0.18620  0.30320  0.53300  Biso   1.000  H
  C55      1.0000 0.14252  0.07660  0.53973  Biso   1.000  C
  H36      1.0000 0.15810  0.01190  0.54870  Biso   1.000  H
  C56      1.0000 0.07938  0.09280  0.52222  Biso   1.000  C
  H37      1.0000 0.05300  0.03980  0.52050  Biso   1.000  H
  C57      1.0000 0.09536  0.26610  0.50957  Biso   1.000  C
  H38      1.0000 0.07940  0.32990  0.49770  Biso   1.000  H
  C58      1.0000 0.05451  0.18950  0.50679  Biso   1.000  C
  C59      1.0000 0.98581  0.20770  0.49007  Biso   1.000  C
  C60      1.0000 0.34567  0.95820  0.51139  Biso   1.000  C
  Ni3      1.0000 0.12052  0.35182  0.04999  Biso   1.000  Ni
  N13      1.0000 0.01482  0.91100  0.69807  Biso   1.000  N
  N14      1.0000 0.05792  0.04160  0.67595  Biso   1.000  N
  N15      1.0000 0.33487  0.19551  0.86392  Biso   1.000  N
  N16      1.0000 0.26266  0.20140  0.77663  Biso   1.000  N
  N17      1.0000 0.09073  0.51507  0.57637  Biso   1.000  N
  N18      1.0000 0.09420  0.37700  0.62237  Biso   1.000  N
  O13      1.0000 0.09785  0.78762  0.80456  Biso   1.000  O
  O14      1.0000 0.02824  0.69353  0.81678  Biso   1.000  O
  O15      1.0000 0.53634  0.78968  0.03413  Biso   1.000  O
  O16      1.0000 0.54436  0.64261  0.99691  Biso   1.000  O
  O17      1.0000 0.19410  0.43873  0.04040  Biso   1.000  O
  O18      1.0000 0.10154  0.41631  0.96818  Biso   1.000  O
  C61      1.0000 0.07681  0.20820  0.64820  Biso   1.000  C
  H39      1.0000 0.03530  0.21080  0.62060  Biso   1.000  H
  C62      1.0000 0.09917  0.12420  0.68284  Biso   1.000  C
  C63      1.0000 0.16118  0.11880  0.72457  Biso   1.000  C
  H40      1.0000 0.17620  0.06210  0.74760  Biso   1.000  H
  C64      1.0000 0.19990  0.20100  0.73070  Biso   1.000  C
  C65      1.0000 0.17901  0.28450  0.69662  Biso   1.000  C
  H41      1.0000 0.20590  0.33810  0.70110  Biso   1.000  H
  C66      1.0000 0.11667  0.28790  0.65503  Biso   1.000  C
  C67      1.0000 0.05898  0.97900  0.71793  Biso   1.000  C
  H42      1.0000 0.08780  0.98350  0.75670  Biso   1.000  H
  C68      1.0000 0.98331  0.93070  0.63924  Biso   1.000  C
  H43      1.0000 0.94960  0.89380  0.61320  Biso   1.000  H
  C69      1.0000 0.00834  0.01050  0.62515  Biso   1.000  C
  H44      1.0000 0.99510  0.03940  0.58850  Biso   1.000  H
  C70      1.0000 0.27770  0.17180  0.83143  Biso   1.000  C
  H45      1.0000 0.25070  0.13900  0.84410  Biso   1.000  H
  C71      1.0000 0.36146  0.23250  0.83000  Biso   1.000  C
  H46      1.0000 0.40370  0.24880  0.84210  Biso   1.000  H
  C72      1.0000 0.31576  0.24150  0.77545  Biso   1.000  C
  H47      1.0000 0.31970  0.26940  0.74350  Biso   1.000  H
  C73      1.0000 0.12787  0.44440  0.60773  Biso   1.000  C
  H48      1.0000 0.17100  0.44110  0.61840  Biso   1.000  H
  C74      1.0000 0.03238  0.49730  0.57265  Biso   1.000  C
  H49      1.0000 0.99750  0.53830  0.55430  Biso   1.000  H
  C75      1.0000 0.03291  0.41170  0.59951  Biso   1.000  C
  H50      1.0000 0.99870  0.38110  0.60240  Biso   1.000  H
  C76      1.0000 0.08434  0.71660  0.83084  Biso   1.000  C
  C77      1.0000 0.13661  0.66110  0.87909  Biso   1.000  C
  C78      1.0000 0.20010  0.68530  0.89457  Biso   1.000  C
  H51      1.0000 0.21010  0.73700  0.87540  Biso   1.000  H
  C79      1.0000 0.12225  0.58400  0.90780  Biso   1.000  C
  H52      1.0000 0.08050  0.56570  0.89660  Biso   1.000  H
  C80      1.0000 0.24837  0.63220  0.93856  Biso   1.000  C
  C81      1.0000 0.16955  0.53340  0.95320  Biso   1.000  C
  C82      1.0000 0.23236  0.55760  0.96794  Biso   1.000  C
  H53      1.0000 0.26400  0.52320  0.99800  Biso   1.000  H
  C83      1.0000 0.31621  0.65380  0.95556  Biso   1.000  C
  C84      1.0000 0.34062  0.74990  0.97047  Biso   1.000  C
  H54      1.0000 0.31380  0.80320  0.96700  Biso   1.000  H
  C85      1.0000 0.35748  0.57660  0.96027  Biso   1.000  C
  H55      1.0000 0.34190  0.51190  0.95130  Biso   1.000  H
  C86      1.0000 0.42062  0.59280  0.97778  Biso   1.000  C
  H56      1.0000 0.44700  0.53980  0.97950  Biso   1.000  H
  C87      1.0000 0.40464  0.76610  0.99043  Biso   1.000  C
  H57      1.0000 0.42060  0.82990  0.00230  Biso   1.000  H
  C88      1.0000 0.44549  0.68950  0.99321  Biso   1.000  C
  C89      1.0000 0.51419  0.70770  0.00993  Biso   1.000  C
  C90      1.0000 0.15433  0.45820  0.98861  Biso   1.000  C
  Ni4      1.0000 0.62052  0.85182  0.04999  Biso   1.000  Ni
  N19      1.0000 0.51482  0.41100  0.69807  Biso   1.000  N
  N20      1.0000 0.55792  0.54160  0.67595  Biso   1.000  N
  N21      1.0000 0.83487  0.69551  0.86392  Biso   1.000  N
  N22      1.0000 0.76266  0.70140  0.77663  Biso   1.000  N
  N23      1.0000 0.59073  0.01507  0.57637  Biso   1.000  N
  N24      1.0000 0.59420  0.87700  0.62237  Biso   1.000  N
  O19      1.0000 0.59785  0.28762  0.80456  Biso   1.000  O
  O20      1.0000 0.52824  0.19353  0.81678  Biso   1.000  O
  O21      1.0000 0.03634  0.28968  0.03413  Biso   1.000  O
  O22      1.0000 0.04436  0.14261  0.99691  Biso   1.000  O
  O23      1.0000 0.69410  0.93873  0.04040  Biso   1.000  O
  O24      1.0000 0.60154  0.91631  0.96818  Biso   1.000  O
  C91      1.0000 0.57681  0.70820  0.64820  Biso   1.000  C
  H58      1.0000 0.53530  0.71080  0.62060  Biso   1.000  H
  C92      1.0000 0.59917  0.62420  0.68284  Biso   1.000  C
  C93      1.0000 0.66118  0.61880  0.72457  Biso   1.000  C
  H59      1.0000 0.67620  0.56210  0.74760  Biso   1.000  H
  C94      1.0000 0.69990  0.70100  0.73070  Biso   1.000  C
  C95      1.0000 0.67901  0.78450  0.69662  Biso   1.000  C
  H60      1.0000 0.70590  0.83810  0.70110  Biso   1.000  H
  C96      1.0000 0.61667  0.78790  0.65503  Biso   1.000  C
  C97      1.0000 0.55898  0.47900  0.71793  Biso   1.000  C
  H61      1.0000 0.58780  0.48350  0.75670  Biso   1.000  H
  C98      1.0000 0.48331  0.43070  0.63924  Biso   1.000  C
  H62      1.0000 0.44960  0.39380  0.61320  Biso   1.000  H
  C99      1.0000 0.50834  0.51050  0.62515  Biso   1.000  C
  H63      1.0000 0.49510  0.53940  0.58850  Biso   1.000  H
  C100     1.0000 0.77770  0.67180  0.83143  Biso   1.000  C
  H64      1.0000 0.75070  0.63900  0.84410  Biso   1.000  H
  C101     1.0000 0.86146  0.73250  0.83000  Biso   1.000  C
  H65      1.0000 0.90370  0.74880  0.84210  Biso   1.000  H
  C102     1.0000 0.81576  0.74150  0.77545  Biso   1.000  C
  H66      1.0000 0.81970  0.76940  0.74350  Biso   1.000  H
  C103     1.0000 0.62787  0.94440  0.60773  Biso   1.000  C
  H67      1.0000 0.67100  0.94110  0.61840  Biso   1.000  H
  C104     1.0000 0.53238  0.99730  0.57265  Biso   1.000  C
  H68      1.0000 0.49750  0.03830  0.55430  Biso   1.000  H
  C105     1.0000 0.53291  0.91170  0.59951  Biso   1.000  C
  H69      1.0000 0.49870  0.88110  0.60240  Biso   1.000  H
  C106     1.0000 0.58434  0.21660  0.83084  Biso   1.000  C
  C107     1.0000 0.63661  0.16110  0.87909  Biso   1.000  C
  C108     1.0000 0.70010  0.18530  0.89457  Biso   1.000  C
  H70      1.0000 0.71010  0.23700  0.87540  Biso   1.000  H
  C109     1.0000 0.62225  0.08400  0.90780  Biso   1.000  C
  H71      1.0000 0.58050  0.06570  0.89660  Biso   1.000  H
  C110     1.0000 0.74837  0.13220  0.93856  Biso   1.000  C
  C111     1.0000 0.66955  0.03340  0.95320  Biso   1.000  C
  C112     1.0000 0.73236  0.05760  0.96794  Biso   1.000  C
  H72      1.0000 0.76400  0.02320  0.99800  Biso   1.000  H
  C113     1.0000 0.81621  0.15380  0.95556  Biso   1.000  C
  C114     1.0000 0.84062  0.24990  0.97047  Biso   1.000  C
  H73      1.0000 0.81380  0.30320  0.96700  Biso   1.000  H
  C115     1.0000 0.85748  0.07660  0.96027  Biso   1.000  C
  H74      1.0000 0.84190  0.01190  0.95130  Biso   1.000  H
  C116     1.0000 0.92062  0.09280  0.97778  Biso   1.000  C
  H75      1.0000 0.94700  0.03980  0.97950  Biso   1.000  H
  C117     1.0000 0.90464  0.26610  0.99043  Biso   1.000  C
  H76      1.0000 0.92060  0.32990  0.00230  Biso   1.000  H
  C118     1.0000 0.94549  0.18950  0.99321  Biso   1.000  C
  C119     1.0000 0.01419  0.20770  0.00993  Biso   1.000  C
  C120     1.0000 0.65433  0.95820  0.98861  Biso   1.000  C
  Ni5      1.0000 0.12052  0.64818  0.54999  Biso   1.000  Ni
  N25      1.0000 0.01482  0.08900  0.19807  Biso   1.000  N
  N26      1.0000 0.05792  0.95840  0.17595  Biso   1.000  N
  N27      1.0000 0.33487  0.80449  0.36392  Biso   1.000  N
  N28      1.0000 0.26266  0.79860  0.27663  Biso   1.000  N
  N29      1.0000 0.09073  0.48493  0.07637  Biso   1.000  N
  N30      1.0000 0.09420  0.62300  0.12237  Biso   1.000  N
  O25      1.0000 0.09785  0.21238  0.30456  Biso   1.000  O
  O26      1.0000 0.02824  0.30647  0.31678  Biso   1.000  O
  O27      1.0000 0.53634  0.21032  0.53413  Biso   1.000  O
  O28      1.0000 0.54436  0.35739  0.49691  Biso   1.000  O
  O29      1.0000 0.19410  0.56127  0.54040  Biso   1.000  O
  O30      1.0000 0.10154  0.58369  0.46818  Biso   1.000  O
  C121     1.0000 0.07681  0.79180  0.14820  Biso   1.000  C
  H77      1.0000 0.03530  0.78920  0.12060  Biso   1.000  H
  C122     1.0000 0.09917  0.87580  0.18284  Biso   1.000  C
  C123     1.0000 0.16118  0.88120  0.22457  Biso   1.000  C
  H78      1.0000 0.17620  0.93790  0.24760  Biso   1.000  H
  C124     1.0000 0.19990  0.79900  0.23070  Biso   1.000  C
  C125     1.0000 0.17901  0.71550  0.19662  Biso   1.000  C
  H79      1.0000 0.20590  0.66190  0.20110  Biso   1.000  H
  C126     1.0000 0.11667  0.71210  0.15503  Biso   1.000  C
  C127     1.0000 0.05898  0.02100  0.21793  Biso   1.000  C
  H80      1.0000 0.08780  0.01650  0.25670  Biso   1.000  H
  C128     1.0000 0.98331  0.06930  0.13924  Biso   1.000  C
  H81      1.0000 0.94960  0.10620  0.11320  Biso   1.000  H
  C129     1.0000 0.00834  0.98950  0.12515  Biso   1.000  C
  H82      1.0000 0.99510  0.96060  0.08850  Biso   1.000  H
  C130     1.0000 0.27770  0.82820  0.33143  Biso   1.000  C
  H83      1.0000 0.25070  0.86100  0.34410  Biso   1.000  H
  C131     1.0000 0.36146  0.76750  0.33000  Biso   1.000  C
  H84      1.0000 0.40370  0.75120  0.34210  Biso   1.000  H
  C132     1.0000 0.31576  0.75850  0.27545  Biso   1.000  C
  H85      1.0000 0.31970  0.73060  0.24350  Biso   1.000  H
  C133     1.0000 0.12787  0.55560  0.10773  Biso   1.000  C
  H86      1.0000 0.17100  0.55890  0.11840  Biso   1.000  H
  C134     1.0000 0.03238  0.50270  0.07265  Biso   1.000  C
  H87      1.0000 0.99750  0.46170  0.05430  Biso   1.000  H
  C135     1.0000 0.03291  0.58830  0.09951  Biso   1.000  C
  H88      1.0000 0.99870  0.61890  0.10240  Biso   1.000  H
  C136     1.0000 0.08434  0.28340  0.33084  Biso   1.000  C
  C137     1.0000 0.13661  0.33890  0.37909  Biso   1.000  C
  C138     1.0000 0.20010  0.31470  0.39457  Biso   1.000  C
  H89      1.0000 0.21010  0.26300  0.37540  Biso   1.000  H
  C139     1.0000 0.12225  0.41600  0.40780  Biso   1.000  C
  H90      1.0000 0.08050  0.43430  0.39660  Biso   1.000  H
  C140     1.0000 0.24837  0.36780  0.43856  Biso   1.000  C
  C141     1.0000 0.16955  0.46660  0.45320  Biso   1.000  C
  C142     1.0000 0.23236  0.44240  0.46794  Biso   1.000  C
  H91      1.0000 0.26400  0.47680  0.49800  Biso   1.000  H
  C143     1.0000 0.31621  0.34620  0.45556  Biso   1.000  C
  C144     1.0000 0.34062  0.25010  0.47047  Biso   1.000  C
  H92      1.0000 0.31380  0.19680  0.46700  Biso   1.000  H
  C145     1.0000 0.35748  0.42340  0.46027  Biso   1.000  C
  H93      1.0000 0.34190  0.48810  0.45130  Biso   1.000  H
  C146     1.0000 0.42062  0.40720  0.47778  Biso   1.000  C
  H94      1.0000 0.44700  0.46020  0.47950  Biso   1.000  H
  C147     1.0000 0.40464  0.23390  0.49043  Biso   1.000  C
  H95      1.0000 0.42060  0.17010  0.50230  Biso   1.000  H
  C148     1.0000 0.44549  0.31050  0.49321  Biso   1.000  C
  C149     1.0000 0.51419  0.29230  0.50993  Biso   1.000  C
  C150     1.0000 0.15433  0.54180  0.48861  Biso   1.000  C
  Ni6      1.0000 0.62052  0.14818  0.54999  Biso   1.000  Ni
  N31      1.0000 0.51482  0.58900  0.19807  Biso   1.000  N
  N32      1.0000 0.55792  0.45840  0.17595  Biso   1.000  N
  N33      1.0000 0.83487  0.30449  0.36392  Biso   1.000  N
  N34      1.0000 0.76266  0.29860  0.27663  Biso   1.000  N
  N35      1.0000 0.59073  0.98493  0.07637  Biso   1.000  N
  N36      1.0000 0.59420  0.12300  0.12237  Biso   1.000  N
  O31      1.0000 0.59785  0.71238  0.30456  Biso   1.000  O
  O32      1.0000 0.52824  0.80647  0.31678  Biso   1.000  O
  O33      1.0000 0.03634  0.71032  0.53413  Biso   1.000  O
  O34      1.0000 0.04436  0.85739  0.49691  Biso   1.000  O
  O35      1.0000 0.69410  0.06127  0.54040  Biso   1.000  O
  O36      1.0000 0.60154  0.08369  0.46818  Biso   1.000  O
  C151     1.0000 0.57681  0.29180  0.14820  Biso   1.000  C
  H96      1.0000 0.53530  0.28920  0.12060  Biso   1.000  H
  C152     1.0000 0.59917  0.37580  0.18284  Biso   1.000  C
  C153     1.0000 0.66118  0.38120  0.22457  Biso   1.000  C
  H97      1.0000 0.67620  0.43790  0.24760  Biso   1.000  H
  C154     1.0000 0.69990  0.29900  0.23070  Biso   1.000  C
  C155     1.0000 0.67901  0.21550  0.19662  Biso   1.000  C
  H98      1.0000 0.70590  0.16190  0.20110  Biso   1.000  H
  C156     1.0000 0.61667  0.21210  0.15503  Biso   1.000  C
  C157     1.0000 0.55898  0.52100  0.21793  Biso   1.000  C
  H99      1.0000 0.58780  0.51650  0.25670  Biso   1.000  H
  C158     1.0000 0.48331  0.56930  0.13924  Biso   1.000  C
  H100     1.0000 0.44960  0.60620  0.11320  Biso   1.000  H
  C159     1.0000 0.50834  0.48950  0.12515  Biso   1.000  C
  H101     1.0000 0.49510  0.46060  0.08850  Biso   1.000  H
  C160     1.0000 0.77770  0.32820  0.33143  Biso   1.000  C
  H102     1.0000 0.75070  0.36100  0.34410  Biso   1.000  H
  C161     1.0000 0.86146  0.26750  0.33000  Biso   1.000  C
  H103     1.0000 0.90370  0.25120  0.34210  Biso   1.000  H
  C162     1.0000 0.81576  0.25850  0.27545  Biso   1.000  C
  H104     1.0000 0.81970  0.23060  0.24350  Biso   1.000  H
  C163     1.0000 0.62787  0.05560  0.10773  Biso   1.000  C
  H105     1.0000 0.67100  0.05890  0.11840  Biso   1.000  H
  C164     1.0000 0.53238  0.00270  0.07265  Biso   1.000  C
  H106     1.0000 0.49750  0.96170  0.05430  Biso   1.000  H
  C165     1.0000 0.53291  0.08830  0.09951  Biso   1.000  C
  H107     1.0000 0.49870  0.11890  0.10240  Biso   1.000  H
  C166     1.0000 0.58434  0.78340  0.33084  Biso   1.000  C
  C167     1.0000 0.63661  0.83890  0.37909  Biso   1.000  C
  C168     1.0000 0.70010  0.81470  0.39457  Biso   1.000  C
  H108     1.0000 0.71010  0.76300  0.37540  Biso   1.000  H
  C169     1.0000 0.62225  0.91600  0.40780  Biso   1.000  C
  H109     1.0000 0.58050  0.93430  0.39660  Biso   1.000  H
  C170     1.0000 0.74837  0.86780  0.43856  Biso   1.000  C
  C171     1.0000 0.66955  0.96660  0.45320  Biso   1.000  C
  C172     1.0000 0.73236  0.94240  0.46794  Biso   1.000  C
  H110     1.0000 0.76400  0.97680  0.49800  Biso   1.000  H
  C173     1.0000 0.81621  0.84620  0.45556  Biso   1.000  C
  C174     1.0000 0.84062  0.75010  0.47047  Biso   1.000  C
  H111     1.0000 0.81380  0.69680  0.46700  Biso   1.000  H
  C175     1.0000 0.85748  0.92340  0.46027  Biso   1.000  C
  H112     1.0000 0.84190  0.98810  0.45130  Biso   1.000  H
  C176     1.0000 0.92062  0.90720  0.47778  Biso   1.000  C
  H113     1.0000 0.94700  0.96020  0.47950  Biso   1.000  H
  C177     1.0000 0.90464  0.73390  0.49043  Biso   1.000  C
  H114     1.0000 0.92060  0.67010  0.50230  Biso   1.000  H
  C178     1.0000 0.94549  0.81050  0.49321  Biso   1.000  C
  C179     1.0000 0.01419  0.79230  0.50993  Biso   1.000  C
  C180     1.0000 0.65433  0.04180  0.48861  Biso   1.000  C
  Ni7      1.0000 0.87948  0.64818  0.95001  Biso   1.000  Ni
  N37      1.0000 0.98518  0.08900  0.30193  Biso   1.000  N
  N38      1.0000 0.94208  0.95840  0.32405  Biso   1.000  N
  N39      1.0000 0.66513  0.80449  0.13608  Biso   1.000  N
  N40      1.0000 0.73734  0.79860  0.22337  Biso   1.000  N
  N41      1.0000 0.90927  0.48493  0.42363  Biso   1.000  N
  N42      1.0000 0.90580  0.62300  0.37763  Biso   1.000  N
  O37      1.0000 0.90215  0.21238  0.19544  Biso   1.000  O
  O38      1.0000 0.97176  0.30647  0.18322  Biso   1.000  O
  O39      1.0000 0.46366  0.21032  0.96587  Biso   1.000  O
  O40      1.0000 0.45564  0.35739  0.00309  Biso   1.000  O
  O41      1.0000 0.80590  0.56127  0.95960  Biso   1.000  O
  O42      1.0000 0.89846  0.58369  0.03182  Biso   1.000  O
  C181     1.0000 0.92319  0.79180  0.35180  Biso   1.000  C
  H115     1.0000 0.96470  0.78920  0.37940  Biso   1.000  H
  C182     1.0000 0.90083  0.87580  0.31716  Biso   1.000  C
  C183     1.0000 0.83882  0.88120  0.27543  Biso   1.000  C
  H116     1.0000 0.82380  0.93790  0.25240  Biso   1.000  H
  C184     1.0000 0.80010  0.79900  0.26930  Biso   1.000  C
  C185     1.0000 0.82099  0.71550  0.30338  Biso   1.000  C
  H117     1.0000 0.79410  0.66190  0.29890  Biso   1.000  H
  C186     1.0000 0.88333  0.71210  0.34497  Biso   1.000  C
  C187     1.0000 0.94102  0.02100  0.28207  Biso   1.000  C
  H118     1.0000 0.91220  0.01650  0.24330  Biso   1.000  H
  C188     1.0000 0.01669  0.06930  0.36076  Biso   1.000  C
  H119     1.0000 0.05040  0.10620  0.38680  Biso   1.000  H
  C189     1.0000 0.99166  0.98950  0.37485  Biso   1.000  C
  H120     1.0000 0.00490  0.96060  0.41150  Biso   1.000  H
  C190     1.0000 0.72230  0.82820  0.16857  Biso   1.000  C
  H121     1.0000 0.74930  0.86100  0.15590  Biso   1.000  H
  C191     1.0000 0.63854  0.76750  0.17000  Biso   1.000  C
  H122     1.0000 0.59630  0.75120  0.15790  Biso   1.000  H
  C192     1.0000 0.68424  0.75850  0.22455  Biso   1.000  C
  H123     1.0000 0.68030  0.73060  0.25650  Biso   1.000  H
  C193     1.0000 0.87213  0.55560  0.39227  Biso   1.000  C
  H124     1.0000 0.82900  0.55890  0.38160  Biso   1.000  H
  C194     1.0000 0.96762  0.50270  0.42735  Biso   1.000  C
  H125     1.0000 0.00250  0.46170  0.44570  Biso   1.000  H
  C195     1.0000 0.96709  0.58830  0.40049  Biso   1.000  C
  H126     1.0000 0.00130  0.61890  0.39760  Biso   1.000  H
  C196     1.0000 0.91566  0.28340  0.16916  Biso   1.000  C
  C197     1.0000 0.86339  0.33890  0.12091  Biso   1.000  C
  C198     1.0000 0.79990  0.31470  0.10543  Biso   1.000  C
  H127     1.0000 0.78990  0.26300  0.12460  Biso   1.000  H
  C199     1.0000 0.87775  0.41600  0.09220  Biso   1.000  C
  H128     1.0000 0.91950  0.43430  0.10340  Biso   1.000  H
  C200     1.0000 0.75163  0.36780  0.06144  Biso   1.000  C
  C201     1.0000 0.83045  0.46660  0.04680  Biso   1.000  C
  C202     1.0000 0.76764  0.44240  0.03206  Biso   1.000  C
  H129     1.0000 0.73600  0.47680  0.00200  Biso   1.000  H
  C203     1.0000 0.68379  0.34620  0.04444  Biso   1.000  C
  C204     1.0000 0.65938  0.25010  0.02953  Biso   1.000  C
  H130     1.0000 0.68620  0.19680  0.03300  Biso   1.000  H
  C205     1.0000 0.64252  0.42340  0.03973  Biso   1.000  C
  H131     1.0000 0.65810  0.48810  0.04870  Biso   1.000  H
  C206     1.0000 0.57938  0.40720  0.02222  Biso   1.000  C
  H132     1.0000 0.55300  0.46020  0.02050  Biso   1.000  H
  C207     1.0000 0.59536  0.23390  0.00957  Biso   1.000  C
  H133     1.0000 0.57940  0.17010  0.99770  Biso   1.000  H
  C208     1.0000 0.55451  0.31050  0.00679  Biso   1.000  C
  C209     1.0000 0.48581  0.29230  0.99007  Biso   1.000  C
  C210     1.0000 0.84567  0.54180  0.01139  Biso   1.000  C
  Ni8      1.0000 0.37948  0.14818  0.95001  Biso   1.000  Ni
  N43      1.0000 0.48518  0.58900  0.30193  Biso   1.000  N
  N44      1.0000 0.44208  0.45840  0.32405  Biso   1.000  N
  N45      1.0000 0.16513  0.30449  0.13608  Biso   1.000  N
  N46      1.0000 0.23734  0.29860  0.22337  Biso   1.000  N
  N47      1.0000 0.40927  0.98493  0.42363  Biso   1.000  N
  N48      1.0000 0.40580  0.12300  0.37763  Biso   1.000  N
  O43      1.0000 0.40215  0.71238  0.19544  Biso   1.000  O
  O44      1.0000 0.47176  0.80647  0.18322  Biso   1.000  O
  O45      1.0000 0.96366  0.71032  0.96587  Biso   1.000  O
  O46      1.0000 0.95564  0.85739  0.00309  Biso   1.000  O
  O47      1.0000 0.30590  0.06127  0.95960  Biso   1.000  O
  O48      1.0000 0.39846  0.08369  0.03182  Biso   1.000  O
  C211     1.0000 0.42319  0.29180  0.35180  Biso   1.000  C
  H134     1.0000 0.46470  0.28920  0.37940  Biso   1.000  H
  C212     1.0000 0.40083  0.37580  0.31716  Biso   1.000  C
  C213     1.0000 0.33882  0.38120  0.27543  Biso   1.000  C
  H135     1.0000 0.32380  0.43790  0.25240  Biso   1.000  H
  C214     1.0000 0.30010  0.29900  0.26930  Biso   1.000  C
  C215     1.0000 0.32099  0.21550  0.30338  Biso   1.000  C
  H136     1.0000 0.29410  0.16190  0.29890  Biso   1.000  H
  C216     1.0000 0.38333  0.21210  0.34497  Biso   1.000  C
  C217     1.0000 0.44102  0.52100  0.28207  Biso   1.000  C
  H137     1.0000 0.41220  0.51650  0.24330  Biso   1.000  H
  C218     1.0000 0.51669  0.56930  0.36076  Biso   1.000  C
  H138     1.0000 0.55040  0.60620  0.38680  Biso   1.000  H
  C219     1.0000 0.49166  0.48950  0.37485  Biso   1.000  C
  H139     1.0000 0.50490  0.46060  0.41150  Biso   1.000  H
  C220     1.0000 0.22230  0.32820  0.16857  Biso   1.000  C
  H140     1.0000 0.24930  0.36100  0.15590  Biso   1.000  H
  C221     1.0000 0.13854  0.26750  0.17000  Biso   1.000  C
  H141     1.0000 0.09630  0.25120  0.15790  Biso   1.000  H
  C222     1.0000 0.18424  0.25850  0.22455  Biso   1.000  C
  H142     1.0000 0.18030  0.23060  0.25650  Biso   1.000  H
  C223     1.0000 0.37213  0.05560  0.39227  Biso   1.000  C
  H143     1.0000 0.32900  0.05890  0.38160  Biso   1.000  H
  C224     1.0000 0.46762  0.00270  0.42735  Biso   1.000  C
  H144     1.0000 0.50250  0.96170  0.44570  Biso   1.000  H
  C225     1.0000 0.46709  0.08830  0.40049  Biso   1.000  C
  H145     1.0000 0.50130  0.11890  0.39760  Biso   1.000  H
  C226     1.0000 0.41566  0.78340  0.16916  Biso   1.000  C
  C227     1.0000 0.36339  0.83890  0.12091  Biso   1.000  C
  C228     1.0000 0.29990  0.81470  0.10543  Biso   1.000  C
  H146     1.0000 0.28990  0.76300  0.12460  Biso   1.000  H
  C229     1.0000 0.37775  0.91600  0.09220  Biso   1.000  C
  H147     1.0000 0.41950  0.93430  0.10340  Biso   1.000  H
  C230     1.0000 0.25163  0.86780  0.06144  Biso   1.000  C
  C231     1.0000 0.33045  0.96660  0.04680  Biso   1.000  C
  C232     1.0000 0.26764  0.94240  0.03206  Biso   1.000  C
  H148     1.0000 0.23600  0.97680  0.00200  Biso   1.000  H
  C233     1.0000 0.18379  0.84620  0.04444  Biso   1.000  C
  C234     1.0000 0.15938  0.75010  0.02953  Biso   1.000  C
  H149     1.0000 0.18620  0.69680  0.03300  Biso   1.000  H
  C235     1.0000 0.14252  0.92340  0.03973  Biso   1.000  C
  H150     1.0000 0.15810  0.98810  0.04870  Biso   1.000  H
  C236     1.0000 0.07938  0.90720  0.02222  Biso   1.000  C
  H151     1.0000 0.05300  0.96020  0.02050  Biso   1.000  H
  C237     1.0000 0.09536  0.73390  0.00957  Biso   1.000  C
  H152     1.0000 0.07940  0.67010  0.99770  Biso   1.000  H
  C238     1.0000 0.05451  0.81050  0.00679  Biso   1.000  C
  C239     1.0000 0.98581  0.79230  0.99007  Biso   1.000  C
  C240     1.0000 0.34567  0.04180  0.01139  Biso   1.000  C
  Ni9      1.0000 0.00000  0.80650  0.75000  Biso   1.000  Ni
  Ni10     1.0000 0.50000  0.30650  0.75000  Biso   1.000  Ni
  Ni11     1.0000 0.00000  0.19350  0.25000  Biso   1.000  Ni
  Ni12     1.0000 0.50000  0.69350  0.25000  Biso   1.000  Ni
