data_image0
_cell_length_a       8.3661
_cell_length_b       29.139
_cell_length_c       18.8583
_cell_angle_alpha    90
_cell_angle_beta     94.307
_cell_angle_gamma    90

_symmetry_space_group_name_H-M    "P 1"
_symmetry_int_tables_number       1

loop_
  _symmetry_equiv_pos_as_xyz
  'x, y, z'

loop_
  _atom_site_label
  _atom_site_occupancy
  _atom_site_fract_x
  _atom_site_fract_y
  _atom_site_fract_z
  _atom_site_thermal_displace_type
  _atom_site_B_iso_or_equiv
  _atom_site_type_symbol
  Ni1      1.0000 0.02097  0.74354  0.72388  Biso   1.000  Ni
  N1       1.0000 0.21040  0.51525  0.45409  Biso   1.000  N
  N2       1.0000 0.42040  0.55753  0.43398  Biso   1.000  N
  N3       1.0000 0.82660  0.72767  0.26475  Biso   1.000  N
  N4       1.0000 0.68580  0.68903  0.33822  Biso   1.000  N
  N5       1.0000 0.89580  0.69150  0.67550  Biso   1.000  N
  N6       1.0000 0.76360  0.65361  0.58925  Biso   1.000  N
  O1       1.0000 0.87240  0.51214  0.40532  Biso   1.000  O
  O2       1.0000 0.93280  0.58619  0.39258  Biso   1.000  O
  O3       1.0000 0.10400  0.71040  0.81409  Biso   1.000  O
  O4       1.0000 0.24520  0.70206  0.72174  Biso   1.000  O
  O5       1.0000 0.98220  0.28660  0.86442  Biso   1.000  O
  O6       1.0000 0.84220  0.30613  0.76658  Biso   1.000  O
  C1       1.0000 0.59830  0.60444  0.51000  Biso   1.000  C
  H1       1.0000 0.58200  0.58490  0.54780  Biso   1.000  H
  C2       1.0000 0.52800  0.59538  0.44313  Biso   1.000  C
  C3       1.0000 0.55350  0.62313  0.38544  Biso   1.000  C
  H2       1.0000 0.50590  0.61670  0.34040  Biso   1.000  H
  C4       1.0000 0.65220  0.66066  0.39737  Biso   1.000  C
  C5       1.0000 0.72130  0.67163  0.46364  Biso   1.000  C
  H3       1.0000 0.78510  0.69760  0.47030  Biso   1.000  H
  C6       1.0000 0.69390  0.64308  0.52023  Biso   1.000  C
  C7       1.0000 0.31120  0.54627  0.48035  Biso   1.000  C
  H4       1.0000 0.30800  0.55900  0.52540  Biso   1.000  H
  C8       1.0000 0.25640  0.50606  0.38720  Biso   1.000  C
  H5       1.0000 0.20600  0.48520  0.35560  Biso   1.000  H
  C9       1.0000 0.38510  0.53166  0.37400  Biso   1.000  C
  H6       1.0000 0.43900  0.53180  0.33260  Biso   1.000  H
  C10      1.0000 0.83190  0.70413  0.32410  Biso   1.000  C
  H7       1.0000 0.92510  0.69860  0.35290  Biso   1.000  H
  C11      1.0000 0.57960  0.70424  0.28400  Biso   1.000  C
  H8       1.0000 0.46960  0.69910  0.27890  Biso   1.000  H
  C12      1.0000 0.66810  0.72812  0.23980  Biso   1.000  C
  H9       1.0000 0.62760  0.74280  0.19850  Biso   1.000  H
  C13      1.0000 0.85010  0.69056  0.60817  Biso   1.000  C
  H10      1.0000 0.87530  0.71340  0.57640  Biso   1.000  H
  C14      1.0000 0.83880  0.65228  0.70180  Biso   1.000  C
  H11      1.0000 0.85280  0.64310  0.74910  Biso   1.000  H
  C15      1.0000 0.75940  0.62876  0.65010  Biso   1.000  C
  H12      1.0000 0.71000  0.60040  0.65470  Biso   1.000  H
  C16      1.0000 0.82680  0.54507  0.29140  Biso   1.000  C
  C17      1.0000 0.79110  0.50282  0.26063  Biso   1.000  C
  H13      1.0000 0.79310  0.47660  0.28880  Biso   1.000  H
  C18      1.0000 0.75230  0.49926  0.18799  Biso   1.000  C
  H14      1.0000 0.72730  0.47070  0.16820  Biso   1.000  H
  C19      1.0000 0.75020  0.53769  0.14431  Biso   1.000  C
  C20      1.0000 0.77960  0.57993  0.17613  Biso   1.000  C
  H15      1.0000 0.77330  0.60640  0.14840  Biso   1.000  H
  C21      1.0000 0.81820  0.58347  0.24838  Biso   1.000  C
  H16      1.0000 0.83880  0.61220  0.26840  Biso   1.000  H
  C22      1.0000 0.71950  0.53332  0.06593  Biso   1.000  C
  C23      1.0000 0.76690  0.49371  0.03161  Biso   1.000  C
  H17      1.0000 0.81660  0.47020  0.05840  Biso   1.000  H
  C24      1.0000 0.74160  0.48842  0.95826  Biso   1.000  C
  C25      1.0000 0.66790  0.52417  0.91915  Biso   1.000  C
  H18      1.0000 0.65160  0.52130  0.87000  Biso   1.000  H
  C26      1.0000 0.61830  0.56382  0.95155  Biso   1.000  C
  C27      1.0000 0.64580  0.56819  0.02506  Biso   1.000  C
  H19      1.0000 0.61440  0.59490  0.04720  Biso   1.000  H
  C28      1.0000 0.52550  0.59933  0.90928  Biso   1.000  C
  C29      1.0000 0.55040  0.60782  0.83830  Biso   1.000  C
  H20      1.0000 0.63240  0.59260  0.81720  Biso   1.000  H
  C30      1.0000 0.45430  0.63865  0.79872  Biso   1.000  C
  H21      1.0000 0.47220  0.64380  0.75130  Biso   1.000  H
  C31      1.0000 0.33190  0.66189  0.82881  Biso   1.000  C
  C32      1.0000 0.30810  0.65398  0.89950  Biso   1.000  C
  H22      1.0000 0.22650  0.66930  0.92060  Biso   1.000  H
  C33      1.0000 0.40420  0.62361  0.93894  Biso   1.000  C
  H23      1.0000 0.38760  0.61920  0.98670  Biso   1.000  H
  C34      1.0000 0.22230  0.69317  0.78551  Biso   1.000  C
  C35      1.0000 0.78390  0.44478  0.92433  Biso   1.000  C
  C36      1.0000 0.69890  0.42945  0.86240  Biso   1.000  C
  H24      1.0000 0.61760  0.44760  0.84100  Biso   1.000  H
  C37      1.0000 0.73360  0.38766  0.83220  Biso   1.000  C
  H25      1.0000 0.67580  0.37820  0.79070  Biso   1.000  H
  C38      1.0000 0.85300  0.35981  0.86291  Biso   1.000  C
  C39      1.0000 0.93730  0.37438  0.92507  Biso   1.000  C
  H26      1.0000 0.01620  0.35570  0.94710  Biso   1.000  H
  C40      1.0000 0.90470  0.41665  0.95453  Biso   1.000  C
  H27      1.0000 0.96480  0.42630  0.99530  Biso   1.000  H
  C41      1.0000 0.89320  0.31541  0.82976  Biso   1.000  C
  C42      1.0000 0.88140  0.54836  0.36932  Biso   1.000  C
  Ni2      1.0000 0.97903  0.24354  0.77612  Biso   1.000  Ni
  N7       1.0000 0.78960  0.01525  0.04591  Biso   1.000  N
  N8       1.0000 0.57960  0.05753  0.06602  Biso   1.000  N
  N9       1.0000 0.17340  0.22767  0.23525  Biso   1.000  N
  N10      1.0000 0.31420  0.18903  0.16178  Biso   1.000  N
  N11      1.0000 0.10420  0.19150  0.82450  Biso   1.000  N
  N12      1.0000 0.23640  0.15361  0.91075  Biso   1.000  N
  O7       1.0000 0.12760  0.01214  0.09468  Biso   1.000  O
  O8       1.0000 0.06720  0.08619  0.10742  Biso   1.000  O
  O9       1.0000 0.89600  0.21040  0.68591  Biso   1.000  O
  O10      1.0000 0.75480  0.20206  0.77826  Biso   1.000  O
  O11      1.0000 0.01780  0.78660  0.63558  Biso   1.000  O
  O12      1.0000 0.15780  0.80613  0.73342  Biso   1.000  O
  C43      1.0000 0.40170  0.10444  0.99000  Biso   1.000  C
  H28      1.0000 0.41800  0.08490  0.95220  Biso   1.000  H
  C44      1.0000 0.47200  0.09538  0.05687  Biso   1.000  C
  C45      1.0000 0.44650  0.12313  0.11456  Biso   1.000  C
  H29      1.0000 0.49410  0.11670  0.15960  Biso   1.000  H
  C46      1.0000 0.34780  0.16066  0.10263  Biso   1.000  C
  C47      1.0000 0.27870  0.17163  0.03636  Biso   1.000  C
  H30      1.0000 0.21490  0.19760  0.02970  Biso   1.000  H
  C48      1.0000 0.30610  0.14308  0.97977  Biso   1.000  C
  C49      1.0000 0.68880  0.04627  0.01965  Biso   1.000  C
  H31      1.0000 0.69200  0.05900  0.97460  Biso   1.000  H
  C50      1.0000 0.74360  0.00606  0.11280  Biso   1.000  C
  H32      1.0000 0.79400  0.98520  0.14440  Biso   1.000  H
  C51      1.0000 0.61490  0.03166  0.12600  Biso   1.000  C
  H33      1.0000 0.56100  0.03180  0.16740  Biso   1.000  H
  C52      1.0000 0.16810  0.20413  0.17590  Biso   1.000  C
  H34      1.0000 0.07490  0.19860  0.14710  Biso   1.000  H
  C53      1.0000 0.42040  0.20424  0.21600  Biso   1.000  C
  H35      1.0000 0.53040  0.19910  0.22110  Biso   1.000  H
  C54      1.0000 0.33190  0.22812  0.26020  Biso   1.000  C
  H36      1.0000 0.37240  0.24280  0.30150  Biso   1.000  H
  C55      1.0000 0.14990  0.19056  0.89183  Biso   1.000  C
  H37      1.0000 0.12470  0.21340  0.92360  Biso   1.000  H
  C56      1.0000 0.16120  0.15228  0.79820  Biso   1.000  C
  H38      1.0000 0.14720  0.14310  0.75090  Biso   1.000  H
  C57      1.0000 0.24060  0.12876  0.84990  Biso   1.000  C
  H39      1.0000 0.29000  0.10040  0.84530  Biso   1.000  H
  C58      1.0000 0.17320  0.04507  0.20860  Biso   1.000  C
  C59      1.0000 0.20890  0.00282  0.23937  Biso   1.000  C
  H40      1.0000 0.20690  0.97660  0.21120  Biso   1.000  H
  C60      1.0000 0.24770  0.99926  0.31201  Biso   1.000  C
  H41      1.0000 0.27270  0.97070  0.33180  Biso   1.000  H
  C61      1.0000 0.24980  0.03769  0.35569  Biso   1.000  C
  C62      1.0000 0.22040  0.07993  0.32387  Biso   1.000  C
  H42      1.0000 0.22670  0.10640  0.35160  Biso   1.000  H
  C63      1.0000 0.18180  0.08347  0.25162  Biso   1.000  C
  H43      1.0000 0.16120  0.11220  0.23160  Biso   1.000  H
  C64      1.0000 0.28050  0.03332  0.43407  Biso   1.000  C
  C65      1.0000 0.23310  0.99371  0.46839  Biso   1.000  C
  H44      1.0000 0.18340  0.97020  0.44160  Biso   1.000  H
  C66      1.0000 0.25840  0.98842  0.54174  Biso   1.000  C
  C67      1.0000 0.33210  0.02417  0.58085  Biso   1.000  C
  H45      1.0000 0.34840  0.02130  0.63000  Biso   1.000  H
  C68      1.0000 0.38170  0.06382  0.54845  Biso   1.000  C
  C69      1.0000 0.35420  0.06819  0.47494  Biso   1.000  C
  H46      1.0000 0.38560  0.09490  0.45280  Biso   1.000  H
  C70      1.0000 0.47450  0.09933  0.59072  Biso   1.000  C
  C71      1.0000 0.44960  0.10782  0.66170  Biso   1.000  C
  H47      1.0000 0.36760  0.09260  0.68280  Biso   1.000  H
  C72      1.0000 0.54570  0.13865  0.70128  Biso   1.000  C
  H48      1.0000 0.52780  0.14380  0.74870  Biso   1.000  H
  C73      1.0000 0.66810  0.16189  0.67119  Biso   1.000  C
  C74      1.0000 0.69190  0.15398  0.60050  Biso   1.000  C
  H49      1.0000 0.77350  0.16930  0.57940  Biso   1.000  H
  C75      1.0000 0.59580  0.12361  0.56106  Biso   1.000  C
  H50      1.0000 0.61240  0.11920  0.51330  Biso   1.000  H
  C76      1.0000 0.77770  0.19317  0.71449  Biso   1.000  C
  C77      1.0000 0.21610  0.94478  0.57567  Biso   1.000  C
  C78      1.0000 0.30110  0.92945  0.63760  Biso   1.000  C
  H51      1.0000 0.38240  0.94760  0.65900  Biso   1.000  H
  C79      1.0000 0.26640  0.88766  0.66780  Biso   1.000  C
  H52      1.0000 0.32420  0.87820  0.70930  Biso   1.000  H
  C80      1.0000 0.14700  0.85981  0.63709  Biso   1.000  C
  C81      1.0000 0.06270  0.87438  0.57493  Biso   1.000  C
  H53      1.0000 0.98380  0.85570  0.55290  Biso   1.000  H
  C82      1.0000 0.09530  0.91665  0.54547  Biso   1.000  C
  H54      1.0000 0.03520  0.92630  0.50470  Biso   1.000  H
  C83      1.0000 0.10680  0.81541  0.67024  Biso   1.000  C
  C84      1.0000 0.11860  0.04836  0.13068  Biso   1.000  C
  Ni3      1.0000 0.97903  0.25646  0.27612  Biso   1.000  Ni
  N13      1.0000 0.78960  0.48475  0.54591  Biso   1.000  N
  N14      1.0000 0.57960  0.44247  0.56602  Biso   1.000  N
  N15      1.0000 0.17340  0.27233  0.73525  Biso   1.000  N
  N16      1.0000 0.31420  0.31097  0.66178  Biso   1.000  N
  N17      1.0000 0.10420  0.30850  0.32450  Biso   1.000  N
  N18      1.0000 0.23640  0.34639  0.41075  Biso   1.000  N
  O13      1.0000 0.12760  0.48786  0.59468  Biso   1.000  O
  O14      1.0000 0.06720  0.41381  0.60742  Biso   1.000  O
  O15      1.0000 0.89600  0.28960  0.18591  Biso   1.000  O
  O16      1.0000 0.75480  0.29794  0.27826  Biso   1.000  O
  O17      1.0000 0.01780  0.71340  0.13558  Biso   1.000  O
  O18      1.0000 0.15780  0.69387  0.23342  Biso   1.000  O
  C85      1.0000 0.40170  0.39556  0.49000  Biso   1.000  C
  H55      1.0000 0.41800  0.41510  0.45220  Biso   1.000  H
  C86      1.0000 0.47200  0.40462  0.55687  Biso   1.000  C
  C87      1.0000 0.44650  0.37687  0.61456  Biso   1.000  C
  H56      1.0000 0.49410  0.38330  0.65960  Biso   1.000  H
  C88      1.0000 0.34780  0.33934  0.60263  Biso   1.000  C
  C89      1.0000 0.27870  0.32837  0.53636  Biso   1.000  C
  H57      1.0000 0.21490  0.30240  0.52970  Biso   1.000  H
  C90      1.0000 0.30610  0.35692  0.47977  Biso   1.000  C
  C91      1.0000 0.68880  0.45373  0.51965  Biso   1.000  C
  H58      1.0000 0.69200  0.44100  0.47460  Biso   1.000  H
  C92      1.0000 0.74360  0.49394  0.61280  Biso   1.000  C
  H59      1.0000 0.79400  0.51480  0.64440  Biso   1.000  H
  C93      1.0000 0.61490  0.46834  0.62600  Biso   1.000  C
  H60      1.0000 0.56100  0.46820  0.66740  Biso   1.000  H
  C94      1.0000 0.16810  0.29587  0.67590  Biso   1.000  C
  H61      1.0000 0.07490  0.30140  0.64710  Biso   1.000  H
  C95      1.0000 0.42040  0.29576  0.71600  Biso   1.000  C
  H62      1.0000 0.53040  0.30090  0.72110  Biso   1.000  H
  C96      1.0000 0.33190  0.27188  0.76020  Biso   1.000  C
  H63      1.0000 0.37240  0.25720  0.80150  Biso   1.000  H
  C97      1.0000 0.14990  0.30944  0.39183  Biso   1.000  C
  H64      1.0000 0.12470  0.28660  0.42360  Biso   1.000  H
  C98      1.0000 0.16120  0.34772  0.29820  Biso   1.000  C
  H65      1.0000 0.14720  0.35690  0.25090  Biso   1.000  H
  C99      1.0000 0.24060  0.37124  0.34990  Biso   1.000  C
  H66      1.0000 0.29000  0.39960  0.34530  Biso   1.000  H
  C100     1.0000 0.17320  0.45493  0.70860  Biso   1.000  C
  C101     1.0000 0.20890  0.49718  0.73937  Biso   1.000  C
  H67      1.0000 0.20690  0.52340  0.71120  Biso   1.000  H
  C102     1.0000 0.24770  0.50074  0.81201  Biso   1.000  C
  H68      1.0000 0.27270  0.52930  0.83180  Biso   1.000  H
  C103     1.0000 0.24980  0.46231  0.85569  Biso   1.000  C
  C104     1.0000 0.22040  0.42007  0.82387  Biso   1.000  C
  H69      1.0000 0.22670  0.39360  0.85160  Biso   1.000  H
  C105     1.0000 0.18180  0.41653  0.75162  Biso   1.000  C
  H70      1.0000 0.16120  0.38780  0.73160  Biso   1.000  H
  C106     1.0000 0.28050  0.46668  0.93407  Biso   1.000  C
  C107     1.0000 0.23310  0.50629  0.96839  Biso   1.000  C
  H71      1.0000 0.18340  0.52980  0.94160  Biso   1.000  H
  C108     1.0000 0.25840  0.51158  0.04174  Biso   1.000  C
  C109     1.0000 0.33210  0.47583  0.08085  Biso   1.000  C
  H72      1.0000 0.34840  0.47870  0.13000  Biso   1.000  H
  C110     1.0000 0.38170  0.43618  0.04845  Biso   1.000  C
  C111     1.0000 0.35420  0.43181  0.97494  Biso   1.000  C
  H73      1.0000 0.38560  0.40510  0.95280  Biso   1.000  H
  C112     1.0000 0.47450  0.40067  0.09072  Biso   1.000  C
  C113     1.0000 0.44960  0.39218  0.16170  Biso   1.000  C
  H74      1.0000 0.36760  0.40740  0.18280  Biso   1.000  H
  C114     1.0000 0.54570  0.36135  0.20128  Biso   1.000  C
  H75      1.0000 0.52780  0.35620  0.24870  Biso   1.000  H
  C115     1.0000 0.66810  0.33811  0.17119  Biso   1.000  C
  C116     1.0000 0.69190  0.34602  0.10050  Biso   1.000  C
  H76      1.0000 0.77350  0.33070  0.07940  Biso   1.000  H
  C117     1.0000 0.59580  0.37639  0.06106  Biso   1.000  C
  H77      1.0000 0.61240  0.38080  0.01330  Biso   1.000  H
  C118     1.0000 0.77770  0.30683  0.21449  Biso   1.000  C
  C119     1.0000 0.21610  0.55522  0.07567  Biso   1.000  C
  C120     1.0000 0.30110  0.57055  0.13760  Biso   1.000  C
  H78      1.0000 0.38240  0.55240  0.15900  Biso   1.000  H
  C121     1.0000 0.26640  0.61234  0.16780  Biso   1.000  C
  H79      1.0000 0.32420  0.62180  0.20930  Biso   1.000  H
  C122     1.0000 0.14700  0.64019  0.13709  Biso   1.000  C
  C123     1.0000 0.06270  0.62562  0.07493  Biso   1.000  C
  H80      1.0000 0.98380  0.64430  0.05290  Biso   1.000  H
  C124     1.0000 0.09530  0.58335  0.04547  Biso   1.000  C
  H81      1.0000 0.03520  0.57370  0.00470  Biso   1.000  H
  C125     1.0000 0.10680  0.68459  0.17024  Biso   1.000  C
  C126     1.0000 0.11860  0.45164  0.63068  Biso   1.000  C
  Ni4      1.0000 0.02097  0.75646  0.22388  Biso   1.000  Ni
  N19      1.0000 0.21040  0.98475  0.95409  Biso   1.000  N
  N20      1.0000 0.42040  0.94247  0.93398  Biso   1.000  N
  N21      1.0000 0.82660  0.77233  0.76475  Biso   1.000  N
  N22      1.0000 0.68580  0.81097  0.83822  Biso   1.000  N
  N23      1.0000 0.89580  0.80850  0.17550  Biso   1.000  N
  N24      1.0000 0.76360  0.84639  0.08925  Biso   1.000  N
  O19      1.0000 0.87240  0.98786  0.90532  Biso   1.000  O
  O20      1.0000 0.93280  0.91381  0.89258  Biso   1.000  O
  O21      1.0000 0.10400  0.78960  0.31409  Biso   1.000  O
  O22      1.0000 0.24520  0.79794  0.22174  Biso   1.000  O
  O23      1.0000 0.98220  0.21340  0.36442  Biso   1.000  O
  O24      1.0000 0.84220  0.19387  0.26658  Biso   1.000  O
  C127     1.0000 0.59830  0.89556  0.01000  Biso   1.000  C
  H82      1.0000 0.58200  0.91510  0.04780  Biso   1.000  H
  C128     1.0000 0.52800  0.90462  0.94313  Biso   1.000  C
  C129     1.0000 0.55350  0.87687  0.88544  Biso   1.000  C
  H83      1.0000 0.50590  0.88330  0.84040  Biso   1.000  H
  C130     1.0000 0.65220  0.83934  0.89737  Biso   1.000  C
  C131     1.0000 0.72130  0.82837  0.96364  Biso   1.000  C
  H84      1.0000 0.78510  0.80240  0.97030  Biso   1.000  H
  C132     1.0000 0.69390  0.85692  0.02023  Biso   1.000  C
  C133     1.0000 0.31120  0.95373  0.98035  Biso   1.000  C
  H85      1.0000 0.30800  0.94100  0.02540  Biso   1.000  H
  C134     1.0000 0.25640  0.99394  0.88720  Biso   1.000  C
  H86      1.0000 0.20600  0.01480  0.85560  Biso   1.000  H
  C135     1.0000 0.38510  0.96834  0.87400  Biso   1.000  C
  H87      1.0000 0.43900  0.96820  0.83260  Biso   1.000  H
  C136     1.0000 0.83190  0.79587  0.82410  Biso   1.000  C
  H88      1.0000 0.92510  0.80140  0.85290  Biso   1.000  H
  C137     1.0000 0.57960  0.79576  0.78400  Biso   1.000  C
  H89      1.0000 0.46960  0.80090  0.77890  Biso   1.000  H
  C138     1.0000 0.66810  0.77188  0.73980  Biso   1.000  C
  H90      1.0000 0.62760  0.75720  0.69850  Biso   1.000  H
  C139     1.0000 0.85010  0.80944  0.10817  Biso   1.000  C
  H91      1.0000 0.87530  0.78660  0.07640  Biso   1.000  H
  C140     1.0000 0.83880  0.84772  0.20180  Biso   1.000  C
  H92      1.0000 0.85280  0.85690  0.24910  Biso   1.000  H
  C141     1.0000 0.75940  0.87124  0.15010  Biso   1.000  C
  H93      1.0000 0.71000  0.89960  0.15470  Biso   1.000  H
  C142     1.0000 0.82680  0.95493  0.79140  Biso   1.000  C
  C143     1.0000 0.79110  0.99718  0.76063  Biso   1.000  C
  H94      1.0000 0.79310  0.02340  0.78880  Biso   1.000  H
  C144     1.0000 0.75230  0.00074  0.68799  Biso   1.000  C
  H95      1.0000 0.72730  0.02930  0.66820  Biso   1.000  H
  C145     1.0000 0.75020  0.96231  0.64431  Biso   1.000  C
  C146     1.0000 0.77960  0.92007  0.67613  Biso   1.000  C
  H96      1.0000 0.77330  0.89360  0.64840  Biso   1.000  H
  C147     1.0000 0.81820  0.91653  0.74838  Biso   1.000  C
  H97      1.0000 0.83880  0.88780  0.76840  Biso   1.000  H
  C148     1.0000 0.71950  0.96668  0.56593  Biso   1.000  C
  C149     1.0000 0.76690  0.00629  0.53161  Biso   1.000  C
  H98      1.0000 0.81660  0.02980  0.55840  Biso   1.000  H
  C150     1.0000 0.74160  0.01158  0.45826  Biso   1.000  C
  C151     1.0000 0.66790  0.97583  0.41915  Biso   1.000  C
  H99      1.0000 0.65160  0.97870  0.37000  Biso   1.000  H
  C152     1.0000 0.61830  0.93618  0.45155  Biso   1.000  C
  C153     1.0000 0.64580  0.93181  0.52506  Biso   1.000  C
  H100     1.0000 0.61440  0.90510  0.54720  Biso   1.000  H
  C154     1.0000 0.52550  0.90067  0.40928  Biso   1.000  C
  C155     1.0000 0.55040  0.89218  0.33830  Biso   1.000  C
  H101     1.0000 0.63240  0.90740  0.31720  Biso   1.000  H
  C156     1.0000 0.45430  0.86135  0.29872  Biso   1.000  C
  H102     1.0000 0.47220  0.85620  0.25130  Biso   1.000  H
  C157     1.0000 0.33190  0.83811  0.32881  Biso   1.000  C
  C158     1.0000 0.30810  0.84602  0.39950  Biso   1.000  C
  H103     1.0000 0.22650  0.83070  0.42060  Biso   1.000  H
  C159     1.0000 0.40420  0.87639  0.43894  Biso   1.000  C
  H104     1.0000 0.38760  0.88080  0.48670  Biso   1.000  H
  C160     1.0000 0.22230  0.80683  0.28551  Biso   1.000  C
  C161     1.0000 0.78390  0.05522  0.42433  Biso   1.000  C
  C162     1.0000 0.69890  0.07055  0.36240  Biso   1.000  C
  H105     1.0000 0.61760  0.05240  0.34100  Biso   1.000  H
  C163     1.0000 0.73360  0.11234  0.33220  Biso   1.000  C
  H106     1.0000 0.67580  0.12180  0.29070  Biso   1.000  H
  C164     1.0000 0.85300  0.14019  0.36291  Biso   1.000  C
  C165     1.0000 0.93730  0.12562  0.42507  Biso   1.000  C
  H107     1.0000 0.01620  0.14430  0.44710  Biso   1.000  H
  C166     1.0000 0.90470  0.08335  0.45453  Biso   1.000  C
  H108     1.0000 0.96480  0.07370  0.49530  Biso   1.000  H
  C167     1.0000 0.89320  0.18459  0.32976  Biso   1.000  C
  C168     1.0000 0.88140  0.95164  0.86932  Biso   1.000  C
  Ni5      1.0000 0.00000  0.50000  0.50000  Biso   1.000  Ni
  Ni6      1.0000 0.00000  0.00000  0.00000  Biso   1.000  Ni
