data_image0
_cell_length_a       30.907
_cell_length_b       11.1447
_cell_length_c       7.4349
_cell_angle_alpha    90
_cell_angle_beta     92.63
_cell_angle_gamma    90

_symmetry_space_group_name_H-M    "P 1"
_symmetry_int_tables_number       1

loop_
  _symmetry_equiv_pos_as_xyz
  'x, y, z'

loop_
  _atom_site_label
  _atom_site_occupancy
  _atom_site_fract_x
  _atom_site_fract_y
  _atom_site_fract_z
  _atom_site_thermal_displace_type
  _atom_site_B_iso_or_equiv
  _atom_site_type_symbol
  Mo1      1.0000 0.79131  0.98501  0.82655  Biso   1.000  Mo
  Mo2      1.0000 0.90937  0.97686  0.76878  Biso   1.000  Mo
  O1       1.0000 0.76508  0.86450  0.71890  Biso   1.000  O
  O2       1.0000 0.75141  0.09600  0.84580  Biso   1.000  O
  O3       1.0000 0.79812  0.93950  0.05160  Biso   1.000  O
  O4       1.0000 0.85226  0.93370  0.77360  Biso   1.000  O
  O5       1.0000 0.90917  0.04320  0.55240  Biso   1.000  O
  O6       1.0000 0.96093  0.07490  0.85210  Biso   1.000  O
  N1       1.0000 0.89721  0.63370  0.00820  Biso   1.000  N
  N2       1.0000 0.81898  0.25970  0.93790  Biso   1.000  N
  N3       1.0000 0.83352  0.15180  0.88940  Biso   1.000  N
  N4       1.0000 0.87535  0.15710  0.86460  Biso   1.000  N
  N5       1.0000 0.88945  0.26640  0.89430  Biso   1.000  N
  H1       1.0000 0.91550  0.29270  0.88740  Biso   1.000  H
  C1       1.0000 0.85560  0.45800  0.96530  Biso   1.000  C
  C2       1.0000 0.89527  0.51230  0.99740  Biso   1.000  C
  H2       1.0000 0.92030  0.46640  0.01140  Biso   1.000  H
  C3       1.0000 0.86158  0.70220  0.99280  Biso   1.000  C
  H3       1.0000 0.86410  0.78510  0.00300  Biso   1.000  H
  C4       1.0000 0.82189  0.65200  0.96230  Biso   1.000  C
  H4       1.0000 0.79720  0.69950  0.95150  Biso   1.000  H
  C5       1.0000 0.81905  0.52690  0.94730  Biso   1.000  C
  H5       1.0000 0.79220  0.49060  0.92510  Biso   1.000  H
  C6       1.0000 0.85434  0.32810  0.93770  Biso   1.000  C
  Mo3      1.0000 0.29131  0.48501  0.82655  Biso   1.000  Mo
  Mo4      1.0000 0.40937  0.47686  0.76878  Biso   1.000  Mo
  O7       1.0000 0.26508  0.36450  0.71890  Biso   1.000  O
  O8       1.0000 0.25141  0.59600  0.84580  Biso   1.000  O
  O9       1.0000 0.29812  0.43950  0.05160  Biso   1.000  O
  O10      1.0000 0.35226  0.43370  0.77360  Biso   1.000  O
  O11      1.0000 0.40917  0.54320  0.55240  Biso   1.000  O
  O12      1.0000 0.46093  0.57490  0.85210  Biso   1.000  O
  N6       1.0000 0.39721  0.13370  0.00820  Biso   1.000  N
  N7       1.0000 0.31898  0.75970  0.93790  Biso   1.000  N
  N8       1.0000 0.33352  0.65180  0.88940  Biso   1.000  N
  N9       1.0000 0.37535  0.65710  0.86460  Biso   1.000  N
  N10      1.0000 0.38945  0.76640  0.89430  Biso   1.000  N
  H6       1.0000 0.41550  0.79270  0.88740  Biso   1.000  H
  C7       1.0000 0.35560  0.95800  0.96530  Biso   1.000  C
  C8       1.0000 0.39527  0.01230  0.99740  Biso   1.000  C
  H7       1.0000 0.42030  0.96640  0.01140  Biso   1.000  H
  C9       1.0000 0.36158  0.20220  0.99280  Biso   1.000  C
  H8       1.0000 0.36410  0.28510  0.00300  Biso   1.000  H
  C10      1.0000 0.32189  0.15200  0.96230  Biso   1.000  C
  H9       1.0000 0.29720  0.19950  0.95150  Biso   1.000  H
  C11      1.0000 0.31905  0.02690  0.94730  Biso   1.000  C
  H10      1.0000 0.29220  0.99060  0.92510  Biso   1.000  H
  C12      1.0000 0.35434  0.82810  0.93770  Biso   1.000  C
  Mo5      1.0000 0.20869  0.98501  0.67345  Biso   1.000  Mo
  Mo6      1.0000 0.09063  0.97686  0.73122  Biso   1.000  Mo
  O13      1.0000 0.23492  0.86450  0.78110  Biso   1.000  O
  O14      1.0000 0.24859  0.09600  0.65420  Biso   1.000  O
  O15      1.0000 0.20188  0.93950  0.44840  Biso   1.000  O
  O16      1.0000 0.14774  0.93370  0.72640  Biso   1.000  O
  O17      1.0000 0.09083  0.04320  0.94760  Biso   1.000  O
  O18      1.0000 0.03907  0.07490  0.64790  Biso   1.000  O
  N11      1.0000 0.10279  0.63370  0.49180  Biso   1.000  N
  N12      1.0000 0.18102  0.25970  0.56210  Biso   1.000  N
  N13      1.0000 0.16648  0.15180  0.61060  Biso   1.000  N
  N14      1.0000 0.12465  0.15710  0.63540  Biso   1.000  N
  N15      1.0000 0.11055  0.26640  0.60570  Biso   1.000  N
  H11      1.0000 0.08450  0.29270  0.61260  Biso   1.000  H
  C13      1.0000 0.14440  0.45800  0.53470  Biso   1.000  C
  C14      1.0000 0.10473  0.51230  0.50260  Biso   1.000  C
  H12      1.0000 0.07970  0.46640  0.48860  Biso   1.000  H
  C15      1.0000 0.13842  0.70220  0.50720  Biso   1.000  C
  H13      1.0000 0.13590  0.78510  0.49700  Biso   1.000  H
  C16      1.0000 0.17811  0.65200  0.53770  Biso   1.000  C
  H14      1.0000 0.20280  0.69950  0.54850  Biso   1.000  H
  C17      1.0000 0.18095  0.52690  0.55270  Biso   1.000  C
  H15      1.0000 0.20780  0.49060  0.57490  Biso   1.000  H
  C18      1.0000 0.14566  0.32810  0.56230  Biso   1.000  C
  Mo7      1.0000 0.70869  0.48501  0.67345  Biso   1.000  Mo
  Mo8      1.0000 0.59063  0.47686  0.73122  Biso   1.000  Mo
  O19      1.0000 0.73492  0.36450  0.78110  Biso   1.000  O
  O20      1.0000 0.74859  0.59600  0.65420  Biso   1.000  O
  O21      1.0000 0.70188  0.43950  0.44840  Biso   1.000  O
  O22      1.0000 0.64774  0.43370  0.72640  Biso   1.000  O
  O23      1.0000 0.59083  0.54320  0.94760  Biso   1.000  O
  O24      1.0000 0.53907  0.57490  0.64790  Biso   1.000  O
  N16      1.0000 0.60279  0.13370  0.49180  Biso   1.000  N
  N17      1.0000 0.68102  0.75970  0.56210  Biso   1.000  N
  N18      1.0000 0.66648  0.65180  0.61060  Biso   1.000  N
  N19      1.0000 0.62465  0.65710  0.63540  Biso   1.000  N
  N20      1.0000 0.61055  0.76640  0.60570  Biso   1.000  N
  H16      1.0000 0.58450  0.79270  0.61260  Biso   1.000  H
  C19      1.0000 0.64440  0.95800  0.53470  Biso   1.000  C
  C20      1.0000 0.60473  0.01230  0.50260  Biso   1.000  C
  H17      1.0000 0.57970  0.96640  0.48860  Biso   1.000  H
  C21      1.0000 0.63842  0.20220  0.50720  Biso   1.000  C
  H18      1.0000 0.63590  0.28510  0.49700  Biso   1.000  H
  C22      1.0000 0.67811  0.15200  0.53770  Biso   1.000  C
  H19      1.0000 0.70280  0.19950  0.54850  Biso   1.000  H
  C23      1.0000 0.68095  0.02690  0.55270  Biso   1.000  C
  H20      1.0000 0.70780  0.99060  0.57490  Biso   1.000  H
  C24      1.0000 0.64566  0.82810  0.56230  Biso   1.000  C
  Mo9      1.0000 0.20869  0.01499  0.17345  Biso   1.000  Mo
  Mo10     1.0000 0.09063  0.02314  0.23122  Biso   1.000  Mo
  O25      1.0000 0.23492  0.13550  0.28110  Biso   1.000  O
  O26      1.0000 0.24859  0.90400  0.15420  Biso   1.000  O
  O27      1.0000 0.20188  0.06050  0.94840  Biso   1.000  O
  O28      1.0000 0.14774  0.06630  0.22640  Biso   1.000  O
  O29      1.0000 0.09083  0.95680  0.44760  Biso   1.000  O
  O30      1.0000 0.03907  0.92510  0.14790  Biso   1.000  O
  N21      1.0000 0.10279  0.36630  0.99180  Biso   1.000  N
  N22      1.0000 0.18102  0.74030  0.06210  Biso   1.000  N
  N23      1.0000 0.16648  0.84820  0.11060  Biso   1.000  N
  N24      1.0000 0.12465  0.84290  0.13540  Biso   1.000  N
  N25      1.0000 0.11055  0.73360  0.10570  Biso   1.000  N
  H21      1.0000 0.08450  0.70730  0.11260  Biso   1.000  H
  C25      1.0000 0.14440  0.54200  0.03470  Biso   1.000  C
  C26      1.0000 0.10473  0.48770  0.00260  Biso   1.000  C
  H22      1.0000 0.07970  0.53360  0.98860  Biso   1.000  H
  C27      1.0000 0.13842  0.29780  0.00720  Biso   1.000  C
  H23      1.0000 0.13590  0.21490  0.99700  Biso   1.000  H
  C28      1.0000 0.17811  0.34800  0.03770  Biso   1.000  C
  H24      1.0000 0.20280  0.30050  0.04850  Biso   1.000  H
  C29      1.0000 0.18095  0.47310  0.05270  Biso   1.000  C
  H25      1.0000 0.20780  0.50940  0.07490  Biso   1.000  H
  C30      1.0000 0.14566  0.67190  0.06230  Biso   1.000  C
  Mo11     1.0000 0.70869  0.51499  0.17345  Biso   1.000  Mo
  Mo12     1.0000 0.59063  0.52314  0.23122  Biso   1.000  Mo
  O31      1.0000 0.73492  0.63550  0.28110  Biso   1.000  O
  O32      1.0000 0.74859  0.40400  0.15420  Biso   1.000  O
  O33      1.0000 0.70188  0.56050  0.94840  Biso   1.000  O
  O34      1.0000 0.64774  0.56630  0.22640  Biso   1.000  O
  O35      1.0000 0.59083  0.45680  0.44760  Biso   1.000  O
  O36      1.0000 0.53907  0.42510  0.14790  Biso   1.000  O
  N26      1.0000 0.60279  0.86630  0.99180  Biso   1.000  N
  N27      1.0000 0.68102  0.24030  0.06210  Biso   1.000  N
  N28      1.0000 0.66648  0.34820  0.11060  Biso   1.000  N
  N29      1.0000 0.62465  0.34290  0.13540  Biso   1.000  N
  N30      1.0000 0.61055  0.23360  0.10570  Biso   1.000  N
  H26      1.0000 0.58450  0.20730  0.11260  Biso   1.000  H
  C31      1.0000 0.64440  0.04200  0.03470  Biso   1.000  C
  C32      1.0000 0.60473  0.98770  0.00260  Biso   1.000  C
  H27      1.0000 0.57970  0.03360  0.98860  Biso   1.000  H
  C33      1.0000 0.63842  0.79780  0.00720  Biso   1.000  C
  H28      1.0000 0.63590  0.71490  0.99700  Biso   1.000  H
  C34      1.0000 0.67811  0.84800  0.03770  Biso   1.000  C
  H29      1.0000 0.70280  0.80050  0.04850  Biso   1.000  H
  C35      1.0000 0.68095  0.97310  0.05270  Biso   1.000  C
  H30      1.0000 0.70780  0.00940  0.07490  Biso   1.000  H
  C36      1.0000 0.64566  0.17190  0.06230  Biso   1.000  C
  Mo13     1.0000 0.79131  0.01499  0.32655  Biso   1.000  Mo
  Mo14     1.0000 0.90937  0.02314  0.26878  Biso   1.000  Mo
  O37      1.0000 0.76508  0.13550  0.21890  Biso   1.000  O
  O38      1.0000 0.75141  0.90400  0.34580  Biso   1.000  O
  O39      1.0000 0.79812  0.06050  0.55160  Biso   1.000  O
  O40      1.0000 0.85226  0.06630  0.27360  Biso   1.000  O
  O41      1.0000 0.90917  0.95680  0.05240  Biso   1.000  O
  O42      1.0000 0.96093  0.92510  0.35210  Biso   1.000  O
  N31      1.0000 0.89721  0.36630  0.50820  Biso   1.000  N
  N32      1.0000 0.81898  0.74030  0.43790  Biso   1.000  N
  N33      1.0000 0.83352  0.84820  0.38940  Biso   1.000  N
  N34      1.0000 0.87535  0.84290  0.36460  Biso   1.000  N
  N35      1.0000 0.88945  0.73360  0.39430  Biso   1.000  N
  H31      1.0000 0.91550  0.70730  0.38740  Biso   1.000  H
  C37      1.0000 0.85560  0.54200  0.46530  Biso   1.000  C
  C38      1.0000 0.89527  0.48770  0.49740  Biso   1.000  C
  H32      1.0000 0.92030  0.53360  0.51140  Biso   1.000  H
  C39      1.0000 0.86158  0.29780  0.49280  Biso   1.000  C
  H33      1.0000 0.86410  0.21490  0.50300  Biso   1.000  H
  C40      1.0000 0.82189  0.34800  0.46230  Biso   1.000  C
  H34      1.0000 0.79720  0.30050  0.45150  Biso   1.000  H
  C41      1.0000 0.81905  0.47310  0.44730  Biso   1.000  C
  H35      1.0000 0.79220  0.50940  0.42510  Biso   1.000  H
  C42      1.0000 0.85434  0.67190  0.43770  Biso   1.000  C
  Mo15     1.0000 0.29131  0.51499  0.32655  Biso   1.000  Mo
  Mo16     1.0000 0.40937  0.52314  0.26878  Biso   1.000  Mo
  O43      1.0000 0.26508  0.63550  0.21890  Biso   1.000  O
  O44      1.0000 0.25141  0.40400  0.34580  Biso   1.000  O
  O45      1.0000 0.29812  0.56050  0.55160  Biso   1.000  O
  O46      1.0000 0.35226  0.56630  0.27360  Biso   1.000  O
  O47      1.0000 0.40917  0.45680  0.05240  Biso   1.000  O
  O48      1.0000 0.46093  0.42510  0.35210  Biso   1.000  O
  N36      1.0000 0.39721  0.86630  0.50820  Biso   1.000  N
  N37      1.0000 0.31898  0.24030  0.43790  Biso   1.000  N
  N38      1.0000 0.33352  0.34820  0.38940  Biso   1.000  N
  N39      1.0000 0.37535  0.34290  0.36460  Biso   1.000  N
  N40      1.0000 0.38945  0.23360  0.39430  Biso   1.000  N
  H36      1.0000 0.41550  0.20730  0.38740  Biso   1.000  H
  C43      1.0000 0.35560  0.04200  0.46530  Biso   1.000  C
  C44      1.0000 0.39527  0.98770  0.49740  Biso   1.000  C
  H37      1.0000 0.42030  0.03360  0.51140  Biso   1.000  H
  C45      1.0000 0.36158  0.79780  0.49280  Biso   1.000  C
  H38      1.0000 0.36410  0.71490  0.50300  Biso   1.000  H
  C46      1.0000 0.32189  0.84800  0.46230  Biso   1.000  C
  H39      1.0000 0.29720  0.80050  0.45150  Biso   1.000  H
  C47      1.0000 0.31905  0.97310  0.44730  Biso   1.000  C
  H40      1.0000 0.29220  0.00940  0.42510  Biso   1.000  H
  C48      1.0000 0.35434  0.17190  0.43770  Biso   1.000  C
  Mo17     1.0000 0.00000  0.16931  0.75000  Biso   1.000  Mo
  Mo18     1.0000 0.50000  0.66931  0.75000  Biso   1.000  Mo
  Mo19     1.0000 0.00000  0.83069  0.25000  Biso   1.000  Mo
  Mo20     1.0000 0.50000  0.33069  0.25000  Biso   1.000  Mo
  Co1      1.0000 0.75000  0.25000  0.00000  Biso   1.000  Co
  Co2      1.0000 0.25000  0.25000  0.50000  Biso   1.000  Co
  Co3      1.0000 0.25000  0.75000  0.00000  Biso   1.000  Co
  Co4      1.0000 0.75000  0.75000  0.50000  Biso   1.000  Co
