data_image0
_cell_length_a       31.119
_cell_length_b       11.2984
_cell_length_c       7.4916
_cell_angle_alpha    90
_cell_angle_beta     92.839
_cell_angle_gamma    90

_symmetry_space_group_name_H-M    "P 1"
_symmetry_int_tables_number       1

loop_
  _symmetry_equiv_pos_as_xyz
  'x, y, z'

loop_
  _atom_site_label
  _atom_site_occupancy
  _atom_site_fract_x
  _atom_site_fract_y
  _atom_site_fract_z
  _atom_site_thermal_displace_type
  _atom_site_B_iso_or_equiv
  _atom_site_type_symbol
  Mo1      1.0000 0.79317  0.48500  0.32829  Biso   1.000  Mo
  Mo2      1.0000 0.91051  0.47766  0.26989  Biso   1.000  Mo
  O1       1.0000 0.75290  0.59320  0.34100  Biso   1.000  O
  O2       1.0000 0.76700  0.36460  0.22650  Biso   1.000  O
  O3       1.0000 0.80030  0.55540  0.05370  Biso   1.000  O
  O4       1.0000 0.85390  0.43600  0.27610  Biso   1.000  O
  O5       1.0000 0.91050  0.54120  0.05260  Biso   1.000  O
  O6       1.0000 0.96140  0.57590  0.35490  Biso   1.000  O
  N1       1.0000 0.89820  0.13510  0.50280  Biso   1.000  N
  N2       1.0000 0.82160  0.76160  0.43300  Biso   1.000  N
  N3       1.0000 0.83580  0.65350  0.38770  Biso   1.000  N
  N4       1.0000 0.87720  0.65780  0.36360  Biso   1.000  N
  N5       1.0000 0.89140  0.76690  0.38740  Biso   1.000  N
  H1       1.0000 0.91710  0.79270  0.37650  Biso   1.000  H
  C1       1.0000 0.85750  0.95850  0.45640  Biso   1.000  C
  C2       1.0000 0.89660  0.01360  0.48730  Biso   1.000  C
  H2       1.0000 0.92180  0.96920  0.49760  Biso   1.000  H
  C3       1.0000 0.86220  0.20140  0.49040  Biso   1.000  C
  H3       1.0000 0.86390  0.28320  0.50330  Biso   1.000  H
  C4       1.0000 0.82280  0.14760  0.45850  Biso   1.000  C
  H4       1.0000 0.79780  0.19290  0.44840  Biso   1.000  H
  C5       1.0000 0.82050  0.02500  0.44140  Biso   1.000  C
  H5       1.0000 0.79410  0.98810  0.41990  Biso   1.000  H
  C6       1.0000 0.85660  0.82940  0.43260  Biso   1.000  C
  Mo3      1.0000 0.29317  0.98500  0.32829  Biso   1.000  Mo
  Mo4      1.0000 0.41051  0.97766  0.26989  Biso   1.000  Mo
  O7       1.0000 0.25290  0.09320  0.34100  Biso   1.000  O
  O8       1.0000 0.26700  0.86460  0.22650  Biso   1.000  O
  O9       1.0000 0.30030  0.05540  0.05370  Biso   1.000  O
  O10      1.0000 0.35390  0.93600  0.27610  Biso   1.000  O
  O11      1.0000 0.41050  0.04120  0.05260  Biso   1.000  O
  O12      1.0000 0.46140  0.07590  0.35490  Biso   1.000  O
  N6       1.0000 0.39820  0.63510  0.50280  Biso   1.000  N
  N7       1.0000 0.32160  0.26160  0.43300  Biso   1.000  N
  N8       1.0000 0.33580  0.15350  0.38770  Biso   1.000  N
  N9       1.0000 0.37720  0.15780  0.36360  Biso   1.000  N
  N10      1.0000 0.39140  0.26690  0.38740  Biso   1.000  N
  H6       1.0000 0.41710  0.29270  0.37650  Biso   1.000  H
  C7       1.0000 0.35750  0.45850  0.45640  Biso   1.000  C
  C8       1.0000 0.39660  0.51360  0.48730  Biso   1.000  C
  H7       1.0000 0.42180  0.46920  0.49760  Biso   1.000  H
  C9       1.0000 0.36220  0.70140  0.49040  Biso   1.000  C
  H8       1.0000 0.36390  0.78320  0.50330  Biso   1.000  H
  C10      1.0000 0.32280  0.64760  0.45850  Biso   1.000  C
  H9       1.0000 0.29780  0.69290  0.44840  Biso   1.000  H
  C11      1.0000 0.32050  0.52500  0.44140  Biso   1.000  C
  H10      1.0000 0.29410  0.48810  0.41990  Biso   1.000  H
  C12      1.0000 0.35660  0.32940  0.43260  Biso   1.000  C
  Mo5      1.0000 0.20683  0.48500  0.17171  Biso   1.000  Mo
  Mo6      1.0000 0.08949  0.47766  0.23011  Biso   1.000  Mo
  O13      1.0000 0.24710  0.59320  0.15900  Biso   1.000  O
  O14      1.0000 0.23300  0.36460  0.27350  Biso   1.000  O
  O15      1.0000 0.19970  0.55540  0.44630  Biso   1.000  O
  O16      1.0000 0.14610  0.43600  0.22390  Biso   1.000  O
  O17      1.0000 0.08950  0.54120  0.44740  Biso   1.000  O
  O18      1.0000 0.03860  0.57590  0.14510  Biso   1.000  O
  N11      1.0000 0.10180  0.13510  0.99720  Biso   1.000  N
  N12      1.0000 0.17840  0.76160  0.06700  Biso   1.000  N
  N13      1.0000 0.16420  0.65350  0.11230  Biso   1.000  N
  N14      1.0000 0.12280  0.65780  0.13640  Biso   1.000  N
  N15      1.0000 0.10860  0.76690  0.11260  Biso   1.000  N
  H11      1.0000 0.08290  0.79270  0.12350  Biso   1.000  H
  C13      1.0000 0.14250  0.95850  0.04360  Biso   1.000  C
  C14      1.0000 0.10340  0.01360  0.01270  Biso   1.000  C
  H12      1.0000 0.07820  0.96920  0.00240  Biso   1.000  H
  C15      1.0000 0.13780  0.20140  0.00960  Biso   1.000  C
  H13      1.0000 0.13610  0.28320  0.99670  Biso   1.000  H
  C16      1.0000 0.17720  0.14760  0.04150  Biso   1.000  C
  H14      1.0000 0.20220  0.19290  0.05160  Biso   1.000  H
  C17      1.0000 0.17950  0.02500  0.05860  Biso   1.000  C
  H15      1.0000 0.20590  0.98810  0.08010  Biso   1.000  H
  C18      1.0000 0.14340  0.82940  0.06740  Biso   1.000  C
  Mo7      1.0000 0.70683  0.98500  0.17171  Biso   1.000  Mo
  Mo8      1.0000 0.58949  0.97766  0.23011  Biso   1.000  Mo
  O19      1.0000 0.74710  0.09320  0.15900  Biso   1.000  O
  O20      1.0000 0.73300  0.86460  0.27350  Biso   1.000  O
  O21      1.0000 0.69970  0.05540  0.44630  Biso   1.000  O
  O22      1.0000 0.64610  0.93600  0.22390  Biso   1.000  O
  O23      1.0000 0.58950  0.04120  0.44740  Biso   1.000  O
  O24      1.0000 0.53860  0.07590  0.14510  Biso   1.000  O
  N16      1.0000 0.60180  0.63510  0.99720  Biso   1.000  N
  N17      1.0000 0.67840  0.26160  0.06700  Biso   1.000  N
  N18      1.0000 0.66420  0.15350  0.11230  Biso   1.000  N
  N19      1.0000 0.62280  0.15780  0.13640  Biso   1.000  N
  N20      1.0000 0.60860  0.26690  0.11260  Biso   1.000  N
  H16      1.0000 0.58290  0.29270  0.12350  Biso   1.000  H
  C19      1.0000 0.64250  0.45850  0.04360  Biso   1.000  C
  C20      1.0000 0.60340  0.51360  0.01270  Biso   1.000  C
  H17      1.0000 0.57820  0.46920  0.00240  Biso   1.000  H
  C21      1.0000 0.63780  0.70140  0.00960  Biso   1.000  C
  H18      1.0000 0.63610  0.78320  0.99670  Biso   1.000  H
  C22      1.0000 0.67720  0.64760  0.04150  Biso   1.000  C
  H19      1.0000 0.70220  0.69290  0.05160  Biso   1.000  H
  C23      1.0000 0.67950  0.52500  0.05860  Biso   1.000  C
  H20      1.0000 0.70590  0.48810  0.08010  Biso   1.000  H
  C24      1.0000 0.64340  0.32940  0.06740  Biso   1.000  C
  Mo9      1.0000 0.20683  0.51500  0.67171  Biso   1.000  Mo
  Mo10     1.0000 0.08949  0.52234  0.73011  Biso   1.000  Mo
  O25      1.0000 0.24710  0.40680  0.65900  Biso   1.000  O
  O26      1.0000 0.23300  0.63540  0.77350  Biso   1.000  O
  O27      1.0000 0.19970  0.44460  0.94630  Biso   1.000  O
  O28      1.0000 0.14610  0.56400  0.72390  Biso   1.000  O
  O29      1.0000 0.08950  0.45880  0.94740  Biso   1.000  O
  O30      1.0000 0.03860  0.42410  0.64510  Biso   1.000  O
  N21      1.0000 0.10180  0.86490  0.49720  Biso   1.000  N
  N22      1.0000 0.17840  0.23840  0.56700  Biso   1.000  N
  N23      1.0000 0.16420  0.34650  0.61230  Biso   1.000  N
  N24      1.0000 0.12280  0.34220  0.63640  Biso   1.000  N
  N25      1.0000 0.10860  0.23310  0.61260  Biso   1.000  N
  H21      1.0000 0.08290  0.20730  0.62350  Biso   1.000  H
  C25      1.0000 0.14250  0.04150  0.54360  Biso   1.000  C
  C26      1.0000 0.10340  0.98640  0.51270  Biso   1.000  C
  H22      1.0000 0.07820  0.03080  0.50240  Biso   1.000  H
  C27      1.0000 0.13780  0.79860  0.50960  Biso   1.000  C
  H23      1.0000 0.13610  0.71680  0.49670  Biso   1.000  H
  C28      1.0000 0.17720  0.85240  0.54150  Biso   1.000  C
  H24      1.0000 0.20220  0.80710  0.55160  Biso   1.000  H
  C29      1.0000 0.17950  0.97500  0.55860  Biso   1.000  C
  H25      1.0000 0.20590  0.01190  0.58010  Biso   1.000  H
  C30      1.0000 0.14340  0.17060  0.56740  Biso   1.000  C
  Mo11     1.0000 0.70683  0.01500  0.67171  Biso   1.000  Mo
  Mo12     1.0000 0.58949  0.02234  0.73011  Biso   1.000  Mo
  O31      1.0000 0.74710  0.90680  0.65900  Biso   1.000  O
  O32      1.0000 0.73300  0.13540  0.77350  Biso   1.000  O
  O33      1.0000 0.69970  0.94460  0.94630  Biso   1.000  O
  O34      1.0000 0.64610  0.06400  0.72390  Biso   1.000  O
  O35      1.0000 0.58950  0.95880  0.94740  Biso   1.000  O
  O36      1.0000 0.53860  0.92410  0.64510  Biso   1.000  O
  N26      1.0000 0.60180  0.36490  0.49720  Biso   1.000  N
  N27      1.0000 0.67840  0.73840  0.56700  Biso   1.000  N
  N28      1.0000 0.66420  0.84650  0.61230  Biso   1.000  N
  N29      1.0000 0.62280  0.84220  0.63640  Biso   1.000  N
  N30      1.0000 0.60860  0.73310  0.61260  Biso   1.000  N
  H26      1.0000 0.58290  0.70730  0.62350  Biso   1.000  H
  C31      1.0000 0.64250  0.54150  0.54360  Biso   1.000  C
  C32      1.0000 0.60340  0.48640  0.51270  Biso   1.000  C
  H27      1.0000 0.57820  0.53080  0.50240  Biso   1.000  H
  C33      1.0000 0.63780  0.29860  0.50960  Biso   1.000  C
  H28      1.0000 0.63610  0.21680  0.49670  Biso   1.000  H
  C34      1.0000 0.67720  0.35240  0.54150  Biso   1.000  C
  H29      1.0000 0.70220  0.30710  0.55160  Biso   1.000  H
  C35      1.0000 0.67950  0.47500  0.55860  Biso   1.000  C
  H30      1.0000 0.70590  0.51190  0.58010  Biso   1.000  H
  C36      1.0000 0.64340  0.67060  0.56740  Biso   1.000  C
  Mo13     1.0000 0.79317  0.51500  0.82829  Biso   1.000  Mo
  Mo14     1.0000 0.91051  0.52234  0.76989  Biso   1.000  Mo
  O37      1.0000 0.75290  0.40680  0.84100  Biso   1.000  O
  O38      1.0000 0.76700  0.63540  0.72650  Biso   1.000  O
  O39      1.0000 0.80030  0.44460  0.55370  Biso   1.000  O
  O40      1.0000 0.85390  0.56400  0.77610  Biso   1.000  O
  O41      1.0000 0.91050  0.45880  0.55260  Biso   1.000  O
  O42      1.0000 0.96140  0.42410  0.85490  Biso   1.000  O
  N31      1.0000 0.89820  0.86490  0.00280  Biso   1.000  N
  N32      1.0000 0.82160  0.23840  0.93300  Biso   1.000  N
  N33      1.0000 0.83580  0.34650  0.88770  Biso   1.000  N
  N34      1.0000 0.87720  0.34220  0.86360  Biso   1.000  N
  N35      1.0000 0.89140  0.23310  0.88740  Biso   1.000  N
  H31      1.0000 0.91710  0.20730  0.87650  Biso   1.000  H
  C37      1.0000 0.85750  0.04150  0.95640  Biso   1.000  C
  C38      1.0000 0.89660  0.98640  0.98730  Biso   1.000  C
  H32      1.0000 0.92180  0.03080  0.99760  Biso   1.000  H
  C39      1.0000 0.86220  0.79860  0.99040  Biso   1.000  C
  H33      1.0000 0.86390  0.71680  0.00330  Biso   1.000  H
  C40      1.0000 0.82280  0.85240  0.95850  Biso   1.000  C
  H34      1.0000 0.79780  0.80710  0.94840  Biso   1.000  H
  C41      1.0000 0.82050  0.97500  0.94140  Biso   1.000  C
  H35      1.0000 0.79410  0.01190  0.91990  Biso   1.000  H
  C42      1.0000 0.85660  0.17060  0.93260  Biso   1.000  C
  Mo15     1.0000 0.29317  0.01500  0.82829  Biso   1.000  Mo
  Mo16     1.0000 0.41051  0.02234  0.76989  Biso   1.000  Mo
  O43      1.0000 0.25290  0.90680  0.84100  Biso   1.000  O
  O44      1.0000 0.26700  0.13540  0.72650  Biso   1.000  O
  O45      1.0000 0.30030  0.94460  0.55370  Biso   1.000  O
  O46      1.0000 0.35390  0.06400  0.77610  Biso   1.000  O
  O47      1.0000 0.41050  0.95880  0.55260  Biso   1.000  O
  O48      1.0000 0.46140  0.92410  0.85490  Biso   1.000  O
  N36      1.0000 0.39820  0.36490  0.00280  Biso   1.000  N
  N37      1.0000 0.32160  0.73840  0.93300  Biso   1.000  N
  N38      1.0000 0.33580  0.84650  0.88770  Biso   1.000  N
  N39      1.0000 0.37720  0.84220  0.86360  Biso   1.000  N
  N40      1.0000 0.39140  0.73310  0.88740  Biso   1.000  N
  H36      1.0000 0.41710  0.70730  0.87650  Biso   1.000  H
  C43      1.0000 0.35750  0.54150  0.95640  Biso   1.000  C
  C44      1.0000 0.39660  0.48640  0.98730  Biso   1.000  C
  H37      1.0000 0.42180  0.53080  0.99760  Biso   1.000  H
  C45      1.0000 0.36220  0.29860  0.99040  Biso   1.000  C
  H38      1.0000 0.36390  0.21680  0.00330  Biso   1.000  H
  C46      1.0000 0.32280  0.35240  0.95850  Biso   1.000  C
  H39      1.0000 0.29780  0.30710  0.94840  Biso   1.000  H
  C47      1.0000 0.32050  0.47500  0.94140  Biso   1.000  C
  H40      1.0000 0.29410  0.51190  0.91990  Biso   1.000  H
  C48      1.0000 0.35660  0.67060  0.93260  Biso   1.000  C
  Mo17     1.0000 0.00000  0.66933  0.25000  Biso   1.000  Mo
  Mo18     1.0000 0.50000  0.16933  0.25000  Biso   1.000  Mo
  Mo19     1.0000 0.00000  0.33067  0.75000  Biso   1.000  Mo
  Mo20     1.0000 0.50000  0.83067  0.75000  Biso   1.000  Mo
  Mn1      1.0000 0.75000  0.75000  0.50000  Biso   1.000  Mn
  Mn2      1.0000 0.25000  0.75000  0.00000  Biso   1.000  Mn
  Mn3      1.0000 0.25000  0.25000  0.50000  Biso   1.000  Mn
  Mn4      1.0000 0.75000  0.25000  0.00000  Biso   1.000  Mn
