data_EBEMEF_clean
_audit_creation_date              2014-07-02
_audit_creation_method            'Materials Studio'
_symmetry_space_group_name_H-M    'P1'
_symmetry_Int_Tables_number       1
_symmetry_cell_setting            triclinic
loop_
_symmetry_equiv_pos_as_xyz
  x,y,z
_cell_length_a                    7.4653
_cell_length_b                    7.4653
_cell_length_c                    12.4142
_cell_angle_alpha                 81.7257
_cell_angle_beta                  81.7257
_cell_angle_gamma                 64.2730
loop_
_atom_site_label
_atom_site_type_symbol
_atom_site_fract_x
_atom_site_fract_y
_atom_site_fract_z
_atom_site_U_iso_or_equiv
_atom_site_adp_type
_atom_site_occupancy
Zn1    Zn    0.12315   0.87685   0.25000   0.01267  Uiso   1.00
Zn2    Zn    0.87685   0.12315   0.75000   0.01267  Uiso   1.00
Ni1    Ni    0.00000   0.50000   0.00000   0.01267  Uiso   1.00
Ni2    Ni    0.50000   0.00000   0.50000   0.01267  Uiso   1.00
C1     C     0.04040   0.27040   0.09398   0.01267  Uiso   1.00
C2     C     0.07650   0.60770   0.10210   0.01267  Uiso   1.00
C3     C     0.72960   0.95960   0.40602   0.01267  Uiso   1.00
C4     C     0.39230   0.92350   0.39790   0.01267  Uiso   1.00
C5     C     0.95960   0.72960   0.90602   0.01267  Uiso   1.00
C6     C     0.92350   0.39230   0.89790   0.01267  Uiso   1.00
C7     C     0.27040   0.04040   0.59398   0.01267  Uiso   1.00
C8     C     0.60770   0.07650   0.60210   0.01267  Uiso   1.00
N1     N     0.06726   0.12646   0.15003   0.01267  Uiso   1.00
N2     N     0.12315   0.67895   0.16178   0.01267  Uiso   1.00
N3     N     0.87354   0.93274   0.34997   0.01267  Uiso   1.00
N4     N     0.32105   0.87685   0.33822   0.01267  Uiso   1.00
N5     N     0.93274   0.87354   0.84997   0.01267  Uiso   1.00
N6     N     0.87685   0.32105   0.83822   0.01267  Uiso   1.00
N7     N     0.12646   0.06726   0.65003   0.01267  Uiso   1.00
N8     N     0.67895   0.12315   0.66178   0.01267  Uiso   1.00
