data_EBEWIT_clean
_audit_creation_date              2014-07-02
_audit_creation_method            'Materials Studio'
_symmetry_space_group_name_H-M    'P1'
_symmetry_Int_Tables_number       1
_symmetry_cell_setting            triclinic
loop_
_symmetry_equiv_pos_as_xyz
  x,y,z
_cell_length_a                    10.3604
_cell_length_b                    10.3604
_cell_length_c                    14.5059
_cell_angle_alpha                 90.0000
_cell_angle_beta                  90.0000
_cell_angle_gamma                 90.0000
loop_
_atom_site_label
_atom_site_type_symbol
_atom_site_fract_x
_atom_site_fract_y
_atom_site_fract_z
_atom_site_U_iso_or_equiv
_atom_site_adp_type
_atom_site_occupancy
Gd1    Gd    0.14567   0.14567   0.37500   0.01267  Uiso   1.00
Gd2    Gd    0.85433   0.85433   0.87500   0.01267  Uiso   1.00
Gd3    Gd    0.85433   0.14567   0.62500   0.01267  Uiso   1.00
Gd4    Gd    0.14567   0.85433   0.12500   0.01267  Uiso   1.00
H1     H     0.06980   0.55660   0.37170   0.01267  Uiso   1.00
H2     H     0.93020   0.44340   0.87170   0.01267  Uiso   1.00
H3     H     0.44340   0.06980   0.62170   0.01267  Uiso   1.00
H4     H     0.55660   0.93020   0.12170   0.01267  Uiso   1.00
H5     H     0.93020   0.55660   0.62830   0.01267  Uiso   1.00
H6     H     0.06980   0.44340   0.12830   0.01267  Uiso   1.00
H7     H     0.55660   0.06980   0.37830   0.01267  Uiso   1.00
H8     H     0.44340   0.93020   0.87830   0.01267  Uiso   1.00
H9     H     0.00000   0.89040   0.50000   0.01267  Uiso   1.00
H10    H     0.00000   0.10960   0.00000   0.01267  Uiso   1.00
H11    H     0.10960   0.00000   0.75000   0.01267  Uiso   1.00
H12    H     0.89040   0.00000   0.25000   0.01267  Uiso   1.00
C1     C     0.08280   0.81100   0.33940   0.01267  Uiso   1.00
C2     C     0.04120   0.60220   0.42300   0.01267  Uiso   1.00
C3     C     0.03990   0.73750   0.42200   0.01267  Uiso   1.00
C4     C     0.91720   0.18900   0.83940   0.01267  Uiso   1.00
C5     C     0.95880   0.39780   0.92300   0.01267  Uiso   1.00
C6     C     0.96010   0.26250   0.92200   0.01267  Uiso   1.00
C7     C     0.18900   0.08280   0.58940   0.01267  Uiso   1.00
C8     C     0.39780   0.04120   0.67300   0.01267  Uiso   1.00
C9     C     0.26250   0.03990   0.67200   0.01267  Uiso   1.00
C10    C     0.81100   0.91720   0.08940   0.01267  Uiso   1.00
C11    C     0.60220   0.95880   0.17300   0.01267  Uiso   1.00
C12    C     0.73750   0.96010   0.17200   0.01267  Uiso   1.00
C13    C     0.91720   0.81100   0.66060   0.01267  Uiso   1.00
C14    C     0.95880   0.60220   0.57700   0.01267  Uiso   1.00
C15    C     0.96010   0.73750   0.57800   0.01267  Uiso   1.00
C16    C     0.08280   0.18900   0.16060   0.01267  Uiso   1.00
C17    C     0.04120   0.39780   0.07700   0.01267  Uiso   1.00
C18    C     0.03990   0.26250   0.07800   0.01267  Uiso   1.00
C19    C     0.81100   0.08280   0.41060   0.01267  Uiso   1.00
C20    C     0.60220   0.04120   0.32700   0.01267  Uiso   1.00
C21    C     0.73750   0.03990   0.32800   0.01267  Uiso   1.00
C22    C     0.18900   0.91720   0.91060   0.01267  Uiso   1.00
C23    C     0.39780   0.95880   0.82700   0.01267  Uiso   1.00
C24    C     0.26250   0.96010   0.82800   0.01267  Uiso   1.00
C25    C     0.00000   0.38930   0.50000   0.01267  Uiso   1.00
C26    C     0.00000   0.53710   0.50000   0.01267  Uiso   1.00
C27    C     1.00000   0.80060   0.50000   0.01267  Uiso   1.00
C28    C     1.00000   0.61070   0.00000   0.01267  Uiso   1.00
C29    C     0.00000   0.46290   0.00000   0.01267  Uiso   1.00
C30    C     0.00000   0.19940   0.00000   0.01267  Uiso   1.00
C31    C     0.61070   0.00000   0.75000   0.01267  Uiso   1.00
C32    C     0.46290   0.00000   0.75000   0.01267  Uiso   1.00
C33    C     0.19940   0.00000   0.75000   0.01267  Uiso   1.00
C34    C     0.38930   0.00000   0.25000   0.01267  Uiso   1.00
C35    C     0.53710   0.00000   0.25000   0.01267  Uiso   1.00
C36    C     0.80060   0.00000   0.25000   0.01267  Uiso   1.00
O1     O     0.06920   0.33550   0.44140   0.01267  Uiso   1.00
O2     O     0.08950   0.75250   0.26380   0.01267  Uiso   1.00
O3     O     0.10690   0.92760   0.34550   0.01267  Uiso   1.00
O4     O     0.93080   0.66450   0.94140   0.01267  Uiso   1.00
O5     O     0.91050   0.24750   0.76380   0.01267  Uiso   1.00
O6     O     0.89310   0.07240   0.84550   0.01267  Uiso   1.00
O7     O     0.66450   0.06920   0.69140   0.01267  Uiso   1.00
O8     O     0.24750   0.08950   0.51380   0.01267  Uiso   1.00
O9     O     0.07240   0.10690   0.59550   0.01267  Uiso   1.00
O10    O     0.33550   0.93080   0.19140   0.01267  Uiso   1.00
O11    O     0.75250   0.91050   0.01380   0.01267  Uiso   1.00
O12    O     0.92760   0.89310   0.09550   0.01267  Uiso   1.00
O13    O     0.93080   0.33550   0.55860   0.01267  Uiso   1.00
O14    O     0.91050   0.75250   0.73620   0.01267  Uiso   1.00
O15    O     0.89310   0.92760   0.65450   0.01267  Uiso   1.00
O16    O     0.06920   0.66450   0.05860   0.01267  Uiso   1.00
O17    O     0.08950   0.24750   0.23620   0.01267  Uiso   1.00
O18    O     0.10690   0.07240   0.15450   0.01267  Uiso   1.00
O19    O     0.33550   0.06920   0.30860   0.01267  Uiso   1.00
O20    O     0.75250   0.08950   0.48620   0.01267  Uiso   1.00
O21    O     0.92760   0.10690   0.40450   0.01267  Uiso   1.00
O22    O     0.66450   0.93080   0.80860   0.01267  Uiso   1.00
O23    O     0.24750   0.91050   0.98620   0.01267  Uiso   1.00
O24    O     0.07240   0.89310   0.90450   0.01267  Uiso   1.00
