data_EBEZUI_ion_b
_audit_creation_date              2014-07-02
_audit_creation_method            'Materials Studio'
_symmetry_space_group_name_H-M    'P1'
_symmetry_Int_Tables_number       1
_symmetry_cell_setting            triclinic
loop_
_symmetry_equiv_pos_as_xyz
  x,y,z
_cell_length_a                    16.7567
_cell_length_b                    16.7567
_cell_length_c                    13.1924
_cell_angle_alpha                 103.6008
_cell_angle_beta                  103.6008
_cell_angle_gamma                 109.5456
loop_
_atom_site_label
_atom_site_type_symbol
_atom_site_fract_x
_atom_site_fract_y
_atom_site_fract_z
_atom_site_U_iso_or_equiv
_atom_site_adp_type
_atom_site_occupancy
Ag1    Ag    0.76728   0.10284   0.79648   0.00000  Uiso   1.00
Ag2    Ag    0.49344   0.54674   0.88529   0.00000  Uiso   1.00
C3     C     0.40990   0.03690   0.62510   0.00000  Uiso   1.00
H4     H     0.39500   0.98180   0.64250   0.00000  Uiso   1.00
H5     H     0.37320   0.02180   0.54880   0.00000  Uiso   1.00
C6     C     0.56710   0.05410   0.69930   0.00000  Uiso   1.00
H7     H     0.55600   0.02100   0.74590   0.00000  Uiso   1.00
C8     C     0.54550   0.11910   0.57800   0.00000  Uiso   1.00
H9     H     0.51950   0.14010   0.52580   0.00000  Uiso   1.00
C10    C     0.63130   0.12970   0.61180   0.00000  Uiso   1.00
H11    H     0.67510   0.16070   0.58620   0.00000  Uiso   1.00
C12    C     0.20190   0.91990   0.51840   0.00000  Uiso   1.00
H13    H     0.22270   0.88170   0.54650   0.00000  Uiso   1.00
C14    C     0.13240   0.96800   0.41330   0.00000  Uiso   1.00
H15    H     0.09400   0.97120   0.35220   0.00000  Uiso   1.00
C16    C     0.18080   0.03700   0.51120   0.00000  Uiso   1.00
H17    H     0.18290   0.09490   0.52830   0.00000  Uiso   1.00
C18    C     0.28760   0.05320   0.69110   0.00000  Uiso   1.00
H19    H     0.28530   0.01030   0.72970   0.00000  Uiso   1.00
H20    H     0.26750   0.09590   0.72810   0.00000  Uiso   1.00
C21    C     0.38470   0.10370   0.70270   0.00000  Uiso   1.00
C22    C     0.40000   0.18420   0.66510   0.00000  Uiso   1.00
H23    H     0.46130   0.20570   0.66430   0.00000  Uiso   1.00
H24    H     0.36050   0.16230   0.58860   0.00000  Uiso   1.00
C25    C     0.31350   0.27070   0.74050   0.00000  Uiso   1.00
H26    H     0.25760   0.22320   0.71960   0.00000  Uiso   1.00
C27    C     0.33490   0.35870   0.79190   0.00000  Uiso   1.00
H28    H     0.29600   0.38240   0.81300   0.00000  Uiso   1.00
C29    C     0.45310   0.34770   0.76700   0.00000  Uiso   1.00
H30    H     0.51190   0.36170   0.76760   0.00000  Uiso   1.00
C31    C     0.37340   0.24280   0.02400   0.00000  Uiso   1.00
H32    H     0.33540   0.24860   0.06400   0.00000  Uiso   1.00
C33    C     0.36070   0.16790   0.94870   0.00000  Uiso   1.00
H34    H     0.31330   0.11170   0.92680   0.00000  Uiso   1.00
C35    C     0.48500   0.27620   0.96320   0.00000  Uiso   1.00
H36    H     0.53790   0.30730   0.95210   0.00000  Uiso   1.00
C37    C     0.44900   0.12940   0.82420   0.00000  Uiso   1.00
C38    C     0.52520   0.23080   0.33900   0.00000  Uiso   1.00
C39    C     0.55440   0.25080   0.26300   0.00000  Uiso   1.00
C40    C     0.59230   0.21070   0.20900   0.00000  Uiso   1.00
C41    C     0.62830   0.13890   0.25430   0.00000  Uiso   1.00
N42    N     0.50420   0.07180   0.63430   0.00000  Uiso   1.00
N43    N     0.64620   0.08980   0.68780   0.00000  Uiso   1.00
N44    N     0.14750   0.89390   0.41660   0.00000  Uiso   1.00
N45    N     0.22530   0.00530   0.57870   0.00000  Uiso   1.00
N46    N     0.38810   0.26450   0.72500   0.00000  Uiso   1.00
N47    N     0.42400   0.40740   0.80760   0.00000  Uiso   1.00
N48    N     0.45060   0.31000   0.03360   0.00000  Uiso   1.00
N49    N     0.42920   0.18840   0.91010   0.00000  Uiso   1.00
O50    O     0.56260   0.30980   0.43790   0.00000  Uiso   1.00
O51    O     0.45630   0.17170   0.34990   0.00000  Uiso   1.00
O52    O     0.65640   0.16320   0.35720   0.00000  Uiso   1.00
O53    O     0.57880   0.06320   0.17600   0.00000  Uiso   1.00
Ag65   Ag    0.89716   0.23272   0.70352   0.00000  Uiso   1.00
Ag66   Ag    0.45326   0.50656   0.61471   0.00000  Uiso   1.00
C67    C     0.96310   0.59010   0.87490   0.00000  Uiso   1.00
H68    H     0.01820   0.60500   0.85750   0.00000  Uiso   1.00
H69    H     0.97820   0.62680   0.95120   0.00000  Uiso   1.00
C70    C     0.94590   0.43290   0.80070   0.00000  Uiso   1.00
H71    H     0.97900   0.44400   0.75410   0.00000  Uiso   1.00
C72    C     0.88090   0.45450   0.92200   0.00000  Uiso   1.00
H73    H     0.85990   0.48050   0.97420   0.00000  Uiso   1.00
C74    C     0.87030   0.36870   0.88820   0.00000  Uiso   1.00
H75    H     0.83930   0.32490   0.91380   0.00000  Uiso   1.00
C76    C     0.08010   0.79810   0.98160   0.00000  Uiso   1.00
H77    H     0.11830   0.77730   0.95350   0.00000  Uiso   1.00
C78    C     0.03200   0.86760   0.08670   0.00000  Uiso   1.00
H79    H     0.02880   0.90600   0.14780   0.00000  Uiso   1.00
C80    C     0.96300   0.81920   0.98880   0.00000  Uiso   1.00
H81    H     0.90510   0.81710   0.97170   0.00000  Uiso   1.00
C82    C     0.94680   0.71240   0.80890   0.00000  Uiso   1.00
H83    H     0.98970   0.71470   0.77030   0.00000  Uiso   1.00
H84    H     0.90410   0.73250   0.77190   0.00000  Uiso   1.00
C85    C     0.89630   0.61530   0.79730   0.00000  Uiso   1.00
C86    C     0.81580   0.60000   0.83490   0.00000  Uiso   1.00
H87    H     0.79430   0.53870   0.83570   0.00000  Uiso   1.00
H88    H     0.83770   0.63950   0.91140   0.00000  Uiso   1.00
C89    C     0.72930   0.68650   0.75950   0.00000  Uiso   1.00
H90    H     0.77680   0.74240   0.78040   0.00000  Uiso   1.00
C91    C     0.64130   0.66510   0.70810   0.00000  Uiso   1.00
H92    H     0.61760   0.70400   0.68700   0.00000  Uiso   1.00
C93    C     0.65230   0.54690   0.73300   0.00000  Uiso   1.00
H94    H     0.63830   0.48810   0.73240   0.00000  Uiso   1.00
C95    C     0.75720   0.62660   0.47600   0.00000  Uiso   1.00
H96    H     0.75140   0.66460   0.43600   0.00000  Uiso   1.00
C97    C     0.83210   0.63930   0.55130   0.00000  Uiso   1.00
H98    H     0.88830   0.68670   0.57320   0.00000  Uiso   1.00
C99    C     0.72380   0.51500   0.53680   0.00000  Uiso   1.00
H100   H     0.69270   0.46210   0.54790   0.00000  Uiso   1.00
C101   C     0.87060   0.55100   0.67580   0.00000  Uiso   1.00
C102   C     0.76920   0.47480   0.16100   0.00000  Uiso   1.00
C103   C     0.74920   0.44560   0.23700   0.00000  Uiso   1.00
C104   C     0.78930   0.40770   0.29100   0.00000  Uiso   1.00
C105   C     0.86110   0.37170   0.24570   0.00000  Uiso   1.00
N106   N     0.92820   0.49580   0.86570   0.00000  Uiso   1.00
N107   N     0.91020   0.35380   0.81220   0.00000  Uiso   1.00
N108   N     0.10610   0.85250   0.08340   0.00000  Uiso   1.00
N109   N     0.99470   0.77470   0.92130   0.00000  Uiso   1.00
N110   N     0.73550   0.61190   0.77500   0.00000  Uiso   1.00
N111   N     0.59260   0.57600   0.69240   0.00000  Uiso   1.00
N112   N     0.69000   0.54940   0.46640   0.00000  Uiso   1.00
N113   N     0.81160   0.57080   0.58990   0.00000  Uiso   1.00
O114   O     0.69020   0.43740   0.06210   0.00000  Uiso   1.00
O115   O     0.82830   0.54370   0.15010   0.00000  Uiso   1.00
O116   O     0.83680   0.34360   0.14280   0.00000  Uiso   1.00
O117   O     0.93680   0.42120   0.32400   0.00000  Uiso   1.00
Ag129  Ag    0.23272   0.89716   0.20352   0.00000  Uiso   1.00
Ag130  Ag    0.50656   0.45326   0.11471   0.00000  Uiso   1.00
C131   C     0.59010   0.96310   0.37490   0.00000  Uiso   1.00
H132   H     0.60500   0.01820   0.35750   0.00000  Uiso   1.00
H133   H     0.62680   0.97820   0.45120   0.00000  Uiso   1.00
C134   C     0.43290   0.94590   0.30070   0.00000  Uiso   1.00
H135   H     0.44400   0.97900   0.25410   0.00000  Uiso   1.00
C136   C     0.45450   0.88090   0.42200   0.00000  Uiso   1.00
H137   H     0.48050   0.85990   0.47420   0.00000  Uiso   1.00
C138   C     0.36870   0.87030   0.38820   0.00000  Uiso   1.00
H139   H     0.32490   0.83930   0.41380   0.00000  Uiso   1.00
C140   C     0.79810   0.08010   0.48160   0.00000  Uiso   1.00
H141   H     0.77730   0.11830   0.45350   0.00000  Uiso   1.00
C142   C     0.86760   0.03200   0.58670   0.00000  Uiso   1.00
H143   H     0.90600   0.02880   0.64780   0.00000  Uiso   1.00
C144   C     0.81920   0.96300   0.48880   0.00000  Uiso   1.00
H145   H     0.81710   0.90510   0.47170   0.00000  Uiso   1.00
C146   C     0.71240   0.94680   0.30890   0.00000  Uiso   1.00
H147   H     0.71470   0.98970   0.27030   0.00000  Uiso   1.00
H148   H     0.73250   0.90410   0.27190   0.00000  Uiso   1.00
C149   C     0.61530   0.89630   0.29730   0.00000  Uiso   1.00
C150   C     0.60000   0.81580   0.33490   0.00000  Uiso   1.00
H151   H     0.53870   0.79430   0.33570   0.00000  Uiso   1.00
H152   H     0.63950   0.83770   0.41140   0.00000  Uiso   1.00
C153   C     0.68650   0.72930   0.25950   0.00000  Uiso   1.00
H154   H     0.74240   0.77680   0.28040   0.00000  Uiso   1.00
C155   C     0.66510   0.64130   0.20810   0.00000  Uiso   1.00
H156   H     0.70400   0.61760   0.18700   0.00000  Uiso   1.00
C157   C     0.54690   0.65230   0.23300   0.00000  Uiso   1.00
H158   H     0.48810   0.63830   0.23240   0.00000  Uiso   1.00
C159   C     0.62660   0.75720   0.97600   0.00000  Uiso   1.00
H160   H     0.66460   0.75140   0.93600   0.00000  Uiso   1.00
C161   C     0.63930   0.83210   0.05130   0.00000  Uiso   1.00
H162   H     0.68670   0.88830   0.07320   0.00000  Uiso   1.00
C163   C     0.51500   0.72380   0.03680   0.00000  Uiso   1.00
H164   H     0.46210   0.69270   0.04790   0.00000  Uiso   1.00
C165   C     0.55100   0.87060   0.17580   0.00000  Uiso   1.00
C166   C     0.47480   0.76920   0.66100   0.00000  Uiso   1.00
C167   C     0.44560   0.74920   0.73700   0.00000  Uiso   1.00
C168   C     0.40770   0.78930   0.79100   0.00000  Uiso   1.00
C169   C     0.37170   0.86110   0.74570   0.00000  Uiso   1.00
N170   N     0.49580   0.92820   0.36570   0.00000  Uiso   1.00
N171   N     0.35380   0.91020   0.31220   0.00000  Uiso   1.00
N172   N     0.85250   0.10610   0.58340   0.00000  Uiso   1.00
N173   N     0.77470   0.99470   0.42130   0.00000  Uiso   1.00
N174   N     0.61190   0.73550   0.27500   0.00000  Uiso   1.00
N175   N     0.57600   0.59260   0.19240   0.00000  Uiso   1.00
N176   N     0.54940   0.69000   0.96640   0.00000  Uiso   1.00
N177   N     0.57080   0.81160   0.08990   0.00000  Uiso   1.00
O178   O     0.43740   0.69020   0.56210   0.00000  Uiso   1.00
O179   O     0.54370   0.82830   0.65010   0.00000  Uiso   1.00
O180   O     0.34360   0.83680   0.64280   0.00000  Uiso   1.00
O181   O     0.42120   0.93680   0.82400   0.00000  Uiso   1.00
Ag193  Ag    0.10284   0.76728   0.29648   0.00000  Uiso   1.00
Ag194  Ag    0.54674   0.49344   0.38529   0.00000  Uiso   1.00
C195   C     0.03690   0.40990   0.12510   0.00000  Uiso   1.00
H196   H     0.98180   0.39500   0.14250   0.00000  Uiso   1.00
H197   H     0.02180   0.37320   0.04880   0.00000  Uiso   1.00
C198   C     0.05410   0.56710   0.19930   0.00000  Uiso   1.00
H199   H     0.02100   0.55600   0.24590   0.00000  Uiso   1.00
C200   C     0.11910   0.54550   0.07800   0.00000  Uiso   1.00
H201   H     0.14010   0.51950   0.02580   0.00000  Uiso   1.00
C202   C     0.12970   0.63130   0.11180   0.00000  Uiso   1.00
H203   H     0.16070   0.67510   0.08620   0.00000  Uiso   1.00
C204   C     0.91990   0.20190   0.01840   0.00000  Uiso   1.00
H205   H     0.88170   0.22270   0.04650   0.00000  Uiso   1.00
C206   C     0.96800   0.13240   0.91330   0.00000  Uiso   1.00
H207   H     0.97120   0.09400   0.85220   0.00000  Uiso   1.00
C208   C     0.03700   0.18080   0.01120   0.00000  Uiso   1.00
H209   H     0.09490   0.18290   0.02830   0.00000  Uiso   1.00
C210   C     0.05320   0.28760   0.19110   0.00000  Uiso   1.00
H211   H     0.01030   0.28530   0.22970   0.00000  Uiso   1.00
H212   H     0.09590   0.26750   0.22810   0.00000  Uiso   1.00
C213   C     0.10370   0.38470   0.20270   0.00000  Uiso   1.00
C214   C     0.18420   0.40000   0.16510   0.00000  Uiso   1.00
H215   H     0.20570   0.46130   0.16430   0.00000  Uiso   1.00
H216   H     0.16230   0.36050   0.08860   0.00000  Uiso   1.00
C217   C     0.27070   0.31350   0.24050   0.00000  Uiso   1.00
H218   H     0.22320   0.25760   0.21960   0.00000  Uiso   1.00
C219   C     0.35870   0.33490   0.29190   0.00000  Uiso   1.00
H220   H     0.38240   0.29600   0.31300   0.00000  Uiso   1.00
C221   C     0.34770   0.45310   0.26700   0.00000  Uiso   1.00
H222   H     0.36170   0.51190   0.26760   0.00000  Uiso   1.00
C223   C     0.24280   0.37340   0.52400   0.00000  Uiso   1.00
H224   H     0.24860   0.33540   0.56400   0.00000  Uiso   1.00
C225   C     0.16790   0.36070   0.44870   0.00000  Uiso   1.00
H226   H     0.11170   0.31330   0.42680   0.00000  Uiso   1.00
C227   C     0.27620   0.48500   0.46320   0.00000  Uiso   1.00
H228   H     0.30730   0.53790   0.45210   0.00000  Uiso   1.00
C229   C     0.12940   0.44900   0.32420   0.00000  Uiso   1.00
C230   C     0.23080   0.52520   0.83900   0.00000  Uiso   1.00
C231   C     0.25080   0.55440   0.76300   0.00000  Uiso   1.00
C232   C     0.21070   0.59230   0.70900   0.00000  Uiso   1.00
C233   C     0.13890   0.62830   0.75430   0.00000  Uiso   1.00
N234   N     0.07180   0.50420   0.13430   0.00000  Uiso   1.00
N235   N     0.08980   0.64620   0.18780   0.00000  Uiso   1.00
N236   N     0.89390   0.14750   0.91660   0.00000  Uiso   1.00
N237   N     0.00530   0.22530   0.07870   0.00000  Uiso   1.00
N238   N     0.26450   0.38810   0.22500   0.00000  Uiso   1.00
N239   N     0.40740   0.42400   0.30760   0.00000  Uiso   1.00
N240   N     0.31000   0.45060   0.53360   0.00000  Uiso   1.00
N241   N     0.18840   0.42920   0.41010   0.00000  Uiso   1.00
O242   O     0.30980   0.56260   0.93790   0.00000  Uiso   1.00
O243   O     0.17170   0.45630   0.84990   0.00000  Uiso   1.00
O244   O     0.16320   0.65640   0.85720   0.00000  Uiso   1.00
O245   O     0.06320   0.57880   0.67600   0.00000  Uiso   1.00
loop_
_geom_bond_atom_site_label_1
_geom_bond_atom_site_label_2
_geom_bond_distance
_geom_bond_site_symmetry_2
_ccdc_geom_bond_type
Ag1    N43     2.099   .     S
Ag1    Ag65    3.212   .     S
Ag1    N236    2.091   .     S
Ag2    N47     2.086   .     S
Ag2    Ag66    3.329   .     S
Ag2    N176    2.145   .     S
C3     H5      0.970   .     S
C3     C21     1.568   .     S
C3     N42     1.453   .     S
C3     H4      0.969   1_545 S
H4     C3      0.969   1_565 S
C6     H7      0.930   .     S
C6     N42     1.356   .     A
C6     N43     1.321   .     A
C8     H9      0.929   .     S
C8     C10     1.337   .     A
C8     N42     1.346   .     A
C10    H11     0.931   .     S
C10    N43     1.350   .     A
C12    H13     0.932   .     S
C12    N44     1.307   .     A
C12    N45     1.333   1_565 S
C14    H15     0.931   .     S
C14    N44     1.356   .     A
C14    C16     1.357   1_565 S
C16    H17     0.929   .     S
C16    N45     1.344   .     A
C16    C14     1.357   1_545 S
C18    H19     0.970   .     S
C18    H20     0.968   .     S
C18    C21     1.512   .     S
C18    N45     1.444   .     S
C21    C22     1.508   .     S
C21    C37     1.571   .     S
C22    H23     0.972   .     S
C22    H24     0.970   .     S
C22    N46     1.493   .     S
C25    H26     0.929   .     S
C25    C27     1.351   .     A
C25    N46     1.346   .     A
C27    H28     0.931   .     S
C27    N47     1.378   .     A
C29    H30     0.931   .     S
C29    N46     1.332   .     A
C29    N47     1.312   .     A
C31    H32     0.932   .     S
C31    N48     1.356   .     S
C31    C33     1.320   1_554 S
C33    H34     0.930   .     S
C33    N49     1.337   .     S
C33    C31     1.320   1_556 S
C35    H36     0.931   .     S
C35    N49     1.348   .     S
C35    N48     1.319   1_556 S
C37    N49     1.497   .     D
C38    C39     1.279   .     S
C38    O50     1.448   .     A
C38    O51     1.309   .     A
C39    C40     1.279   .     T
C40    C41     1.680   .     S
C41    O52     1.242   .     A
C41    O53     1.281   .     A
N44    Ag193   2.091   .     S
N45    C12     1.333   1_545 S
N48    Ag130   2.145   .     S
N48    C35     1.319   1_554 S
Ag65   N107    2.099   .     S
Ag65   N172    2.091   .     S
Ag66   N111    2.086   .     S
Ag66   N240    2.145   .     S
C67    H69     0.970   .     S
C67    C85     1.568   .     S
C67    N106    1.453   .     S
C67    H68     0.969   1_655 A
H68    C67     0.969   1_455 A
C70    H71     0.930   .     S
C70    N106    1.356   .     A
C70    N107    1.321   .     A
C72    H73     0.929   .     S
C72    C74     1.337   .     A
C72    N106    1.346   .     A
C74    H75     0.931   .     S
C74    N107    1.350   .     A
C76    H77     0.932   .     S
C76    N108    1.307   1_556 S
C76    N109    1.333   1_455 A
C78    H79     0.931   .     S
C78    N108    1.356   .     A
C78    C80     1.357   1_454 A
C80    H81     0.929   .     S
C80    N109    1.344   .     A
C80    C78     1.357   1_656 A
C82    H83     0.970   .     S
C82    H84     0.968   .     S
C82    C85     1.512   .     S
C82    N109    1.444   .     S
C85    C86     1.508   .     S
C85    C101    1.571   .     S
C86    H87     0.972   .     S
C86    H88     0.970   .     S
C86    N110    1.493   .     S
C89    H90     0.929   .     S
C89    C91     1.351   .     A
C89    N110    1.346   .     A
C91    H92     0.931   .     S
C91    N111    1.378   .     A
C93    H94     0.931   .     S
C93    N110    1.332   .     A
C93    N111    1.312   .     A
C95    H96     0.932   .     S
C95    C97     1.320   .     D
C95    N112    1.356   .     S
C97    H98     0.930   .     S
C97    N113    1.337   .     S
C99    H100    0.931   .     S
C99    N112    1.319   .     D
C99    N113    1.348   .     S
C101   N113    1.497   .     D
C102   C103    1.279   .     S
C102   O114    1.448   .     A
C102   O115    1.309   .     A
C103   C104    1.279   .     T
C104   C105    1.680   .     S
C105   O116    1.242   .     A
C105   O117    1.281   .     A
N108   Ag129   2.091   .     S
N108   C76     1.307   1_554 S
N109   C76     1.333   1_655 A
N112   Ag194   2.145   .     S
Ag129  N171    2.099   .     S
Ag129  Ag193   3.212   .     S
Ag130  N175    2.086   .     S
Ag130  Ag194   3.329   .     S
C131   H133    0.970   .     S
C131   C149    1.568   .     S
C131   N170    1.453   .     S
C131   H132    0.969   1_565 A
H132   C131    0.969   1_545 A
C134   H135    0.930   .     S
C134   N170    1.356   .     A
C134   N171    1.321   .     A
C136   H137    0.929   .     S
C136   C138    1.337   .     A
C136   N170    1.346   .     A
C138   H139    0.931   .     S
C138   N171    1.350   .     A
C140   H141    0.932   .     S
C140   N172    1.307   .     A
C140   N173    1.333   1_545 A
C142   H143    0.931   .     S
C142   N172    1.356   .     A
C142   C144    1.357   1_545 S
C144   H145    0.929   .     S
C144   N173    1.344   .     A
C144   C142    1.357   1_565 S
C146   H147    0.970   .     S
C146   H148    0.968   .     S
C146   C149    1.512   .     S
C146   N173    1.444   .     S
C149   C150    1.508   .     S
C149   C165    1.571   .     S
C150   H151    0.972   .     S
C150   H152    0.970   .     S
C150   N174    1.493   .     S
C153   H154    0.929   .     S
C153   C155    1.351   .     A
C153   N174    1.346   .     A
C155   H156    0.931   .     S
C155   N175    1.378   .     A
C157   H158    0.931   .     S
C157   N174    1.332   .     A
C157   N175    1.312   .     A
C159   H160    0.932   .     S
C159   N176    1.356   .     S
C159   C161    1.320   1_556 S
C161   H162    0.930   .     S
C161   N177    1.337   .     S
C161   C159    1.320   1_554 S
C163   H164    0.931   .     S
C163   N177    1.348   .     S
C163   N176    1.319   1_554 S
C165   N177    1.497   .     D
C166   C167    1.279   .     S
C166   O178    1.448   .     A
C166   O179    1.309   .     A
C167   C168    1.279   .     T
C168   C169    1.680   .     S
C169   O180    1.242   .     A
C169   O181    1.281   .     A
N173   C140    1.333   1_565 A
N176   C163    1.319   1_556 S
Ag193  N235    2.099   .     S
Ag194  N239    2.086   .     S
C195   H197    0.970   .     S
C195   C213    1.568   .     S
C195   N234    1.453   .     S
C195   H196    0.969   1_455 S
H196   C195    0.969   1_655 S
C198   H199    0.930   .     S
C198   N234    1.356   .     A
C198   N235    1.321   .     A
C200   H201    0.929   .     S
C200   C202    1.337   .     A
C200   N234    1.346   .     A
C202   H203    0.931   .     S
C202   N235    1.350   .     A
C204   H205    0.932   .     S
C204   N236    1.307   1_554 S
C204   N237    1.333   1_655 S
C206   H207    0.931   .     S
C206   N236    1.356   .     A
C206   C208    1.357   1_656 S
C208   H209    0.929   .     S
C208   N237    1.344   .     A
C208   C206    1.357   1_454 S
C210   H211    0.970   .     S
C210   H212    0.968   .     S
C210   C213    1.512   .     S
C210   N237    1.444   .     S
C213   C214    1.508   .     S
C213   C229    1.571   .     S
C214   H215    0.972   .     S
C214   H216    0.970   .     S
C214   N238    1.493   .     S
C217   H218    0.929   .     S
C217   C219    1.351   .     A
C217   N238    1.346   .     A
C219   H220    0.931   .     S
C219   N239    1.378   .     A
C221   H222    0.931   .     S
C221   N238    1.332   .     A
C221   N239    1.312   .     A
C223   H224    0.932   .     S
C223   C225    1.320   .     D
C223   N240    1.356   .     S
C225   H226    0.930   .     S
C225   N241    1.337   .     S
C227   H228    0.931   .     S
C227   N240    1.319   .     D
C227   N241    1.348   .     S
C229   N241    1.497   .     D
C230   C231    1.279   .     S
C230   O242    1.448   .     A
C230   O243    1.309   .     A
C231   C232    1.279   .     T
C232   C233    1.680   .     S
C233   O244    1.242   .     A
C233   O245    1.281   .     A
N236   C204    1.307   1_556 S
N237   C204    1.333   1_455 S
