data_EBIHII_clean
_audit_creation_date              2014-07-02
_audit_creation_method            'Materials Studio'
_symmetry_space_group_name_H-M    'P1'
_symmetry_Int_Tables_number       1
_symmetry_cell_setting            triclinic
loop_
_symmetry_equiv_pos_as_xyz
  x,y,z
_cell_length_a                    12.8080
_cell_length_b                    14.1550
_cell_length_c                    18.0479
_cell_angle_alpha                 101.4600
_cell_angle_beta                  110.7830
_cell_angle_gamma                 90.0000
loop_
_atom_site_label
_atom_site_type_symbol
_atom_site_fract_x
_atom_site_fract_y
_atom_site_fract_z
_atom_site_U_iso_or_equiv
_atom_site_adp_type
_atom_site_occupancy
Fe1    Fe    0.25409   0.64481   0.03816   0.01267  Uiso   1.00
Fe2    Fe    0.53433   0.99273   0.43080   0.01267  Uiso   1.00
Fe3    Fe    0.21593   0.85519   0.96184   0.01267  Uiso   1.00
Fe4    Fe    0.10353   0.50727   0.56920   0.01267  Uiso   1.00
Fe5    Fe    0.74591   0.35519   0.96184   0.01267  Uiso   1.00
Fe6    Fe    0.46567   0.00727   0.56920   0.01267  Uiso   1.00
Fe7    Fe    0.78407   0.14481   0.03816   0.01267  Uiso   1.00
Fe8    Fe    0.89647   0.49273   0.43080   0.01267  Uiso   1.00
Fe9    Fe    0.00000   0.50000  -0.00000   0.01267  Uiso   1.00
Fe10   Fe    0.00000   0.00000   0.00000   0.01267  Uiso   1.00
H1     H     0.32650   0.73430   0.27900   0.01267  Uiso   1.00
H2     H     0.26640   0.72290   0.48040   0.01267  Uiso   1.00
H3     H     0.08460   0.54590   0.26840   0.01267  Uiso   1.00
H4     H     0.89940   0.62960   0.86460   0.01267  Uiso   1.00
H5     H     0.95610   0.65820   0.80740   0.01267  Uiso   1.00
H6     H     0.93400   0.73840   0.87240   0.01267  Uiso   1.00
H7     H     0.56860   0.61100   0.01020   0.01267  Uiso   1.00
H8     H     0.04750   0.76570   0.72100   0.01267  Uiso   1.00
H9     H     0.78600   0.77710   0.51960   0.01267  Uiso   1.00
H10    H     0.81620   0.95410   0.73160   0.01267  Uiso   1.00
H11    H     0.03480   0.87040   0.13540   0.01267  Uiso   1.00
H12    H     0.14870   0.84180   0.19260   0.01267  Uiso   1.00
H13    H     0.06160   0.76160   0.12760   0.01267  Uiso   1.00
H14    H     0.55840   0.88900   0.98980   0.01267  Uiso   1.00
H15    H     0.67350   0.26570   0.72100   0.01267  Uiso   1.00
H16    H     0.73360   0.27710   0.51960   0.01267  Uiso   1.00
H17    H     0.91540   0.45410   0.73160   0.01267  Uiso   1.00
H18    H     0.10060   0.37040   0.13540   0.01267  Uiso   1.00
H19    H     0.04390   0.34180   0.19260   0.01267  Uiso   1.00
H20    H     0.06600   0.26160   0.12760   0.01267  Uiso   1.00
H21    H     0.43140   0.38900   0.98980   0.01267  Uiso   1.00
H22    H     0.95250   0.23430   0.27900   0.01267  Uiso   1.00
H23    H     0.21400   0.22290   0.48040   0.01267  Uiso   1.00
H24    H     0.18380   0.04590   0.26840   0.01267  Uiso   1.00
H25    H     0.96520   0.12960   0.86460   0.01267  Uiso   1.00
H26    H     0.85130   0.15820   0.80740   0.01267  Uiso   1.00
H27    H     0.93840   0.23840   0.87240   0.01267  Uiso   1.00
H28    H     0.44160   0.11100   0.01020   0.01267  Uiso   1.00
H29    H     0.83560   0.75000   0.00000   0.01267  Uiso   1.00
H30    H     0.16440   0.25000   0.00000   0.01267  Uiso   1.00
C1     C     0.20263   0.63290   0.25986   0.01267  Uiso   1.00
C2     C     0.28520   0.70840   0.30440   0.01267  Uiso   1.00
C3     C     0.30585   0.74470   0.38510   0.01267  Uiso   1.00
C4     C     0.24936   0.70130   0.42492   0.01267  Uiso   1.00
C5     C     0.16742   0.62560   0.38144   0.01267  Uiso   1.00
C6     C     0.14223   0.59370   0.29826   0.01267  Uiso   1.00
C7     C     0.17808   0.59800   0.16936   0.01267  Uiso   1.00
C8     C     0.38616   0.83360   0.42972   0.01267  Uiso   1.00
C9     C     0.10561   0.58000   0.42462   0.01267  Uiso   1.00
C10    C     0.06603   0.66290   0.92086   0.01267  Uiso   1.00
C11    C     0.95391   0.67320   0.86102   0.01267  Uiso   1.00
C12    C     0.71159   0.66520   0.00418   0.01267  Uiso   1.00
C13    C     0.60286   0.66640   0.00552   0.01267  Uiso   1.00
C14    C     0.77032   0.57390   0.00464   0.01267  Uiso   1.00
C15    C     0.94277   0.86710   0.74014   0.01267  Uiso   1.00
C16    C     0.98080   0.79160   0.69560   0.01267  Uiso   1.00
C17    C     0.92075   0.75530   0.61490   0.01267  Uiso   1.00
C18    C     0.82444   0.79870   0.57508   0.01267  Uiso   1.00
C19    C     0.78598   0.87440   0.61856   0.01267  Uiso   1.00
C20    C     0.84397   0.90630   0.70174   0.01267  Uiso   1.00
C21    C     0.00872   0.90200   0.83064   0.01267  Uiso   1.00
C22    C     0.95644   0.66640   0.57028   0.01267  Uiso   1.00
C23    C     0.68099   0.92000   0.57538   0.01267  Uiso   1.00
C24    C     0.14517   0.83710   0.07914   0.01267  Uiso   1.00
C25    C     0.09289   0.82680   0.13898   0.01267  Uiso   1.00
C26    C     0.70741   0.83480   0.99582   0.01267  Uiso   1.00
C27    C     0.59734   0.83360   0.99448   0.01267  Uiso   1.00
C28    C     0.76568   0.92610   0.99536   0.01267  Uiso   1.00
C29    C     0.79737   0.36710   0.74014   0.01267  Uiso   1.00
C30    C     0.71480   0.29160   0.69560   0.01267  Uiso   1.00
C31    C     0.69415   0.25530   0.61490   0.01267  Uiso   1.00
C32    C     0.75064   0.29870   0.57508   0.01267  Uiso   1.00
C33    C     0.83258   0.37440   0.61856   0.01267  Uiso   1.00
C34    C     0.85777   0.40630   0.70174   0.01267  Uiso   1.00
C35    C     0.82192   0.40200   0.83064   0.01267  Uiso   1.00
C36    C     0.61384   0.16640   0.57028   0.01267  Uiso   1.00
C37    C     0.89439   0.42000   0.57538   0.01267  Uiso   1.00
C38    C     0.93397   0.33710   0.07914   0.01267  Uiso   1.00
C39    C     0.04609   0.32680   0.13898   0.01267  Uiso   1.00
C40    C     0.28841   0.33480   0.99582   0.01267  Uiso   1.00
C41    C     0.39714   0.33360   0.99448   0.01267  Uiso   1.00
C42    C     0.22968   0.42610   0.99536   0.01267  Uiso   1.00
C43    C     0.05723   0.13290   0.25986   0.01267  Uiso   1.00
C44    C     0.01920   0.20840   0.30440   0.01267  Uiso   1.00
C45    C     0.07925   0.24470   0.38510   0.01267  Uiso   1.00
C46    C     0.17556   0.20130   0.42492   0.01267  Uiso   1.00
C47    C     0.21402   0.12560   0.38144   0.01267  Uiso   1.00
C48    C     0.15603   0.09370   0.29826   0.01267  Uiso   1.00
C49    C     0.99128   0.09800   0.16936   0.01267  Uiso   1.00
C50    C     0.04356   0.33360   0.42972   0.01267  Uiso   1.00
C51    C     0.31901   0.08000   0.42462   0.01267  Uiso   1.00
C52    C     0.85483   0.16290   0.92086   0.01267  Uiso   1.00
C53    C     0.90711   0.17320   0.86102   0.01267  Uiso   1.00
C54    C     0.29259   0.16520   0.00418   0.01267  Uiso   1.00
C55    C     0.40266   0.16640   0.00552   0.01267  Uiso   1.00
C56    C     0.23432   0.07390   0.00464   0.01267  Uiso   1.00
C57    C     0.54570   0.75000  -0.00000   0.01267  Uiso   1.00
C58    C     0.76300   0.75000   0.00000   0.01267  Uiso   1.00
C59    C     0.42900   0.75000   0.00000   0.01267  Uiso   1.00
C60    C     0.45430   0.25000   0.00000   0.01267  Uiso   1.00
C61    C     0.23700   0.25000   1.00000   0.01267  Uiso   1.00
C62    C     0.57100   0.25000  -0.00000   0.01267  Uiso   1.00
O1     O     0.08606   0.55350   0.12832   0.01267  Uiso   1.00
O2     O     0.25260   0.62050   0.14460   0.01267  Uiso   1.00
O3     O     0.44255   0.86180   0.39290   0.01267  Uiso   1.00
O4     O     0.38787   0.87350   0.49894   0.01267  Uiso   1.00
O5     O     0.16015   0.57330   0.49570   0.01267  Uiso   1.00
O6     O     0.00509   0.55270   0.38578   0.01267  Uiso   1.00
O7     O     0.15424   0.69680   0.91628   0.01267  Uiso   1.00
O8     O     0.07495   0.62410   0.97990   0.01267  Uiso   1.00
O9     O     0.86901   0.58030   0.00622   0.01267  Uiso   1.00
O10    O     0.71661   0.49800   0.00202   0.01267  Uiso   1.00
O11    O     0.39970   0.68590   0.02940   0.01267  Uiso   1.00
O12    O     0.95774   0.94650   0.87168   0.01267  Uiso   1.00
O13    O     0.10800   0.87950   0.85540   0.01267  Uiso   1.00
O14    O     0.04965   0.63820   0.60710   0.01267  Uiso   1.00
O15    O     0.88893   0.62650   0.50106   0.01267  Uiso   1.00
O16    O     0.66445   0.92670   0.50430   0.01267  Uiso   1.00
O17    O     0.61931   0.94730   0.61422   0.01267  Uiso   1.00
O18    O     0.23796   0.80320   0.08372   0.01267  Uiso   1.00
O19    O     0.09505   0.87590   0.02010   0.01267  Uiso   1.00
O20    O     0.86279   0.91970   0.99378   0.01267  Uiso   1.00
O21    O     0.71459   0.00200   0.99798   0.01267  Uiso   1.00
O22    O     0.37030   0.81410   0.97060   0.01267  Uiso   1.00
O23    O     0.91394   0.44650   0.87168   0.01267  Uiso   1.00
O24    O     0.74740   0.37950   0.85540   0.01267  Uiso   1.00
O25    O     0.55745   0.13820   0.60710   0.01267  Uiso   1.00
O26    O     0.61213   0.12650   0.50106   0.01267  Uiso   1.00
O27    O     0.83985   0.42670   0.50430   0.01267  Uiso   1.00
O28    O     0.99491   0.44730   0.61422   0.01267  Uiso   1.00
O29    O     0.84576   0.30320   0.08372   0.01267  Uiso   1.00
O30    O     0.92505   0.37590   0.02010   0.01267  Uiso   1.00
O31    O     0.13099   0.41970   0.99378   0.01267  Uiso   1.00
O32    O     0.28339   0.50200   0.99798   0.01267  Uiso   1.00
O33    O     0.60030   0.31410   0.97060   0.01267  Uiso   1.00
O34    O     0.04226   0.05350   0.12832   0.01267  Uiso   1.00
O35    O     0.89200   0.12050   0.14460   0.01267  Uiso   1.00
O36    O     0.95035   0.36180   0.39290   0.01267  Uiso   1.00
O37    O     0.11107   0.37350   0.49894   0.01267  Uiso   1.00
O38    O     0.33555   0.07330   0.49570   0.01267  Uiso   1.00
O39    O     0.38069   0.05270   0.38578   0.01267  Uiso   1.00
O40    O     0.76204   0.19680   0.91628   0.01267  Uiso   1.00
O41    O     0.90495   0.12410   0.97990   0.01267  Uiso   1.00
O42    O     0.13721   0.08030   0.00622   0.01267  Uiso   1.00
O43    O     0.28541   0.99800   0.00202   0.01267  Uiso   1.00
O44    O     0.62970   0.18590   0.02940   0.01267  Uiso   1.00
