data_image0
_cell_length_a       11.066
_cell_length_b       13.8214
_cell_length_c       16.8387
_cell_angle_alpha    90
_cell_angle_beta     103.31
_cell_angle_gamma    90

_symmetry_space_group_name_H-M    "P 1"
_symmetry_int_tables_number       1

loop_
  _symmetry_equiv_pos_as_xyz
  'x, y, z'

loop_
  _atom_site_label
  _atom_site_occupancy
  _atom_site_fract_x
  _atom_site_fract_y
  _atom_site_fract_z
  _atom_site_thermal_displace_type
  _atom_site_B_iso_or_equiv
  _atom_site_type_symbol
  Co1      1.0000 0.05672  0.08925  0.17407  Biso   1.000  Co
  Co2      1.0000 0.14177  0.99727  0.99494  Biso   1.000  Co
  C1       1.0000 0.67360  0.05800  0.20162  Biso   1.000  C
  C2       1.0000 0.55130  0.05020  0.15661  Biso   1.000  C
  H1       1.0000 0.53480  0.03840  0.09950  Biso   1.000  H
  C3       1.0000 0.45390  0.05960  0.19516  Biso   1.000  C
  C4       1.0000 0.47820  0.07440  0.27912  Biso   1.000  C
  H2       1.0000 0.41110  0.08120  0.30520  Biso   1.000  H
  C5       1.0000 0.60020  0.07910  0.32538  Biso   1.000  C
  C6       1.0000 0.69670  0.07180  0.28600  Biso   1.000  C
  H3       1.0000 0.78000  0.07630  0.31680  Biso   1.000  H
  C7       1.0000 0.62390  0.09070  0.41671  Biso   1.000  C
  C8       1.0000 0.65360  0.99720  0.46507  Biso   1.000  C
  C9       1.0000 0.60350  0.90830  0.43588  Biso   1.000  C
  H4       1.0000 0.54870  0.90460  0.38350  Biso   1.000  H
  C10      1.0000 0.63250  0.82410  0.48260  Biso   1.000  C
  C11      1.0000 0.71000  0.83050  0.56021  Biso   1.000  C
  H5       1.0000 0.72970  0.77380  0.59260  Biso   1.000  H
  C12      1.0000 0.75880  0.91910  0.59054  Biso   1.000  C
  C13      1.0000 0.73130  0.00170  0.54308  Biso   1.000  C
  H6       1.0000 0.76560  0.06210  0.56390  Biso   1.000  H
  C14      1.0000 0.77930  0.04680  0.15981  Biso   1.000  C
  C15      1.0000 0.32120  0.05270  0.14716  Biso   1.000  C
  C16      1.0000 0.58390  0.72530  0.45330  Biso   1.000  C
  C17      1.0000 0.83870  0.92490  0.67564  Biso   1.000  C
  O1       1.0000 0.88325  0.07870  0.19762  Biso   1.000  O
  O2       1.0000 0.75510  0.00517  0.09159  Biso   1.000  O
  O3       1.0000 0.30055  0.99428  0.08752  Biso   1.000  O
  O4       1.0000 0.24351  0.10505  0.17039  Biso   1.000  O
  O5       1.0000 0.49145  0.71939  0.39259  Biso   1.000  O
  O6       1.0000 0.63840  0.65560  0.49286  Biso   1.000  O
  O7       1.0000 0.88452  0.84598  0.70965  Biso   1.000  O
  O8       1.0000 0.85620  0.00384  0.71296  Biso   1.000  O
  O9       1.0000 0.03072  0.99278  0.08246  Biso   1.000  O
  H7       1.0000 0.55700  0.12300  0.43500  Biso   1.000  H
  H8       1.0000 0.69200  0.13500  0.43650  Biso   1.000  H
  H9       1.0000 0.03800  0.94100  0.09800  Biso   1.000  H
  Co3      1.0000 0.44328  0.58925  0.32593  Biso   1.000  Co
  Co4      1.0000 0.35823  0.49727  0.50506  Biso   1.000  Co
  C18      1.0000 0.82640  0.55800  0.29838  Biso   1.000  C
  C19      1.0000 0.94870  0.55020  0.34339  Biso   1.000  C
  H10      1.0000 0.96520  0.53840  0.40050  Biso   1.000  H
  C20      1.0000 0.04610  0.55960  0.30484  Biso   1.000  C
  C21      1.0000 0.02180  0.57440  0.22088  Biso   1.000  C
  H11      1.0000 0.08890  0.58120  0.19480  Biso   1.000  H
  C22      1.0000 0.89980  0.57910  0.17462  Biso   1.000  C
  C23      1.0000 0.80330  0.57180  0.21400  Biso   1.000  C
  H12      1.0000 0.72000  0.57630  0.18320  Biso   1.000  H
  C24      1.0000 0.87610  0.59070  0.08329  Biso   1.000  C
  C25      1.0000 0.84640  0.49720  0.03493  Biso   1.000  C
  C26      1.0000 0.89650  0.40830  0.06412  Biso   1.000  C
  H13      1.0000 0.95130  0.40460  0.11650  Biso   1.000  H
  C27      1.0000 0.86750  0.32410  0.01740  Biso   1.000  C
  C28      1.0000 0.79000  0.33050  0.93979  Biso   1.000  C
  H14      1.0000 0.77030  0.27380  0.90740  Biso   1.000  H
  C29      1.0000 0.74120  0.41910  0.90946  Biso   1.000  C
  C30      1.0000 0.76870  0.50170  0.95692  Biso   1.000  C
  H15      1.0000 0.73440  0.56210  0.93610  Biso   1.000  H
  C31      1.0000 0.72070  0.54680  0.34019  Biso   1.000  C
  C32      1.0000 0.17880  0.55270  0.35284  Biso   1.000  C
  C33      1.0000 0.91610  0.22530  0.04670  Biso   1.000  C
  C34      1.0000 0.66130  0.42490  0.82436  Biso   1.000  C
  O10      1.0000 0.61675  0.57870  0.30238  Biso   1.000  O
  O11      1.0000 0.74490  0.50517  0.40841  Biso   1.000  O
  O12      1.0000 0.19945  0.49428  0.41248  Biso   1.000  O
  O13      1.0000 0.25649  0.60505  0.32961  Biso   1.000  O
  O14      1.0000 0.00855  0.21939  0.10741  Biso   1.000  O
  O15      1.0000 0.86160  0.15560  0.00714  Biso   1.000  O
  O16      1.0000 0.61548  0.34598  0.79035  Biso   1.000  O
  O17      1.0000 0.64380  0.50384  0.78704  Biso   1.000  O
  O18      1.0000 0.46928  0.49278  0.41754  Biso   1.000  O
  H16      1.0000 0.94300  0.62300  0.06500  Biso   1.000  H
  H17      1.0000 0.80800  0.63500  0.06350  Biso   1.000  H
  H18      1.0000 0.46200  0.44100  0.40200  Biso   1.000  H
  Co5      1.0000 0.94328  0.91075  0.82593  Biso   1.000  Co
  Co6      1.0000 0.85823  0.00273  0.00506  Biso   1.000  Co
  C35      1.0000 0.32640  0.94200  0.79838  Biso   1.000  C
  C36      1.0000 0.44870  0.94980  0.84339  Biso   1.000  C
  H19      1.0000 0.46520  0.96160  0.90050  Biso   1.000  H
  C37      1.0000 0.54610  0.94040  0.80484  Biso   1.000  C
  C38      1.0000 0.52180  0.92560  0.72088  Biso   1.000  C
  H20      1.0000 0.58890  0.91880  0.69480  Biso   1.000  H
  C39      1.0000 0.39980  0.92090  0.67462  Biso   1.000  C
  C40      1.0000 0.30330  0.92820  0.71400  Biso   1.000  C
  H21      1.0000 0.22000  0.92370  0.68320  Biso   1.000  H
  C41      1.0000 0.37610  0.90930  0.58329  Biso   1.000  C
  C42      1.0000 0.34640  0.00280  0.53493  Biso   1.000  C
  C43      1.0000 0.39650  0.09170  0.56412  Biso   1.000  C
  H22      1.0000 0.45130  0.09540  0.61650  Biso   1.000  H
  C44      1.0000 0.36750  0.17590  0.51740  Biso   1.000  C
  C45      1.0000 0.29000  0.16950  0.43979  Biso   1.000  C
  H23      1.0000 0.27030  0.22620  0.40740  Biso   1.000  H
  C46      1.0000 0.24120  0.08090  0.40946  Biso   1.000  C
  C47      1.0000 0.26870  0.99830  0.45692  Biso   1.000  C
  H24      1.0000 0.23440  0.93790  0.43610  Biso   1.000  H
  C48      1.0000 0.22070  0.95320  0.84019  Biso   1.000  C
  C49      1.0000 0.67880  0.94730  0.85284  Biso   1.000  C
  C50      1.0000 0.41610  0.27470  0.54670  Biso   1.000  C
  C51      1.0000 0.16130  0.07510  0.32436  Biso   1.000  C
  O19      1.0000 0.11675  0.92130  0.80238  Biso   1.000  O
  O20      1.0000 0.24490  0.99483  0.90841  Biso   1.000  O
  O21      1.0000 0.69945  0.00572  0.91248  Biso   1.000  O
  O22      1.0000 0.75649  0.89495  0.82961  Biso   1.000  O
  O23      1.0000 0.50855  0.28061  0.60741  Biso   1.000  O
  O24      1.0000 0.36160  0.34440  0.50714  Biso   1.000  O
  O25      1.0000 0.11548  0.15402  0.29035  Biso   1.000  O
  O26      1.0000 0.14380  0.99616  0.28704  Biso   1.000  O
  O27      1.0000 0.96928  0.00722  0.91754  Biso   1.000  O
  H25      1.0000 0.44300  0.87700  0.56500  Biso   1.000  H
  H26      1.0000 0.30800  0.86500  0.56350  Biso   1.000  H
  H27      1.0000 0.96200  0.05900  0.90200  Biso   1.000  H
  Co7      1.0000 0.55672  0.41075  0.67407  Biso   1.000  Co
  Co8      1.0000 0.64177  0.50273  0.49494  Biso   1.000  Co
  C52      1.0000 0.17360  0.44200  0.70162  Biso   1.000  C
  C53      1.0000 0.05130  0.44980  0.65661  Biso   1.000  C
  H28      1.0000 0.03480  0.46160  0.59950  Biso   1.000  H
  C54      1.0000 0.95390  0.44040  0.69516  Biso   1.000  C
  C55      1.0000 0.97820  0.42560  0.77912  Biso   1.000  C
  H29      1.0000 0.91110  0.41880  0.80520  Biso   1.000  H
  C56      1.0000 0.10020  0.42090  0.82538  Biso   1.000  C
  C57      1.0000 0.19670  0.42820  0.78600  Biso   1.000  C
  H30      1.0000 0.28000  0.42370  0.81680  Biso   1.000  H
  C58      1.0000 0.12390  0.40930  0.91671  Biso   1.000  C
  C59      1.0000 0.15360  0.50280  0.96507  Biso   1.000  C
  C60      1.0000 0.10350  0.59170  0.93588  Biso   1.000  C
  H31      1.0000 0.04870  0.59540  0.88350  Biso   1.000  H
  C61      1.0000 0.13250  0.67590  0.98260  Biso   1.000  C
  C62      1.0000 0.21000  0.66950  0.06021  Biso   1.000  C
  H32      1.0000 0.22970  0.72620  0.09260  Biso   1.000  H
  C63      1.0000 0.25880  0.58090  0.09054  Biso   1.000  C
  C64      1.0000 0.23130  0.49830  0.04308  Biso   1.000  C
  H33      1.0000 0.26560  0.43790  0.06390  Biso   1.000  H
  C65      1.0000 0.27930  0.45320  0.65981  Biso   1.000  C
  C66      1.0000 0.82120  0.44730  0.64716  Biso   1.000  C
  C67      1.0000 0.08390  0.77470  0.95330  Biso   1.000  C
  C68      1.0000 0.33870  0.57510  0.17564  Biso   1.000  C
  O28      1.0000 0.38325  0.42130  0.69762  Biso   1.000  O
  O29      1.0000 0.25510  0.49483  0.59159  Biso   1.000  O
  O30      1.0000 0.80055  0.50572  0.58752  Biso   1.000  O
  O31      1.0000 0.74351  0.39495  0.67039  Biso   1.000  O
  O32      1.0000 0.99145  0.78061  0.89259  Biso   1.000  O
  O33      1.0000 0.13840  0.84440  0.99286  Biso   1.000  O
  O34      1.0000 0.38452  0.65402  0.20965  Biso   1.000  O
  O35      1.0000 0.35620  0.49616  0.21296  Biso   1.000  O
  O36      1.0000 0.53072  0.50722  0.58246  Biso   1.000  O
  H34      1.0000 0.05700  0.37700  0.93500  Biso   1.000  H
  H35      1.0000 0.19200  0.36500  0.93650  Biso   1.000  H
  H36      1.0000 0.53800  0.55900  0.59800  Biso   1.000  H
